MODEL        1
REMARK 921   NORMALIZED FREE ENERGY PREDICTED BY IDOCK:   -7.41 KCAL/MOL
REMARK 922        TOTAL FREE ENERGY PREDICTED BY IDOCK:  -10.55 KCAL/MOL
REMARK 923 INTER-LIGAND FREE ENERGY PREDICTED BY IDOCK:   -9.58 KCAL/MOL
REMARK 924 INTRA-LIGAND FREE ENERGY PREDICTED BY IDOCK:   -0.96 KCAL/MOL
REMARK 927      BINDING AFFINITY PREDICTED BY RF-SCORE:    0.00 PKD
ROOT
HETATM    1  O   UNL     1      -8.782  10.471  69.563  1.00  0.00    -0.129 OA 
HETATM    2  C   UNL     1      -9.365   9.344  69.998  1.00  0.00    -0.226 C  
HETATM    3  O   UNL     1      -8.770   8.274  69.977  1.00  0.00    -0.130 OA 
HETATM    4  C   UNL     1     -10.707   9.447  70.644  1.00  0.00    -0.353 A  
HETATM    5  C   UNL     1     -10.886   8.561  71.730  1.00  0.00    -0.374 A  
HETATM    6  C   UNL     1     -12.100   8.476  72.411  1.00  0.00    -0.436 A  
HETATM    7  C   UNL     1     -13.161   9.282  72.026  1.00  0.00    -0.512 A  
HETATM    8  C   UNL     1     -13.008  10.172  70.960  1.00  0.00    -0.473 A  
HETATM    9  C   UNL     1     -11.793  10.251  70.246  1.00  0.00    -0.372 A  
ENDROOT
BRANCH   9  10
HETATM   10  C   UNL     1     -11.703  11.247  69.147  1.00  0.00    -0.341 C  
HETATM   11  O   UNL     1     -12.144  10.908  68.054  1.00  0.00    -0.563 OA 
HETATM   12  N   UNL     1     -11.076  12.451  69.442  1.00  0.00    -0.443 N  
HETATM   13  H   UNL     1     -10.755  12.576  70.402  1.00  0.00     0.000 HD 
BRANCH  12  14
HETATM   14  C   UNL     1     -10.837  13.525  68.549  1.00  0.00    -0.264 A  
HETATM   15  C   UNL     1      -9.924  13.466  67.493  1.00  0.00    -0.230 A  
HETATM   16  C   UNL     1      -9.715  14.571  66.656  1.00  0.00    -0.285 A  
HETATM   17  C   UNL     1     -10.432  15.748  66.868  1.00  0.00    -0.315 A  
HETATM   18  C   UNL     1     -11.553  14.716  68.748  1.00  0.00    -0.346 A  
HETATM   19  C   UNL     1     -11.348  15.830  67.919  1.00  0.00    -0.277 A  
BRANCH  17  20
HETATM   20  S   UNL     1     -10.080  17.189  65.870  1.00  0.00    -0.183 S  
HETATM   21  O   UNL     1     -11.040  17.226  64.784  1.00  0.00    -0.954 OA 
HETATM   22  O   UNL     1      -8.659  17.161  65.600  1.00  0.00    -0.470 OA 
BRANCH  20  23
HETATM   23  N   UNL     1     -10.336  18.491  66.919  1.00  0.00    -0.378 N  
HETATM   24  H   UNL     1     -11.262  18.802  67.214  1.00  0.00     0.000 HD 
BRANCH  23  25
HETATM   25  C   UNL     1      -9.138  19.101  67.344  1.00  0.00    -0.292 A  
HETATM   26  N   UNL     1      -8.768  20.205  66.747  1.00  0.00    -0.321 NA 
HETATM   27  C   UNL     1      -7.588  20.647  67.314  1.00  0.00    -0.333 A  
HETATM   28  C   UNL     1      -7.142  19.922  68.399  1.00  0.00    -0.295 A  
HETATM   29  S   UNL     1      -8.196  18.595  68.674  1.00  0.00    -0.286 SA 
ENDBRANCH  23  25
ENDBRANCH  20  23
ENDBRANCH  17  20
ENDBRANCH  12  14
ENDBRANCH   9  10
TORSDOF 5
ENDMDL
MODEL        2
REMARK 921   NORMALIZED FREE ENERGY PREDICTED BY IDOCK:   -7.26 KCAL/MOL
REMARK 922        TOTAL FREE ENERGY PREDICTED BY IDOCK:  -10.35 KCAL/MOL
REMARK 923 INTER-LIGAND FREE ENERGY PREDICTED BY IDOCK:   -9.48 KCAL/MOL
REMARK 924 INTRA-LIGAND FREE ENERGY PREDICTED BY IDOCK:   -0.87 KCAL/MOL
REMARK 927      BINDING AFFINITY PREDICTED BY RF-SCORE:    0.00 PKD
ROOT
HETATM    1  O   UNL     1      -9.071  10.278  69.335  1.00  0.00    -0.196 OA 
HETATM    2  C   UNL     1      -9.786   9.222  69.750  1.00  0.00    -0.188 C  
HETATM    3  O   UNL     1      -9.392   8.077  69.566  1.00  0.00    -0.156 OA 
HETATM    4  C   UNL     1     -11.008   9.475  70.570  1.00  0.00    -0.348 A  
HETATM    5  C   UNL     1     -11.213   8.524  71.595  1.00  0.00    -0.361 A  
HETATM    6  C   UNL     1     -12.338   8.569  72.418  1.00  0.00    -0.424 A  
HETATM    7  C   UNL     1     -13.280   9.570  72.240  1.00  0.00    -0.507 A  
HETATM    8  C   UNL     1     -13.098  10.527  71.238  1.00  0.00    -0.478 A  
HETATM    9  C   UNL     1     -11.977  10.480  70.382  1.00  0.00    -0.425 A  
ENDROOT
BRANCH   9  10
HETATM   10  C   UNL     1     -11.842  11.555  69.364  1.00  0.00    -0.350 C  
HETATM   11  O   UNL     1     -12.278  11.315  68.244  1.00  0.00    -0.611 OA 
HETATM   12  N   UNL     1     -11.182  12.712  69.759  1.00  0.00    -0.482 N  
HETATM   13  H   UNL     1     -10.870  12.752  70.729  1.00  0.00     0.000 HD 
BRANCH  12  14
HETATM   14  C   UNL     1     -10.898  13.843  68.953  1.00  0.00    -0.255 A  
HETATM   15  C   UNL     1     -11.584  15.056  69.049  1.00  0.00    -0.342 A  
HETATM   16  C   UNL     1     -11.271  16.131  68.207  1.00  0.00    -0.343 A  
HETATM   17  C   UNL     1     -10.252  16.001  67.263  1.00  0.00    -0.277 A  
HETATM   18  C   UNL     1      -9.873  13.727  68.000  1.00  0.00    -0.239 A  
HETATM   19  C   UNL     1      -9.555  14.796  67.148  1.00  0.00    -0.231 A  
BRANCH  17  20
HETATM   20  S   UNL     1      -9.934  17.336  66.117  1.00  0.00    -0.241 S  
HETATM   21  O   UNL     1     -10.925  17.265  65.062  1.00  0.00    -0.648 OA 
HETATM   22  O   UNL     1      -8.521  17.282  65.810  1.00  0.00    -0.532 OA 
BRANCH  20  23
HETATM   23  N   UNL     1     -10.164  18.735  67.039  1.00  0.00    -0.358 N  
HETATM   24  H   UNL     1     -11.076  19.168  67.187  1.00  0.00     0.000 HD 
BRANCH  23  25
HETATM   25  C   UNL     1      -8.965  19.241  67.583  1.00  0.00    -0.298 A  
HETATM   26  N   UNL     1      -8.507  18.686  68.677  1.00  0.00    -0.325 NA 
HETATM   27  C   UNL     1      -7.327  19.310  69.035  1.00  0.00    -0.345 A  
HETATM   28  C   UNL     1      -6.863  20.258  68.148  1.00  0.00    -0.289 A  
HETATM   29  S   UNL     1      -7.980  20.428  66.855  1.00  0.00    -0.236 SA 
ENDBRANCH  23  25
ENDBRANCH  20  23
ENDBRANCH  17  20
ENDBRANCH  12  14
ENDBRANCH   9  10
TORSDOF 5
ENDMDL
MODEL        3
REMARK 921   NORMALIZED FREE ENERGY PREDICTED BY IDOCK:   -6.81 KCAL/MOL
REMARK 922        TOTAL FREE ENERGY PREDICTED BY IDOCK:   -9.77 KCAL/MOL
REMARK 923 INTER-LIGAND FREE ENERGY PREDICTED BY IDOCK:   -8.81 KCAL/MOL
REMARK 924 INTRA-LIGAND FREE ENERGY PREDICTED BY IDOCK:   -0.96 KCAL/MOL
REMARK 927      BINDING AFFINITY PREDICTED BY RF-SCORE:    0.00 PKD
ROOT
HETATM    1  O   UNL     1     -11.532  10.613  70.632  1.00  0.00    -0.324 OA 
HETATM    2  C   UNL     1     -11.116   9.370  70.918  1.00  0.00    -0.319 C  
HETATM    3  O   UNL     1     -10.947   9.007  72.075  1.00  0.00    -0.358 OA 
HETATM    4  C   UNL     1     -11.001   8.389  69.797  1.00  0.00    -0.130 A  
HETATM    5  C   UNL     1     -11.382   7.075  70.149  1.00  0.00    -0.321 A  
HETATM    6  C   UNL     1     -11.278   6.018  69.245  1.00  0.00    -0.367 A  
HETATM    7  C   UNL     1     -10.798   6.253  67.966  1.00  0.00    -0.409 A  
HETATM    8  C   UNL     1     -10.422   7.545  67.590  1.00  0.00    -0.319 A  
HETATM    9  C   UNL     1     -10.498   8.620  68.501  1.00  0.00    -0.209 A  
ENDROOT
BRANCH   9  10
HETATM   10  C   UNL     1     -10.110   9.968  68.012  1.00  0.00    -0.167 C  
HETATM   11  O   UNL     1      -8.943  10.305  68.182  1.00  0.00    -0.127 OA 
HETATM   12  N   UNL     1     -11.117  10.747  67.456  1.00  0.00    -0.308 N  
HETATM   13  H   UNL     1     -12.042  10.323  67.394  1.00  0.00     0.000 HD 
BRANCH  12  14
HETATM   14  C   UNL     1     -10.993  12.071  66.967  1.00  0.00    -0.274 A  
HETATM   15  C   UNL     1     -10.436  12.391  65.727  1.00  0.00    -0.288 A  
HETATM   16  C   UNL     1     -10.320  13.723  65.308  1.00  0.00    -0.378 A  
HETATM   17  C   UNL     1     -10.774  14.753  66.133  1.00  0.00    -0.314 A  
HETATM   18  C   UNL     1     -11.448  13.118  67.785  1.00  0.00    -0.352 A  
HETATM   19  C   UNL     1     -11.331  14.456  67.379  1.00  0.00    -0.353 A  
BRANCH  17  20
HETATM   20  S   UNL     1     -10.520  16.453  65.644  1.00  0.00    -0.291 S  
HETATM   21  O   UNL     1     -11.380  16.725  64.509  1.00  0.00    -0.959 OA 
HETATM   22  O   UNL     1      -9.089  16.642  65.550  1.00  0.00    -0.405 OA 
BRANCH  20  23
HETATM   23  N   UNL     1     -11.028  17.349  66.987  1.00  0.00    -0.025 N  
HETATM   24  H   UNL     1     -11.834  17.097  67.559  1.00  0.00     0.000 HD 
BRANCH  23  25
HETATM   25  C   UNL     1     -10.222  18.480  67.233  1.00  0.00    -0.372 A  
HETATM   26  N   UNL     1      -9.407  18.439  68.255  1.00  0.00    -0.314 NA 
HETATM   27  C   UNL     1      -8.702  19.626  68.314  1.00  0.00    -0.314 A  
HETATM   28  C   UNL     1      -8.927  20.502  67.273  1.00  0.00    -0.307 A  
HETATM   29  S   UNL     1     -10.117  19.849  66.222  1.00  0.00    -0.508 SA 
ENDBRANCH  23  25
ENDBRANCH  20  23
ENDBRANCH  17  20
ENDBRANCH  12  14
ENDBRANCH   9  10
TORSDOF 5
ENDMDL
MODEL        4
REMARK 921   NORMALIZED FREE ENERGY PREDICTED BY IDOCK:   -6.78 KCAL/MOL
REMARK 922        TOTAL FREE ENERGY PREDICTED BY IDOCK:   -9.73 KCAL/MOL
REMARK 923 INTER-LIGAND FREE ENERGY PREDICTED BY IDOCK:   -9.08 KCAL/MOL
REMARK 924 INTRA-LIGAND FREE ENERGY PREDICTED BY IDOCK:   -0.65 KCAL/MOL
REMARK 927      BINDING AFFINITY PREDICTED BY RF-SCORE:    0.00 PKD
ROOT
HETATM    1  O   UNL     1     -13.763  15.535  71.012  1.00  0.00    -0.546 OA 
HETATM    2  C   UNL     1     -13.449  14.571  71.890  1.00  0.00    -0.378 C  
HETATM    3  O   UNL     1     -13.632  14.722  73.091  1.00  0.00    -0.552 OA 
HETATM    4  C   UNL     1     -13.003  13.249  71.357  1.00  0.00    -0.398 A  
HETATM    5  C   UNL     1     -13.469  12.146  72.106  1.00  0.00    -0.383 A  
HETATM    6  C   UNL     1     -13.099  10.839  71.790  1.00  0.00    -0.573 A  
HETATM    7  C   UNL     1     -12.260  10.605  70.712  1.00  0.00    -0.474 A  
HETATM    8  C   UNL     1     -11.791  11.678  69.950  1.00  0.00    -0.434 A  
HETATM    9  C   UNL     1     -12.137  13.007  70.272  1.00  0.00    -0.388 A  
ENDROOT
BRANCH   9  10
HETATM   10  C   UNL     1     -11.622  14.087  69.391  1.00  0.00    -0.297 C  
HETATM   11  O   UNL     1     -12.157  14.209  68.294  1.00  0.00    -0.340 OA 
HETATM   12  N   UNL     1     -10.544  14.823  69.866  1.00  0.00    -0.448 N  
HETATM   13  H   UNL     1     -10.208  14.590  70.800  1.00  0.00     0.000 HD 
BRANCH  12  14
HETATM   14  C   UNL     1      -9.863  15.864  69.187  1.00  0.00    -0.247 A  
HETATM   15  C   UNL     1     -10.310  17.187  69.147  1.00  0.00    -0.297 A  
HETATM   16  C   UNL     1      -9.603  18.167  68.438  1.00  0.00    -0.345 A  
HETATM   17  C   UNL     1      -8.427  17.828  67.768  1.00  0.00    -0.236 A  
HETATM   18  C   UNL     1      -8.677  15.538  68.510  1.00  0.00    -0.184 A  
HETATM   19  C   UNL     1      -7.964  16.511  67.793  1.00  0.00    -0.171 A  
BRANCH  17  20
HETATM   20  S   UNL     1      -7.592  19.057  66.774  1.00  0.00    -0.240 S  
HETATM   21  O   UNL     1      -8.149  20.353  67.104  1.00  0.00    -0.329 OA 
HETATM   22  O   UNL     1      -7.616  18.566  65.413  1.00  0.00    -0.444 OA 
BRANCH  20  23
HETATM   23  N   UNL     1      -5.979  18.970  67.279  1.00  0.00    -0.164 N  
HETATM   24  H   UNL     1      -5.224  18.619  66.691  1.00  0.00     0.000 HD 
BRANCH  23  25
HETATM   25  C   UNL     1      -5.789  19.433  68.598  1.00  0.00    -0.213 A  
HETATM   26  N   UNL     1      -5.737  18.543  69.556  1.00  0.00    -0.230 NA 
HETATM   27  C   UNL     1      -5.532  19.193  70.759  1.00  0.00    -0.228 A  
HETATM   28  C   UNL     1      -5.332  20.555  70.672  1.00  0.00    -0.269 A  
HETATM   29  S   UNL     1      -5.479  21.052  69.035  1.00  0.00    -0.275 SA 
ENDBRANCH  23  25
ENDBRANCH  20  23
ENDBRANCH  17  20
ENDBRANCH  12  14
ENDBRANCH   9  10
TORSDOF 5
ENDMDL
MODEL        5
REMARK 921   NORMALIZED FREE ENERGY PREDICTED BY IDOCK:   -6.73 KCAL/MOL
REMARK 922        TOTAL FREE ENERGY PREDICTED BY IDOCK:   -9.66 KCAL/MOL
REMARK 923 INTER-LIGAND FREE ENERGY PREDICTED BY IDOCK:   -8.68 KCAL/MOL
REMARK 924 INTRA-LIGAND FREE ENERGY PREDICTED BY IDOCK:   -0.98 KCAL/MOL
REMARK 927      BINDING AFFINITY PREDICTED BY RF-SCORE:    0.00 PKD
ROOT
HETATM    1  O   UNL     1     -13.136   9.484  70.837  1.00  0.00    -0.238 OA 
HETATM    2  C   UNL     1     -12.728   8.724  71.864  1.00  0.00    -0.374 C  
HETATM    3  O   UNL     1     -13.237   8.830  72.973  1.00  0.00    -0.292 OA 
HETATM    4  C   UNL     1     -11.735   7.643  71.592  1.00  0.00    -0.313 A  
HETATM    5  C   UNL     1     -11.954   6.466  72.342  1.00  0.00    -0.213 A  
HETATM    6  C   UNL     1     -11.087   5.377  72.262  1.00  0.00    -0.259 A  
HETATM    7  C   UNL     1      -9.985   5.437  71.423  1.00  0.00    -0.241 A  
HETATM    8  C   UNL     1      -9.749   6.586  70.665  1.00  0.00    -0.194 A  
HETATM    9  C   UNL     1     -10.604   7.705  70.754  1.00  0.00    -0.224 A  
ENDROOT
BRANCH   9  10
HETATM   10  C   UNL     1     -10.301   8.875  69.889  1.00  0.00    -0.206 C  
HETATM   11  O   UNL     1      -9.405   9.624  70.263  1.00  0.00    -0.242 OA 
HETATM   12  N   UNL     1     -11.098   9.045  68.763  1.00  0.00    -0.442 N  
HETATM   13  H   UNL     1     -11.810   8.335  68.596  1.00  0.00     0.000 HD 
BRANCH  12  14
HETATM   14  C   UNL     1     -11.024  10.104  67.824  1.00  0.00    -0.277 A  
HETATM   15  C   UNL     1     -10.394   9.997  66.582  1.00  0.00    -0.281 A  
HETATM   16  C   UNL     1     -10.334  11.088  65.705  1.00  0.00    -0.316 A  
HETATM   17  C   UNL     1     -10.920  12.302  66.066  1.00  0.00    -0.292 A  
HETATM   18  C   UNL     1     -11.610  11.331  68.173  1.00  0.00    -0.359 A  
HETATM   19  C   UNL     1     -11.552  12.432  67.305  1.00  0.00    -0.435 A  
BRANCH  17  20
HETATM   20  S   UNL     1     -10.742  13.721  64.994  1.00  0.00    -0.405 S  
HETATM   21  O   UNL     1     -11.956  14.508  65.089  1.00  0.00    -0.369 OA 
HETATM   22  O   UNL     1     -10.288  13.215  63.718  1.00  0.00    -0.311 OA 
BRANCH  20  23
HETATM   23  N   UNL     1      -9.441  14.577  65.654  1.00  0.00    -0.534 N  
HETATM   24  H   UNL     1      -8.477  14.243  65.630  1.00  0.00     0.000 HD 
BRANCH  23  25
HETATM   25  C   UNL     1      -9.826  15.801  66.240  1.00  0.00    -0.297 A  
HETATM   26  N   UNL     1      -9.834  16.867  65.481  1.00  0.00    -0.556 NA 
HETATM   27  C   UNL     1     -10.250  17.949  66.233  1.00  0.00    -0.363 A  
HETATM   28  C   UNL     1     -10.646  17.660  67.521  1.00  0.00    -0.343 A  
HETATM   29  S   UNL     1     -10.420  15.985  67.828  1.00  0.00    -0.305 SA 
ENDBRANCH  23  25
ENDBRANCH  20  23
ENDBRANCH  17  20
ENDBRANCH  12  14
ENDBRANCH   9  10
TORSDOF 5
ENDMDL
MODEL        6
REMARK 921   NORMALIZED FREE ENERGY PREDICTED BY IDOCK:   -6.61 KCAL/MOL
REMARK 922        TOTAL FREE ENERGY PREDICTED BY IDOCK:   -9.51 KCAL/MOL
REMARK 923 INTER-LIGAND FREE ENERGY PREDICTED BY IDOCK:   -8.69 KCAL/MOL
REMARK 924 INTRA-LIGAND FREE ENERGY PREDICTED BY IDOCK:   -0.82 KCAL/MOL
REMARK 927      BINDING AFFINITY PREDICTED BY RF-SCORE:    0.00 PKD
ROOT
HETATM    1  O   UNL     1      -8.899   6.733  68.601  1.00  0.00    -0.125 OA 
HETATM    2  C   UNL     1      -9.788   6.051  69.338  1.00  0.00    -0.163 C  
HETATM    3  O   UNL     1     -10.239   4.979  68.955  1.00  0.00    -0.195 OA 
HETATM    4  C   UNL     1     -10.109   6.558  70.705  1.00  0.00    -0.211 A  
HETATM    5  C   UNL     1     -10.305   5.536  71.660  1.00  0.00    -0.277 A  
HETATM    6  C   UNL     1     -10.674   5.825  72.974  1.00  0.00    -0.290 A  
HETATM    7  C   UNL     1     -10.848   7.144  73.364  1.00  0.00    -0.360 A  
HETATM    8  C   UNL     1     -10.654   8.174  72.440  1.00  0.00    -0.393 A  
HETATM    9  C   UNL     1     -10.304   7.896  71.102  1.00  0.00    -0.225 A  
ENDROOT
BRANCH   9  10
HETATM   10  C   UNL     1     -10.083   9.051  70.193  1.00  0.00    -0.193 C  
HETATM   11  O   UNL     1      -9.083   9.731  70.393  1.00  0.00    -0.229 OA 
HETATM   12  N   UNL     1     -11.060   9.289  69.234  1.00  0.00    -0.434 N  
HETATM   13  H   UNL     1     -11.840   8.632  69.202  1.00  0.00     0.000 HD 
BRANCH  12  14
HETATM   14  C   UNL     1     -11.086  10.349  68.294  1.00  0.00    -0.281 A  
HETATM   15  C   UNL     1     -11.757  11.556  68.505  1.00  0.00    -0.379 A  
HETATM   16  C   UNL     1     -11.765  12.559  67.526  1.00  0.00    -0.439 A  
HETATM   17  C   UNL     1     -11.086  12.362  66.324  1.00  0.00    -0.303 A  
HETATM   18  C   UNL     1     -10.405  10.166  67.080  1.00  0.00    -0.303 A  
HETATM   19  C   UNL     1     -10.410  11.162  66.091  1.00  0.00    -0.302 A  
BRANCH  17  20
HETATM   20  S   UNL     1     -11.193  13.597  65.036  1.00  0.00    -0.337 S  
HETATM   21  O   UNL     1     -12.376  14.398  65.282  1.00  0.00    -0.404 OA 
HETATM   22  O   UNL     1     -11.023  12.895  63.782  1.00  0.00    -0.413 OA 
BRANCH  20  23
HETATM   23  N   UNL     1      -9.801  14.535  65.246  1.00  0.00    -0.530 N  
HETATM   24  H   UNL     1      -8.879  14.256  64.909  1.00  0.00     0.000 HD 
BRANCH  23  25
HETATM   25  C   UNL     1     -10.047  15.741  65.934  1.00  0.00    -0.356 A  
HETATM   26  N   UNL     1     -10.312  16.807  65.224  1.00  0.00    -0.643 NA 
HETATM   27  C   UNL     1     -10.535  17.871  66.078  1.00  0.00    -0.293 A  
HETATM   28  C   UNL     1     -10.534  17.563  67.422  1.00  0.00    -0.342 A  
HETATM   29  S   UNL     1     -10.167  15.898  67.628  1.00  0.00    -0.268 SA 
ENDBRANCH  23  25
ENDBRANCH  20  23
ENDBRANCH  17  20
ENDBRANCH  12  14
ENDBRANCH   9  10
TORSDOF 5
ENDMDL
MODEL        7
REMARK 921   NORMALIZED FREE ENERGY PREDICTED BY IDOCK:   -6.39 KCAL/MOL
REMARK 922        TOTAL FREE ENERGY PREDICTED BY IDOCK:   -9.22 KCAL/MOL
REMARK 923 INTER-LIGAND FREE ENERGY PREDICTED BY IDOCK:   -8.26 KCAL/MOL
REMARK 924 INTRA-LIGAND FREE ENERGY PREDICTED BY IDOCK:   -0.97 KCAL/MOL
REMARK 927      BINDING AFFINITY PREDICTED BY RF-SCORE:    0.00 PKD
ROOT
HETATM    1  O   UNL     1     -10.107  18.570  68.788  1.00  0.00    -0.379 OA 
HETATM    2  C   UNL     1      -9.727  19.636  68.068  1.00  0.00    -0.396 C  
HETATM    3  O   UNL     1     -10.301  20.711  68.175  1.00  0.00    -0.145 OA 
HETATM    4  C   UNL     1      -8.493  19.521  67.235  1.00  0.00    -0.333 A  
HETATM    5  C   UNL     1      -7.716  20.700  67.203  1.00  0.00    -0.348 A  
HETATM    6  C   UNL     1      -6.563  20.794  66.424  1.00  0.00    -0.311 A  
HETATM    7  C   UNL     1      -6.156  19.707  65.666  1.00  0.00    -0.221 A  
HETATM    8  C   UNL     1      -6.903  18.526  65.685  1.00  0.00    -0.279 A  
HETATM    9  C   UNL     1      -8.085  18.425  66.449  1.00  0.00    -0.285 A  
ENDROOT
BRANCH   9  10
HETATM   10  C   UNL     1      -8.802  17.123  66.440  1.00  0.00    -0.255 C  
HETATM   11  O   UNL     1      -9.597  16.934  65.526  1.00  0.00    -0.519 OA 
HETATM   12  N   UNL     1      -8.549  16.261  67.500  1.00  0.00    -0.175 N  
HETATM   13  H   UNL     1      -7.863  16.572  68.188  1.00  0.00     0.000 HD 
BRANCH  12  14
HETATM   14  C   UNL     1      -9.145  14.996  67.724  1.00  0.00    -0.180 A  
HETATM   15  C   UNL     1     -10.397  14.822  68.320  1.00  0.00    -0.238 A  
HETATM   16  C   UNL     1     -10.923  13.541  68.536  1.00  0.00    -0.291 A  
HETATM   17  C   UNL     1     -10.196  12.417  68.145  1.00  0.00    -0.225 A  
HETATM   18  C   UNL     1      -8.426  13.854  67.334  1.00  0.00    -0.208 A  
HETATM   19  C   UNL     1      -8.941  12.567  67.551  1.00  0.00    -0.185 A  
BRANCH  17  20
HETATM   20  S   UNL     1     -10.821  10.785  68.525  1.00  0.00    -0.250 S  
HETATM   21  O   UNL     1     -10.020   9.820  67.799  1.00  0.00    -0.155 OA 
HETATM   22  O   UNL     1     -12.255  10.844  68.343  1.00  0.00    -0.540 OA 
BRANCH  20  23
HETATM   23  N   UNL     1     -10.562  10.622  70.189  1.00  0.00    -0.458 N  
HETATM   24  H   UNL     1      -9.744  10.995  70.671  1.00  0.00     0.000 HD 
BRANCH  23  25
HETATM   25  C   UNL     1     -11.595   9.917  70.841  1.00  0.00    -0.373 A  
HETATM   26  N   UNL     1     -11.487   8.616  70.929  1.00  0.00    -0.274 NA 
HETATM   27  C   UNL     1     -12.582   8.120  71.609  1.00  0.00    -0.320 A  
HETATM   28  C   UNL     1     -13.449   9.068  72.112  1.00  0.00    -0.459 A  
HETATM   29  S   UNL     1     -12.913  10.633  71.653  1.00  0.00    -0.456 SA 
ENDBRANCH  23  25
ENDBRANCH  20  23
ENDBRANCH  17  20
ENDBRANCH  12  14
ENDBRANCH   9  10
TORSDOF 5
ENDMDL
MODEL        8
REMARK 921   NORMALIZED FREE ENERGY PREDICTED BY IDOCK:   -6.38 KCAL/MOL
REMARK 922        TOTAL FREE ENERGY PREDICTED BY IDOCK:   -9.21 KCAL/MOL
REMARK 923 INTER-LIGAND FREE ENERGY PREDICTED BY IDOCK:   -8.42 KCAL/MOL
REMARK 924 INTRA-LIGAND FREE ENERGY PREDICTED BY IDOCK:   -0.79 KCAL/MOL
REMARK 927      BINDING AFFINITY PREDICTED BY RF-SCORE:    0.00 PKD
ROOT
HETATM    1  O   UNL     1      -9.322   7.582  67.848  1.00  0.00    -0.138 OA 
HETATM    2  C   UNL     1     -10.377   6.953  68.389  1.00  0.00    -0.190 C  
HETATM    3  O   UNL     1     -10.918   6.016  67.816  1.00  0.00    -0.304 OA 
HETATM    4  C   UNL     1     -10.789   7.328  69.774  1.00  0.00    -0.251 A  
HETATM    5  C   UNL     1     -11.232   6.235  70.552  1.00  0.00    -0.420 A  
HETATM    6  C   UNL     1     -11.714   6.409  71.849  1.00  0.00    -0.378 A  
HETATM    7  C   UNL     1     -11.756   7.681  72.401  1.00  0.00    -0.366 A  
HETATM    8  C   UNL     1     -11.316   8.777  71.655  1.00  0.00    -0.390 A  
HETATM    9  C   UNL     1     -10.849   8.620  70.333  1.00  0.00    -0.250 A  
ENDROOT
BRANCH   9  10
HETATM   10  C   UNL     1     -10.369   9.833  69.622  1.00  0.00    -0.238 C  
HETATM   11  O   UNL     1      -9.213  10.181  69.839  1.00  0.00    -0.192 OA 
HETATM   12  N   UNL     1     -11.290  10.495  68.821  1.00  0.00    -0.356 N  
HETATM   13  H   UNL     1     -12.219  10.080  68.752  1.00  0.00     0.000 HD 
BRANCH  12  14
HETATM   14  C   UNL     1     -11.073  11.689  68.088  1.00  0.00    -0.242 A  
HETATM   15  C   UNL     1     -10.411  11.735  66.859  1.00  0.00    -0.256 A  
HETATM   16  C   UNL     1     -10.207  12.952  66.193  1.00  0.00    -0.286 A  
HETATM   17  C   UNL     1     -10.679  14.138  66.755  1.00  0.00    -0.286 A  
HETATM   18  C   UNL     1     -11.544  12.891  68.640  1.00  0.00    -0.353 A  
HETATM   19  C   UNL     1     -11.341  14.115  67.984  1.00  0.00    -0.324 A  
BRANCH  17  20
HETATM   20  S   UNL     1     -10.318  15.697  65.958  1.00  0.00    -0.357 S  
HETATM   21  O   UNL     1     -10.985  15.707  64.671  1.00  0.00    -0.424 OA 
HETATM   22  O   UNL     1      -8.886  15.881  66.050  1.00  0.00    -0.333 OA 
BRANCH  20  23
HETATM   23  N   UNL     1     -11.010  16.854  66.981  1.00  0.00    -0.034 N  
HETATM   24  H   UNL     1     -11.853  16.687  67.530  1.00  0.00     0.000 HD 
BRANCH  23  25
HETATM   25  C   UNL     1     -10.300  18.073  66.995  1.00  0.00    -0.369 A  
HETATM   26  N   UNL     1     -10.381  18.839  65.937  1.00  0.00    -0.582 NA 
HETATM   27  C   UNL     1      -9.634  19.982  66.155  1.00  0.00    -0.373 A  
HETATM   28  C   UNL     1      -9.085  20.102  67.414  1.00  0.00    -0.364 A  
HETATM   29  S   UNL     1      -9.454  18.701  68.336  1.00  0.00    -0.358 SA 
ENDBRANCH  23  25
ENDBRANCH  20  23
ENDBRANCH  17  20
ENDBRANCH  12  14
ENDBRANCH   9  10
TORSDOF 5
ENDMDL
MODEL        9
REMARK 921   NORMALIZED FREE ENERGY PREDICTED BY IDOCK:   -6.36 KCAL/MOL
REMARK 922        TOTAL FREE ENERGY PREDICTED BY IDOCK:   -9.19 KCAL/MOL
REMARK 923 INTER-LIGAND FREE ENERGY PREDICTED BY IDOCK:   -9.14 KCAL/MOL
REMARK 924 INTRA-LIGAND FREE ENERGY PREDICTED BY IDOCK:   -0.04 KCAL/MOL
REMARK 927      BINDING AFFINITY PREDICTED BY RF-SCORE:    0.00 PKD
ROOT
HETATM    1  O   UNL     1     -13.019  12.758  65.180  1.00  0.00    -0.768 OA 
HETATM    2  C   UNL     1     -12.335  13.617  64.411  1.00  0.00    -0.338 C  
HETATM    3  O   UNL     1     -12.434  13.595  63.191  1.00  0.00    -0.786 OA 
HETATM    4  C   UNL     1     -11.556  14.700  65.083  1.00  0.00    -0.371 A  
HETATM    5  C   UNL     1     -11.578  15.931  64.392  1.00  0.00    -0.234 A  
HETATM    6  C   UNL     1     -10.853  17.034  64.841  1.00  0.00     0.085 A  
HETATM    7  C   UNL     1     -10.096  16.933  65.998  1.00  0.00    -0.336 A  
HETATM    8  C   UNL     1     -10.062  15.728  66.705  1.00  0.00    -0.287 A  
HETATM    9  C   UNL     1     -10.771  14.597  66.249  1.00  0.00    -0.316 A  
ENDROOT
BRANCH   9  10
HETATM   10  C   UNL     1     -10.709  13.365  67.077  1.00  0.00    -0.268 C  
HETATM   11  O   UNL     1      -9.894  12.511  66.742  1.00  0.00    -0.219 OA 
HETATM   12  N   UNL     1     -11.618  13.266  68.123  1.00  0.00    -0.316 N  
HETATM   13  H   UNL     1     -12.239  14.063  68.266  1.00  0.00     0.000 HD 
BRANCH  12  14
HETATM   14  C   UNL     1     -11.774  12.173  69.012  1.00  0.00    -0.322 A  
HETATM   15  C   UNL     1     -11.310  10.883  68.744  1.00  0.00    -0.357 A  
HETATM   16  C   UNL     1     -11.515   9.837  69.654  1.00  0.00    -0.103 A  
HETATM   17  C   UNL     1     -12.183  10.082  70.854  1.00  0.00    -0.346 A  
HETATM   18  C   UNL     1     -12.442  12.405  70.224  1.00  0.00    -0.152 A  
HETATM   19  C   UNL     1     -12.658  11.364  71.141  1.00  0.00    -0.490 A  
BRANCH  17  20
HETATM   20  S   UNL     1     -12.542   8.723  71.958  1.00  0.00    -0.409 S  
HETATM   21  O   UNL     1     -13.740   9.056  72.703  1.00  0.00    -0.470 OA 
HETATM   22  O   UNL     1     -11.305   8.418  72.645  1.00  0.00    -0.372 OA 
BRANCH  20  23
HETATM   23  N   UNL     1     -12.842   7.419  70.924  1.00  0.00    -0.592 N  
HETATM   24  H   UNL     1     -13.704   7.312  70.389  1.00  0.00     0.000 HD 
BRANCH  23  25
HETATM   25  C   UNL     1     -11.778   6.494  70.878  1.00  0.00    -0.356 A  
HETATM   26  N   UNL     1     -11.513   5.812  71.963  1.00  0.00    -0.240 NA 
HETATM   27  C   UNL     1     -10.455   4.959  71.708  1.00  0.00    -0.144 A  
HETATM   28  C   UNL     1     -10.007   4.942  70.404  1.00  0.00    -0.246 A  
HETATM   29  S   UNL     1     -10.890   6.087  69.479  1.00  0.00    -0.388 SA 
ENDBRANCH  23  25
ENDBRANCH  20  23
ENDBRANCH  17  20
ENDBRANCH  12  14
ENDBRANCH   9  10
TORSDOF 5
ENDMDL
MODEL       10
REMARK 921   NORMALIZED FREE ENERGY PREDICTED BY IDOCK:   -6.36 KCAL/MOL
REMARK 922        TOTAL FREE ENERGY PREDICTED BY IDOCK:   -9.18 KCAL/MOL
REMARK 923 INTER-LIGAND FREE ENERGY PREDICTED BY IDOCK:   -8.20 KCAL/MOL
REMARK 924 INTRA-LIGAND FREE ENERGY PREDICTED BY IDOCK:   -0.98 KCAL/MOL
REMARK 927      BINDING AFFINITY PREDICTED BY RF-SCORE:    0.00 PKD
ROOT
HETATM    1  O   UNL     1     -11.573  10.336  70.969  1.00  0.00    -0.351 OA 
HETATM    2  C   UNL     1     -11.129   9.095  71.222  1.00  0.00    -0.335 C  
HETATM    3  O   UNL     1     -11.032   8.678  72.369  1.00  0.00    -0.353 OA 
HETATM    4  C   UNL     1     -10.890   8.182  70.065  1.00  0.00    -0.233 A  
HETATM    5  C   UNL     1     -11.241   6.837  70.319  1.00  0.00    -0.385 A  
HETATM    6  C   UNL     1     -11.026   5.835  69.374  1.00  0.00    -0.352 A  
HETATM    7  C   UNL     1     -10.463   6.157  68.148  1.00  0.00    -0.284 A  
HETATM    8  C   UNL     1     -10.113   7.481  67.869  1.00  0.00    -0.226 A  
HETATM    9  C   UNL     1     -10.301   8.501  68.825  1.00  0.00    -0.233 A  
ENDROOT
BRANCH   9  10
HETATM   10  C   UNL     1      -9.934   9.887  68.436  1.00  0.00    -0.158 C  
HETATM   11  O   UNL     1      -8.814  10.273  68.752  1.00  0.00    -0.132 OA 
HETATM   12  N   UNL     1     -10.913  10.640  67.799  1.00  0.00    -0.285 N  
HETATM   13  H   UNL     1     -11.801  10.173  67.615  1.00  0.00     0.000 HD 
BRANCH  12  14
HETATM   14  C   UNL     1     -10.806  11.989  67.379  1.00  0.00    -0.242 A  
HETATM   15  C   UNL     1     -10.320  12.376  66.128  1.00  0.00    -0.271 A  
HETATM   16  C   UNL     1     -10.217  13.730  65.780  1.00  0.00    -0.322 A  
HETATM   17  C   UNL     1     -10.613  14.712  66.687  1.00  0.00    -0.289 A  
HETATM   18  C   UNL     1     -11.203  12.989  68.281  1.00  0.00    -0.309 A  
HETATM   19  C   UNL     1     -11.099  14.348  67.945  1.00  0.00    -0.288 A  
BRANCH  17  20
HETATM   20  S   UNL     1     -10.374  16.437  66.282  1.00  0.00    -0.319 S  
HETATM   21  O   UNL     1     -10.852  17.229  67.397  1.00  0.00    -0.288 OA 
HETATM   22  O   UNL     1     -10.919  16.624  64.955  1.00  0.00    -0.642 OA 
BRANCH  20  23
HETATM   23  N   UNL     1      -8.696  16.597  66.130  1.00  0.00    -0.312 N  
HETATM   24  H   UNL     1      -8.100  15.886  65.706  1.00  0.00     0.000 HD 
BRANCH  23  25
HETATM   25  C   UNL     1      -8.209  17.814  66.651  1.00  0.00    -0.259 A  
HETATM   26  N   UNL     1      -8.369  18.895  65.931  1.00  0.00    -0.463 NA 
HETATM   27  C   UNL     1      -7.842  19.972  66.618  1.00  0.00    -0.308 A  
HETATM   28  C   UNL     1      -7.383  19.699  67.890  1.00  0.00    -0.280 A  
HETATM   29  S   UNL     1      -7.550  18.020  68.210  1.00  0.00    -0.284 SA 
ENDBRANCH  23  25
ENDBRANCH  20  23
ENDBRANCH  17  20
ENDBRANCH  12  14
ENDBRANCH   9  10
TORSDOF 5
ENDMDL
MODEL       11
REMARK 921   NORMALIZED FREE ENERGY PREDICTED BY IDOCK:   -6.35 KCAL/MOL
REMARK 922        TOTAL FREE ENERGY PREDICTED BY IDOCK:   -9.17 KCAL/MOL
REMARK 923 INTER-LIGAND FREE ENERGY PREDICTED BY IDOCK:   -8.51 KCAL/MOL
REMARK 924 INTRA-LIGAND FREE ENERGY PREDICTED BY IDOCK:   -0.66 KCAL/MOL
REMARK 927      BINDING AFFINITY PREDICTED BY RF-SCORE:    0.00 PKD
ROOT
HETATM    1  O   UNL     1     -12.109   7.401  70.592  1.00  0.00    -0.240 OA 
HETATM    2  C   UNL     1     -11.062   6.718  71.079  1.00  0.00    -0.273 C  
HETATM    3  O   UNL     1     -10.682   6.878  72.232  1.00  0.00    -0.213 OA 
HETATM    4  C   UNL     1     -10.456   5.651  70.228  1.00  0.00    -0.363 A  
HETATM    5  C   UNL     1     -10.028   4.518  70.954  1.00  0.00    -0.263 A  
HETATM    6  C   UNL     1      -9.382   3.451  70.330  1.00  0.00    -0.243 A  
HETATM    7  C   UNL     1      -9.157   3.491  68.962  1.00  0.00    -0.202 A  
HETATM    8  C   UNL     1      -9.577   4.598  68.219  1.00  0.00    -0.207 A  
HETATM    9  C   UNL     1     -10.210   5.695  68.841  1.00  0.00    -0.279 A  
ENDROOT
BRANCH   9  10
HETATM   10  C   UNL     1     -10.655   6.816  67.974  1.00  0.00    -0.231 C  
HETATM   11  O   UNL     1     -11.360   6.528  67.013  1.00  0.00    -0.342 OA 
HETATM   12  N   UNL     1     -10.185   8.083  68.298  1.00  0.00    -0.200 N  
HETATM   13  H   UNL     1      -9.597   8.155  69.128  1.00  0.00     0.000 HD 
BRANCH  12  14
HETATM   14  C   UNL     1     -10.438   9.287  67.595  1.00  0.00    -0.264 A  
HETATM   15  C   UNL     1     -11.148  10.364  68.130  1.00  0.00    -0.344 A  
HETATM   16  C   UNL     1     -11.386  11.520  67.375  1.00  0.00    -0.367 A  
HETATM   17  C   UNL     1     -10.901  11.610  66.070  1.00  0.00    -0.289 A  
HETATM   18  C   UNL     1      -9.954   9.392  66.281  1.00  0.00    -0.353 A  
HETATM   19  C   UNL     1     -10.191  10.543  65.514  1.00  0.00    -0.325 A  
BRANCH  17  20
HETATM   20  S   UNL     1     -11.303  13.039  65.074  1.00  0.00    -0.308 S  
HETATM   21  O   UNL     1     -12.371  13.760  65.738  1.00  0.00    -0.431 OA 
HETATM   22  O   UNL     1     -11.466  12.559  63.719  1.00  0.00    -0.394 OA 
BRANCH  20  23
HETATM   23  N   UNL     1      -9.885  13.961  65.083  1.00  0.00    -0.595 N  
HETATM   24  H   UNL     1      -9.021  13.668  64.626  1.00  0.00     0.000 HD 
BRANCH  23  25
HETATM   25  C   UNL     1     -10.021  15.175  65.787  1.00  0.00    -0.345 A  
HETATM   26  N   UNL     1     -10.416  16.229  65.118  1.00  0.00    -0.632 NA 
HETATM   27  C   UNL     1     -10.500  17.303  65.984  1.00  0.00    -0.282 A  
HETATM   28  C   UNL     1     -10.262  17.016  67.312  1.00  0.00    -0.310 A  
HETATM   29  S   UNL     1      -9.847  15.357  67.474  1.00  0.00    -0.217 SA 
ENDBRANCH  23  25
ENDBRANCH  20  23
ENDBRANCH  17  20
ENDBRANCH  12  14
ENDBRANCH   9  10
TORSDOF 5
ENDMDL
MODEL       12
REMARK 921   NORMALIZED FREE ENERGY PREDICTED BY IDOCK:   -6.33 KCAL/MOL
REMARK 922        TOTAL FREE ENERGY PREDICTED BY IDOCK:   -9.15 KCAL/MOL
REMARK 923 INTER-LIGAND FREE ENERGY PREDICTED BY IDOCK:   -8.60 KCAL/MOL
REMARK 924 INTRA-LIGAND FREE ENERGY PREDICTED BY IDOCK:   -0.55 KCAL/MOL
REMARK 927      BINDING AFFINITY PREDICTED BY RF-SCORE:    0.00 PKD
ROOT
HETATM    1  O   UNL     1     -12.755  12.767  65.550  1.00  0.00    -0.595 OA 
HETATM    2  C   UNL     1     -12.088  13.689  64.838  1.00  0.00    -0.397 C  
HETATM    3  O   UNL     1     -12.322  13.862  63.649  1.00  0.00    -0.696 OA 
HETATM    4  C   UNL     1     -11.153  14.600  65.563  1.00  0.00    -0.345 A  
HETATM    5  C   UNL     1     -11.148  15.922  65.067  1.00  0.00    -0.370 A  
HETATM    6  C   UNL     1     -10.289  16.892  65.582  1.00  0.00    -0.254 A  
HETATM    7  C   UNL     1      -9.420  16.563  66.612  1.00  0.00    -0.278 A  
HETATM    8  C   UNL     1      -9.411  15.264  67.125  1.00  0.00    -0.227 A  
HETATM    9  C   UNL     1     -10.257  14.266  66.597  1.00  0.00    -0.272 A  
ENDROOT
BRANCH   9  10
HETATM   10  C   UNL     1     -10.208  12.919  67.223  1.00  0.00    -0.234 C  
HETATM   11  O   UNL     1      -9.430  12.108  66.733  1.00  0.00    -0.200 OA 
HETATM   12  N   UNL     1     -11.089  12.682  68.271  1.00  0.00    -0.244 N  
HETATM   13  H   UNL     1     -11.681  13.462  68.556  1.00  0.00     0.000 HD 
BRANCH  12  14
HETATM   14  C   UNL     1     -11.251  11.468  68.984  1.00  0.00    -0.262 A  
HETATM   15  C   UNL     1     -10.651  10.263  68.612  1.00  0.00    -0.232 A  
HETATM   16  C   UNL     1     -10.870   9.090  69.347  1.00  0.00    -0.152 A  
HETATM   17  C   UNL     1     -11.689   9.119  70.476  1.00  0.00    -0.152 A  
HETATM   18  C   UNL     1     -12.072  11.483  70.124  1.00  0.00    -0.432 A  
HETATM   19  C   UNL     1     -12.301  10.313  70.864  1.00  0.00    -0.471 A  
BRANCH  17  20
HETATM   20  S   UNL     1     -12.054   7.599  71.342  1.00  0.00    -0.325 S  
HETATM   21  O   UNL     1     -11.182   6.566  70.820  1.00  0.00    -0.280 OA 
HETATM   22  O   UNL     1     -13.492   7.442  71.304  1.00  0.00    -0.353 OA 
BRANCH  20  23
HETATM   23  N   UNL     1     -11.658   7.936  72.952  1.00  0.00    -0.586 N  
HETATM   24  H   UNL     1     -12.300   8.382  73.608  1.00  0.00     0.000 HD 
BRANCH  23  25
HETATM   25  C   UNL     1     -10.349   7.538  73.293  1.00  0.00    -0.357 A  
HETATM   26  N   UNL     1      -9.358   8.301  72.909  1.00  0.00    -0.265 NA 
HETATM   27  C   UNL     1      -8.170   7.749  73.351  1.00  0.00    -0.171 A  
HETATM   28  C   UNL     1      -8.296   6.631  74.149  1.00  0.00    -0.132 A  
HETATM   29  S   UNL     1      -9.955   6.211  74.290  1.00  0.00    -0.314 SA 
ENDBRANCH  23  25
ENDBRANCH  20  23
ENDBRANCH  17  20
ENDBRANCH  12  14
ENDBRANCH   9  10
TORSDOF 5
ENDMDL
MODEL       13
REMARK 921   NORMALIZED FREE ENERGY PREDICTED BY IDOCK:   -6.33 KCAL/MOL
REMARK 922        TOTAL FREE ENERGY PREDICTED BY IDOCK:   -9.14 KCAL/MOL
REMARK 923 INTER-LIGAND FREE ENERGY PREDICTED BY IDOCK:   -8.40 KCAL/MOL
REMARK 924 INTRA-LIGAND FREE ENERGY PREDICTED BY IDOCK:   -0.74 KCAL/MOL
REMARK 927      BINDING AFFINITY PREDICTED BY RF-SCORE:    0.00 PKD
ROOT
HETATM    1  O   UNL     1     -12.409   8.160  70.894  1.00  0.00    -0.200 OA 
HETATM    2  C   UNL     1     -11.425   7.570  71.589  1.00  0.00    -0.261 C  
HETATM    3  O   UNL     1     -11.128   7.949  72.715  1.00  0.00    -0.357 OA 
HETATM    4  C   UNL     1     -10.794   6.343  71.017  1.00  0.00    -0.314 A  
HETATM    5  C   UNL     1     -10.461   5.370  71.985  1.00  0.00    -0.278 A  
HETATM    6  C   UNL     1      -9.806   4.189  71.638  1.00  0.00    -0.254 A  
HETATM    7  C   UNL     1      -9.477   3.950  70.312  1.00  0.00    -0.255 A  
HETATM    8  C   UNL     1      -9.802   4.894  69.334  1.00  0.00    -0.281 A  
HETATM    9  C   UNL     1     -10.442   6.104  69.674  1.00  0.00    -0.312 A  
ENDROOT
BRANCH   9  10
HETATM   10  C   UNL     1     -10.782   7.038  68.569  1.00  0.00    -0.179 C  
HETATM   11  O   UNL     1     -11.401   6.572  67.620  1.00  0.00    -0.268 OA 
HETATM   12  N   UNL     1     -10.317   8.343  68.686  1.00  0.00    -0.206 N  
HETATM   13  H   UNL     1      -9.807   8.572  69.539  1.00  0.00     0.000 HD 
BRANCH  12  14
HETATM   14  C   UNL     1     -10.479   9.388  67.744  1.00  0.00    -0.254 A  
HETATM   15  C   UNL     1      -9.887   9.391  66.479  1.00  0.00    -0.325 A  
HETATM   16  C   UNL     1     -10.067  10.467  65.599  1.00  0.00    -0.333 A  
HETATM   17  C   UNL     1     -10.856  11.552  65.980  1.00  0.00    -0.276 A  
HETATM   18  C   UNL     1     -11.273  10.486  68.113  1.00  0.00    -0.357 A  
HETATM   19  C   UNL     1     -11.456  11.571  67.242  1.00  0.00    -0.338 A  
BRANCH  17  20
HETATM   20  S   UNL     1     -10.990  12.970  64.901  1.00  0.00    -0.324 S  
HETATM   21  O   UNL     1     -12.158  13.729  65.301  1.00  0.00    -0.365 OA 
HETATM   22  O   UNL     1     -10.862  12.469  63.550  1.00  0.00    -0.440 OA 
BRANCH  20  23
HETATM   23  N   UNL     1      -9.584  13.859  65.211  1.00  0.00    -0.546 N  
HETATM   24  H   UNL     1      -8.657  13.575  64.893  1.00  0.00     0.000 HD 
BRANCH  23  25
HETATM   25  C   UNL     1      -9.826  15.033  65.954  1.00  0.00    -0.338 A  
HETATM   26  N   UNL     1     -10.023  16.145  65.293  1.00  0.00    -0.474 NA 
HETATM   27  C   UNL     1     -10.255  17.167  66.194  1.00  0.00    -0.334 A  
HETATM   28  C   UNL     1     -10.329  16.786  67.518  1.00  0.00    -0.301 A  
HETATM   29  S   UNL     1     -10.024  15.101  67.646  1.00  0.00    -0.229 SA 
ENDBRANCH  23  25
ENDBRANCH  20  23
ENDBRANCH  17  20
ENDBRANCH  12  14
ENDBRANCH   9  10
TORSDOF 5
ENDMDL
MODEL       14
REMARK 921   NORMALIZED FREE ENERGY PREDICTED BY IDOCK:   -6.31 KCAL/MOL
REMARK 922        TOTAL FREE ENERGY PREDICTED BY IDOCK:   -9.12 KCAL/MOL
REMARK 923 INTER-LIGAND FREE ENERGY PREDICTED BY IDOCK:   -8.47 KCAL/MOL
REMARK 924 INTRA-LIGAND FREE ENERGY PREDICTED BY IDOCK:   -0.65 KCAL/MOL
REMARK 927      BINDING AFFINITY PREDICTED BY RF-SCORE:    0.00 PKD
ROOT
HETATM    1  O   UNL     1     -12.229  11.295  70.113  1.00  0.00    -0.313 OA 
HETATM    2  C   UNL     1     -11.284  10.344  70.159  1.00  0.00    -0.321 C  
HETATM    3  O   UNL     1     -10.838   9.945  71.227  1.00  0.00    -0.289 OA 
HETATM    4  C   UNL     1     -10.891   9.677  68.882  1.00  0.00    -0.201 A  
HETATM    5  C   UNL     1     -10.618   8.298  69.020  1.00  0.00    -0.167 A  
HETATM    6  C   UNL     1     -10.176   7.530  67.944  1.00  0.00    -0.245 A  
HETATM    7  C   UNL     1     -10.003   8.122  66.703  1.00  0.00    -0.339 A  
HETATM    8  C   UNL     1     -10.272   9.483  66.538  1.00  0.00    -0.307 A  
HETATM    9  C   UNL     1     -10.697  10.278  67.623  1.00  0.00    -0.339 A  
ENDROOT
BRANCH   9  10
HETATM   10  C   UNL     1     -10.993  11.710  67.355  1.00  0.00    -0.261 C  
HETATM   11  O   UNL     1     -12.075  11.964  66.837  1.00  0.00    -0.599 OA 
HETATM   12  N   UNL     1      -9.994  12.625  67.662  1.00  0.00    -0.212 N  
HETATM   13  H   UNL     1      -9.144  12.250  68.081  1.00  0.00     0.000 HD 
BRANCH  12  14
HETATM   14  C   UNL     1     -10.034  14.026  67.452  1.00  0.00    -0.243 A  
HETATM   15  C   UNL     1     -10.606  14.929  68.352  1.00  0.00    -0.244 A  
HETATM   16  C   UNL     1     -10.635  16.303  68.077  1.00  0.00    -0.308 A  
HETATM   17  C   UNL     1     -10.076  16.786  66.893  1.00  0.00    -0.286 A  
HETATM   18  C   UNL     1      -9.474  14.527  66.267  1.00  0.00    -0.310 A  
HETATM   19  C   UNL     1      -9.501  15.901  65.979  1.00  0.00    -0.389 A  
BRANCH  17  20
HETATM   20  S   UNL     1     -10.216  18.523  66.496  1.00  0.00    -0.428 S  
HETATM   21  O   UNL     1     -10.647  19.222  67.691  1.00  0.00    -0.428 OA 
HETATM   22  O   UNL     1     -10.988  18.602  65.275  1.00  0.00    -0.536 OA 
BRANCH  20  23
HETATM   23  N   UNL     1      -8.640  18.982  66.089  1.00  0.00    -0.266 N  
HETATM   24  H   UNL     1      -8.296  19.023  65.129  1.00  0.00     0.000 HD 
BRANCH  23  25
HETATM   25  C   UNL     1      -7.850  19.301  67.213  1.00  0.00    -0.254 A  
HETATM   26  N   UNL     1      -7.546  18.334  68.041  1.00  0.00    -0.244 NA 
HETATM   27  C   UNL     1      -6.763  18.845  69.058  1.00  0.00    -0.296 A  
HETATM   28  C   UNL     1      -6.405  20.171  68.924  1.00  0.00    -0.323 A  
HETATM   29  S   UNL     1      -7.137  20.821  67.513  1.00  0.00    -0.325 SA 
ENDBRANCH  23  25
ENDBRANCH  20  23
ENDBRANCH  17  20
ENDBRANCH  12  14
ENDBRANCH   9  10
TORSDOF 5
ENDMDL
MODEL       15
REMARK 921   NORMALIZED FREE ENERGY PREDICTED BY IDOCK:   -6.28 KCAL/MOL
REMARK 922        TOTAL FREE ENERGY PREDICTED BY IDOCK:   -9.08 KCAL/MOL
REMARK 923 INTER-LIGAND FREE ENERGY PREDICTED BY IDOCK:   -8.71 KCAL/MOL
REMARK 924 INTRA-LIGAND FREE ENERGY PREDICTED BY IDOCK:   -0.37 KCAL/MOL
REMARK 927      BINDING AFFINITY PREDICTED BY RF-SCORE:    0.00 PKD
ROOT
HETATM    1  O   UNL     1     -11.981  14.016  66.417  1.00  0.00    -0.396 OA 
HETATM    2  C   UNL     1     -10.808  14.657  66.310  1.00  0.00    -0.321 C  
HETATM    3  O   UNL     1     -10.018  14.389  65.414  1.00  0.00    -0.348 OA 
HETATM    4  C   UNL     1     -10.546  15.807  67.225  1.00  0.00    -0.313 A  
HETATM    5  C   UNL     1      -9.839  16.869  66.618  1.00  0.00    -0.295 A  
HETATM    6  C   UNL     1      -9.453  17.997  67.341  1.00  0.00    -0.262 A  
HETATM    7  C   UNL     1      -9.773  18.093  68.687  1.00  0.00    -0.367 A  
HETATM    8  C   UNL     1     -10.479  17.060  69.310  1.00  0.00    -0.293 A  
HETATM    9  C   UNL     1     -10.854  15.902  68.597  1.00  0.00    -0.291 A  
ENDROOT
BRANCH   9  10
HETATM   10  C   UNL     1     -11.631  14.866  69.326  1.00  0.00    -0.306 C  
HETATM   11  O   UNL     1     -12.601  15.251  69.970  1.00  0.00    -0.318 OA 
HETATM   12  N   UNL     1     -11.155  13.562  69.258  1.00  0.00    -0.393 N  
HETATM   13  H   UNL     1     -10.327  13.407  68.684  1.00  0.00     0.000 HD 
BRANCH  12  14
HETATM   14  C   UNL     1     -11.702  12.425  69.903  1.00  0.00    -0.266 A  
HETATM   15  C   UNL     1     -12.533  12.493  71.023  1.00  0.00    -0.353 A  
HETATM   16  C   UNL     1     -13.024  11.330  71.632  1.00  0.00    -0.537 A  
HETATM   17  C   UNL     1     -12.689  10.080  71.111  1.00  0.00    -0.387 A  
HETATM   18  C   UNL     1     -11.376  11.160  69.389  1.00  0.00    -0.352 A  
HETATM   19  C   UNL     1     -11.857   9.988  69.993  1.00  0.00    -0.196 A  
BRANCH  17  20
HETATM   20  S   UNL     1     -13.225   8.599  71.957  1.00  0.00    -0.401 S  
HETATM   21  O   UNL     1     -13.413   7.560  70.963  1.00  0.00    -0.199 OA 
HETATM   22  O   UNL     1     -14.310   8.995  72.827  1.00  0.00    -0.596 OA 
BRANCH  20  23
HETATM   23  N   UNL     1     -11.926   8.209  72.968  1.00  0.00    -0.463 N  
HETATM   24  H   UNL     1     -11.738   8.682  73.852  1.00  0.00     0.000 HD 
BRANCH  23  25
HETATM   25  C   UNL     1     -11.128   7.161  72.462  1.00  0.00    -0.280 A  
HETATM   26  N   UNL     1     -10.059   7.481  71.779  1.00  0.00    -0.175 NA 
HETATM   27  C   UNL     1      -9.414   6.322  71.388  1.00  0.00    -0.156 A  
HETATM   28  C   UNL     1      -9.955   5.149  71.871  1.00  0.00    -0.184 A  
HETATM   29  S   UNL     1     -11.365   5.503  72.786  1.00  0.00    -0.265 SA 
ENDBRANCH  23  25
ENDBRANCH  20  23
ENDBRANCH  17  20
ENDBRANCH  12  14
ENDBRANCH   9  10
TORSDOF 5
ENDMDL
MODEL       16
REMARK 921   NORMALIZED FREE ENERGY PREDICTED BY IDOCK:   -6.24 KCAL/MOL
REMARK 922        TOTAL FREE ENERGY PREDICTED BY IDOCK:   -9.03 KCAL/MOL
REMARK 923 INTER-LIGAND FREE ENERGY PREDICTED BY IDOCK:   -8.02 KCAL/MOL
REMARK 924 INTRA-LIGAND FREE ENERGY PREDICTED BY IDOCK:   -1.01 KCAL/MOL
REMARK 927      BINDING AFFINITY PREDICTED BY RF-SCORE:    0.00 PKD
ROOT
HETATM    1  O   UNL     1     -11.633   8.756  72.118  1.00  0.00    -0.362 OA 
HETATM    2  C   UNL     1     -10.883   7.752  72.596  1.00  0.00    -0.354 C  
HETATM    3  O   UNL     1     -10.751   7.576  73.800  1.00  0.00    -0.315 OA 
HETATM    4  C   UNL     1     -10.328   6.762  71.625  1.00  0.00    -0.215 A  
HETATM    5  C   UNL     1     -10.313   5.435  72.110  1.00  0.00    -0.265 A  
HETATM    6  C   UNL     1      -9.771   4.390  71.363  1.00  0.00    -0.248 A  
HETATM    7  C   UNL     1      -9.238   4.647  70.109  1.00  0.00    -0.188 A  
HETATM    8  C   UNL     1      -9.246   5.950  69.603  1.00  0.00    -0.151 A  
HETATM    9  C   UNL     1      -9.769   7.021  70.358  1.00  0.00    -0.178 A  
ENDROOT
BRANCH   9  10
HETATM   10  C   UNL     1      -9.770   8.369  69.733  1.00  0.00    -0.180 C  
HETATM   11  O   UNL     1      -8.828   9.106  70.003  1.00  0.00    -0.151 OA 
HETATM   12  N   UNL     1     -10.867   8.694  68.945  1.00  0.00    -0.431 N  
HETATM   13  H   UNL     1     -11.575   7.969  68.826  1.00  0.00     0.000 HD 
BRANCH  12  14
HETATM   14  C   UNL     1     -11.106   9.927  68.289  1.00  0.00    -0.150 A  
HETATM   15  C   UNL     1     -10.748  10.183  66.964  1.00  0.00    -0.264 A  
HETATM   16  C   UNL     1     -10.991  11.433  66.378  1.00  0.00    -0.315 A  
HETATM   17  C   UNL     1     -11.607  12.440  67.121  1.00  0.00    -0.365 A  
HETATM   18  C   UNL     1     -11.728  10.950  69.024  1.00  0.00    -0.391 A  
HETATM   19  C   UNL     1     -11.971  12.207  68.449  1.00  0.00    -0.257 A  
BRANCH  17  20
HETATM   20  S   UNL     1     -11.811  14.066  66.406  1.00  0.00    -0.437 S  
HETATM   21  O   UNL     1     -12.994  14.041  65.569  1.00  0.00    -0.681 OA 
HETATM   22  O   UNL     1     -10.525  14.434  65.856  1.00  0.00    -0.286 OA 
BRANCH  20  23
HETATM   23  N   UNL     1     -12.062  15.075  67.740  1.00  0.00    -0.474 N  
HETATM   24  H   UNL     1     -12.952  15.142  68.235  1.00  0.00     0.000 HD 
BRANCH  23  25
HETATM   25  C   UNL     1     -10.915  15.814  68.096  1.00  0.00    -0.330 A  
HETATM   26  N   UNL     1     -10.794  17.025  67.616  1.00  0.00    -0.297 NA 
HETATM   27  C   UNL     1      -9.621  17.580  68.091  1.00  0.00    -0.294 A  
HETATM   28  C   UNL     1      -8.928  16.813  69.003  1.00  0.00    -0.188 A  
HETATM   29  S   UNL     1      -9.733  15.312  69.219  1.00  0.00    -0.248 SA 
ENDBRANCH  23  25
ENDBRANCH  20  23
ENDBRANCH  17  20
ENDBRANCH  12  14
ENDBRANCH   9  10
TORSDOF 5
ENDMDL
MODEL       17
REMARK 921   NORMALIZED FREE ENERGY PREDICTED BY IDOCK:   -6.24 KCAL/MOL
REMARK 922        TOTAL FREE ENERGY PREDICTED BY IDOCK:   -9.03 KCAL/MOL
REMARK 923 INTER-LIGAND FREE ENERGY PREDICTED BY IDOCK:   -8.66 KCAL/MOL
REMARK 924 INTRA-LIGAND FREE ENERGY PREDICTED BY IDOCK:   -0.36 KCAL/MOL
REMARK 927      BINDING AFFINITY PREDICTED BY RF-SCORE:    0.00 PKD
ROOT
HETATM    1  O   UNL     1     -11.803   6.757  69.966  1.00  0.00    -0.316 OA 
HETATM    2  C   UNL     1     -11.978   6.836  71.294  1.00  0.00    -0.365 C  
HETATM    3  O   UNL     1     -13.031   6.492  71.816  1.00  0.00    -0.262 OA 
HETATM    4  C   UNL     1     -10.808   7.219  72.139  1.00  0.00    -0.263 A  
HETATM    5  C   UNL     1     -10.750   6.536  73.374  1.00  0.00    -0.295 A  
HETATM    6  C   UNL     1      -9.760   6.813  74.316  1.00  0.00    -0.328 A  
HETATM    7  C   UNL     1      -8.800   7.776  74.041  1.00  0.00    -0.304 A  
HETATM    8  C   UNL     1      -8.831   8.461  72.824  1.00  0.00    -0.276 A  
HETATM    9  C   UNL     1      -9.841   8.208  71.871  1.00  0.00    -0.276 A  
ENDROOT
BRANCH   9  10
HETATM   10  C   UNL     1      -9.782   8.956  70.588  1.00  0.00    -0.212 C  
HETATM   11  O   UNL     1      -8.707   8.962  69.999  1.00  0.00    -0.130 OA 
HETATM   12  N   UNL     1     -10.934   9.629  70.201  1.00  0.00    -0.258 N  
HETATM   13  H   UNL     1     -11.747   9.531  70.810  1.00  0.00     0.000 HD 
BRANCH  12  14
HETATM   14  C   UNL     1     -11.098  10.438  69.049  1.00  0.00    -0.248 A  
HETATM   15  C   UNL     1     -11.625  11.731  69.078  1.00  0.00    -0.372 A  
HETATM   16  C   UNL     1     -11.784  12.473  67.900  1.00  0.00    -0.416 A  
HETATM   17  C   UNL     1     -11.402  11.923  66.676  1.00  0.00    -0.337 A  
HETATM   18  C   UNL     1     -10.716   9.898  67.811  1.00  0.00    -0.332 A  
HETATM   19  C   UNL     1     -10.875  10.630  66.624  1.00  0.00    -0.197 A  
BRANCH  17  20
HETATM   20  S   UNL     1     -11.711  12.828  65.166  1.00  0.00    -0.383 S  
HETATM   21  O   UNL     1     -12.738  13.815  65.438  1.00  0.00    -0.559 OA 
HETATM   22  O   UNL     1     -11.894  11.839  64.126  1.00  0.00    -0.327 OA 
BRANCH  20  23
HETATM   23  N   UNL     1     -10.240  13.595  64.835  1.00  0.00    -0.549 N  
HETATM   24  H   UNL     1      -9.490  13.164  64.294  1.00  0.00     0.000 HD 
BRANCH  23  25
HETATM   25  C   UNL     1     -10.157  14.890  65.387  1.00  0.00    -0.367 A  
HETATM   26  N   UNL     1     -10.788  15.858  64.772  1.00  0.00    -0.583 NA 
HETATM   27  C   UNL     1     -10.596  17.034  65.473  1.00  0.00    -0.173 A  
HETATM   28  C   UNL     1      -9.906  16.912  66.660  1.00  0.00    -0.287 A  
HETATM   29  S   UNL     1      -9.415  15.280  66.872  1.00  0.00    -0.247 SA 
ENDBRANCH  23  25
ENDBRANCH  20  23
ENDBRANCH  17  20
ENDBRANCH  12  14
ENDBRANCH   9  10
TORSDOF 5
ENDMDL
MODEL       18
REMARK 921   NORMALIZED FREE ENERGY PREDICTED BY IDOCK:   -6.22 KCAL/MOL
REMARK 922        TOTAL FREE ENERGY PREDICTED BY IDOCK:   -9.00 KCAL/MOL
REMARK 923 INTER-LIGAND FREE ENERGY PREDICTED BY IDOCK:   -7.99 KCAL/MOL
REMARK 924 INTRA-LIGAND FREE ENERGY PREDICTED BY IDOCK:   -1.01 KCAL/MOL
REMARK 927      BINDING AFFINITY PREDICTED BY RF-SCORE:    0.00 PKD
ROOT
HETATM    1  O   UNL     1      -7.069  16.637  68.741  1.00  0.00    -0.170 OA 
HETATM    2  C   UNL     1      -7.354  17.942  68.864  1.00  0.00    -0.248 C  
HETATM    3  O   UNL     1      -6.592  18.704  69.445  1.00  0.00    -0.269 OA 
HETATM    4  C   UNL     1      -8.553  18.473  68.152  1.00  0.00    -0.324 A  
HETATM    5  C   UNL     1      -8.373  19.770  67.622  1.00  0.00    -0.355 A  
HETATM    6  C   UNL     1      -9.409  20.448  66.979  1.00  0.00    -0.511 A  
HETATM    7  C   UNL     1     -10.648  19.839  66.846  1.00  0.00    -0.588 A  
HETATM    8  C   UNL     1     -10.851  18.554  67.355  1.00  0.00    -0.342 A  
HETATM    9  C   UNL     1      -9.819  17.867  68.029  1.00  0.00    -0.320 A  
ENDROOT
BRANCH   9  10
HETATM   10  C   UNL     1     -10.108  16.491  68.510  1.00  0.00    -0.255 C  
HETATM   11  O   UNL     1     -10.493  16.378  69.669  1.00  0.00    -0.289 OA 
HETATM   12  N   UNL     1      -9.861  15.451  67.622  1.00  0.00    -0.220 N  
HETATM   13  H   UNL     1      -9.533  15.712  66.692  1.00  0.00     0.000 HD 
BRANCH  12  14
HETATM   14  C   UNL     1     -10.019  14.066  67.873  1.00  0.00    -0.237 A  
HETATM   15  C   UNL     1     -11.259  13.434  67.993  1.00  0.00    -0.298 A  
HETATM   16  C   UNL     1     -11.349  12.063  68.265  1.00  0.00    -0.342 A  
HETATM   17  C   UNL     1     -10.186  11.306  68.411  1.00  0.00    -0.195 A  
HETATM   18  C   UNL     1      -8.857  13.290  68.020  1.00  0.00    -0.190 A  
HETATM   19  C   UNL     1      -8.936  11.917  68.298  1.00  0.00    -0.178 A  
BRANCH  17  20
HETATM   20  S   UNL     1     -10.306   9.582  68.870  1.00  0.00    -0.213 S  
HETATM   21  O   UNL     1      -9.109   9.232  69.608  1.00  0.00    -0.148 OA 
HETATM   22  O   UNL     1     -10.670   8.864  67.668  1.00  0.00    -0.244 OA 
BRANCH  20  23
HETATM   23  N   UNL     1     -11.657   9.518  69.886  1.00  0.00    -0.442 N  
HETATM   24  H   UNL     1     -12.468  10.129  69.782  1.00  0.00     0.000 HD 
BRANCH  23  25
HETATM   25  C   UNL     1     -11.546   8.534  70.890  1.00  0.00    -0.263 A  
HETATM   26  N   UNL     1     -11.449   8.936  72.132  1.00  0.00    -0.356 NA 
HETATM   27  C   UNL     1     -11.366   7.829  72.955  1.00  0.00    -0.349 A  
HETATM   28  C   UNL     1     -11.503   6.609  72.326  1.00  0.00    -0.283 A  
HETATM   29  S   UNL     1     -11.669   6.852  70.634  1.00  0.00    -0.357 SA 
ENDBRANCH  23  25
ENDBRANCH  20  23
ENDBRANCH  17  20
ENDBRANCH  12  14
ENDBRANCH   9  10
TORSDOF 5
ENDMDL
MODEL       19
REMARK 921   NORMALIZED FREE ENERGY PREDICTED BY IDOCK:   -6.22 KCAL/MOL
REMARK 922        TOTAL FREE ENERGY PREDICTED BY IDOCK:   -9.00 KCAL/MOL
REMARK 923 INTER-LIGAND FREE ENERGY PREDICTED BY IDOCK:   -8.40 KCAL/MOL
REMARK 924 INTRA-LIGAND FREE ENERGY PREDICTED BY IDOCK:   -0.60 KCAL/MOL
REMARK 927      BINDING AFFINITY PREDICTED BY RF-SCORE:    0.00 PKD
ROOT
HETATM    1  O   UNL     1      -7.587  10.036  70.125  1.00  0.00    -0.162 OA 
HETATM    2  C   UNL     1      -7.461   8.994  70.960  1.00  0.00    -0.114 C  
HETATM    3  O   UNL     1      -6.361   8.527  71.229  1.00  0.00    -0.038 OA 
HETATM    4  C   UNL     1      -8.681   8.505  71.670  1.00  0.00    -0.262 A  
HETATM    5  C   UNL     1      -8.438   8.087  72.997  1.00  0.00    -0.252 A  
HETATM    6  C   UNL     1      -9.450   7.543  73.787  1.00  0.00    -0.330 A  
HETATM    7  C   UNL     1     -10.730   7.412  73.270  1.00  0.00    -0.441 A  
HETATM    8  C   UNL     1     -10.998   7.824  71.962  1.00  0.00    -0.305 A  
HETATM    9  C   UNL     1      -9.979   8.354  71.143  1.00  0.00    -0.245 A  
ENDROOT
BRANCH   9  10
HETATM   10  C   UNL     1     -10.355   8.800  69.776  1.00  0.00    -0.211 C  
HETATM   11  O   UNL     1     -10.474   7.928  68.922  1.00  0.00    -0.214 OA 
HETATM   12  N   UNL     1     -10.481  10.169  69.576  1.00  0.00    -0.224 N  
HETATM   13  H   UNL     1     -10.340  10.765  70.391  1.00  0.00     0.000 HD 
BRANCH  12  14
HETATM   14  C   UNL     1     -10.785  10.823  68.356  1.00  0.00    -0.217 A  
HETATM   15  C   UNL     1     -10.215  10.481  67.128  1.00  0.00    -0.270 A  
HETATM   16  C   UNL     1     -10.540  11.182  65.959  1.00  0.00    -0.298 A  
HETATM   17  C   UNL     1     -11.454  12.234  66.012  1.00  0.00    -0.381 A  
HETATM   18  C   UNL     1     -11.706  11.883  68.393  1.00  0.00    -0.387 A  
HETATM   19  C   UNL     1     -12.035  12.596  67.230  1.00  0.00    -0.321 A  
BRANCH  17  20
HETATM   20  S   UNL     1     -11.779  13.197  64.541  1.00  0.00    -0.394 S  
HETATM   21  O   UNL     1     -12.867  14.108  64.834  1.00  0.00    -0.687 OA 
HETATM   22  O   UNL     1     -11.879  12.253  63.449  1.00  0.00    -0.467 OA 
BRANCH  20  23
HETATM   23  N   UNL     1     -10.346  14.061  64.289  1.00  0.00    -0.510 N  
HETATM   24  H   UNL     1      -9.607  13.752  63.657  1.00  0.00     0.000 HD 
BRANCH  23  25
HETATM   25  C   UNL     1     -10.281  15.252  65.042  1.00  0.00    -0.289 A  
HETATM   26  N   UNL     1     -10.946  16.290  64.604  1.00  0.00    -0.681 NA 
HETATM   27  C   UNL     1     -10.766  17.341  65.483  1.00  0.00    -0.100 A  
HETATM   28  C   UNL     1     -10.048  17.045  66.623  1.00  0.00    -0.306 A  
HETATM   29  S   UNL     1      -9.517  15.414  66.558  1.00  0.00    -0.296 SA 
ENDBRANCH  23  25
ENDBRANCH  20  23
ENDBRANCH  17  20
ENDBRANCH  12  14
ENDBRANCH   9  10
TORSDOF 5
ENDMDL
MODEL       20
REMARK 921   NORMALIZED FREE ENERGY PREDICTED BY IDOCK:   -6.22 KCAL/MOL
REMARK 922        TOTAL FREE ENERGY PREDICTED BY IDOCK:   -9.00 KCAL/MOL
REMARK 923 INTER-LIGAND FREE ENERGY PREDICTED BY IDOCK:   -8.07 KCAL/MOL
REMARK 924 INTRA-LIGAND FREE ENERGY PREDICTED BY IDOCK:   -0.93 KCAL/MOL
REMARK 927      BINDING AFFINITY PREDICTED BY RF-SCORE:    0.00 PKD
ROOT
HETATM    1  O   UNL     1     -12.661  12.245  64.930  1.00  0.00    -0.575 OA 
HETATM    2  C   UNL     1     -12.232  13.310  64.235  1.00  0.00    -0.392 C  
HETATM    3  O   UNL     1     -12.633  13.530  63.100  1.00  0.00    -0.762 OA 
HETATM    4  C   UNL     1     -11.360  14.302  64.932  1.00  0.00    -0.372 A  
HETATM    5  C   UNL     1     -11.611  15.641  64.559  1.00  0.00    -0.262 A  
HETATM    6  C   UNL     1     -10.849  16.695  65.063  1.00  0.00    -0.190 A  
HETATM    7  C   UNL     1      -9.822  16.433  65.957  1.00  0.00    -0.362 A  
HETATM    8  C   UNL     1      -9.557  15.118  66.346  1.00  0.00    -0.309 A  
HETATM    9  C   UNL     1     -10.304  14.040  65.827  1.00  0.00    -0.330 A  
ENDROOT
BRANCH   9  10
HETATM   10  C   UNL     1      -9.979  12.675  66.319  1.00  0.00    -0.258 C  
HETATM   11  O   UNL     1      -9.064  12.086  65.755  1.00  0.00    -0.133 OA 
HETATM   12  N   UNL     1     -10.779  12.169  67.336  1.00  0.00    -0.228 N  
HETATM   13  H   UNL     1     -11.509  12.786  67.694  1.00  0.00     0.000 HD 
BRANCH  12  14
HETATM   14  C   UNL     1     -10.687  10.885  67.928  1.00  0.00    -0.231 A  
HETATM   15  C   UNL     1     -10.742   9.691  67.205  1.00  0.00    -0.284 A  
HETATM   16  C   UNL     1     -10.669   8.451  67.852  1.00  0.00    -0.141 A  
HETATM   17  C   UNL     1     -10.528   8.397  69.239  1.00  0.00    -0.215 A  
HETATM   18  C   UNL     1     -10.543  10.816  69.323  1.00  0.00    -0.261 A  
HETATM   19  C   UNL     1     -10.473   9.579  69.982  1.00  0.00    -0.283 A  
BRANCH  17  20
HETATM   20  S   UNL     1     -10.548   6.814  70.068  1.00  0.00    -0.234 S  
HETATM   21  O   UNL     1      -9.189   6.497  70.460  1.00  0.00    -0.154 OA 
HETATM   22  O   UNL     1     -11.300   5.917  69.219  1.00  0.00    -0.325 OA 
BRANCH  20  23
HETATM   23  N   UNL     1     -11.503   7.079  71.440  1.00  0.00    -0.263 N  
HETATM   24  H   UNL     1     -12.360   7.632  71.430  1.00  0.00     0.000 HD 
BRANCH  23  25
HETATM   25  C   UNL     1     -10.991   6.456  72.597  1.00  0.00    -0.253 A  
HETATM   26  N   UNL     1     -10.443   7.217  73.510  1.00  0.00    -0.364 NA 
HETATM   27  C   UNL     1     -10.021   6.423  74.560  1.00  0.00    -0.351 A  
HETATM   28  C   UNL     1     -10.350   5.088  74.465  1.00  0.00    -0.278 A  
HETATM   29  S   UNL     1     -11.151   4.800  72.974  1.00  0.00    -0.258 SA 
ENDBRANCH  23  25
ENDBRANCH  20  23
ENDBRANCH  17  20
ENDBRANCH  12  14
ENDBRANCH   9  10
TORSDOF 5
ENDMDL
MODEL       21
REMARK 921   NORMALIZED FREE ENERGY PREDICTED BY IDOCK:   -6.16 KCAL/MOL
REMARK 922        TOTAL FREE ENERGY PREDICTED BY IDOCK:   -8.93 KCAL/MOL
REMARK 923 INTER-LIGAND FREE ENERGY PREDICTED BY IDOCK:   -7.98 KCAL/MOL
REMARK 924 INTRA-LIGAND FREE ENERGY PREDICTED BY IDOCK:   -0.95 KCAL/MOL
REMARK 927      BINDING AFFINITY PREDICTED BY RF-SCORE:    0.00 PKD
ROOT
HETATM    1  O   UNL     1      -7.622   7.377  67.511  1.00  0.00    -0.101 OA 
HETATM    2  C   UNL     1      -7.751   6.177  68.097  1.00  0.00    -0.103 C  
HETATM    3  O   UNL     1      -6.969   5.266  67.854  1.00  0.00    -0.062 OA 
HETATM    4  C   UNL     1      -8.784   6.018  69.163  1.00  0.00    -0.120 A  
HETATM    5  C   UNL     1      -8.381   5.182  70.227  1.00  0.00    -0.097 A  
HETATM    6  C   UNL     1      -9.242   4.871  71.278  1.00  0.00    -0.190 A  
HETATM    7  C   UNL     1     -10.525   5.397  71.293  1.00  0.00    -0.296 A  
HETATM    8  C   UNL     1     -10.947   6.233  70.256  1.00  0.00    -0.400 A  
HETATM    9  C   UNL     1     -10.094   6.536  69.174  1.00  0.00    -0.190 A  
ENDROOT
BRANCH   9  10
HETATM   10  C   UNL     1     -10.609   7.460  68.129  1.00  0.00    -0.162 C  
HETATM   11  O   UNL     1     -11.245   6.958  67.210  1.00  0.00    -0.317 OA 
HETATM   12  N   UNL     1     -10.274   8.802  68.260  1.00  0.00    -0.196 N  
HETATM   13  H   UNL     1      -9.728   9.059  69.082  1.00  0.00     0.000 HD 
BRANCH  12  14
HETATM   14  C   UNL     1     -10.611   9.851  67.369  1.00  0.00    -0.277 A  
HETATM   15  C   UNL     1     -10.165   9.920  66.047  1.00  0.00    -0.269 A  
HETATM   16  C   UNL     1     -10.515  10.996  65.221  1.00  0.00    -0.316 A  
HETATM   17  C   UNL     1     -11.330  12.015  65.715  1.00  0.00    -0.331 A  
HETATM   18  C   UNL     1     -11.432  10.882  67.851  1.00  0.00    -0.344 A  
HETATM   19  C   UNL     1     -11.785  11.968  67.035  1.00  0.00    -0.341 A  
BRANCH  17  20
HETATM   20  S   UNL     1     -11.680  13.440  64.694  1.00  0.00    -0.392 S  
HETATM   21  O   UNL     1     -12.700  14.226  65.359  1.00  0.00    -0.507 OA 
HETATM   22  O   UNL     1     -11.889  12.940  63.353  1.00  0.00    -0.525 OA 
BRANCH  20  23
HETATM   23  N   UNL     1     -10.218  14.292  64.659  1.00  0.00    -0.622 N  
HETATM   24  H   UNL     1      -9.415  14.008  64.098  1.00  0.00     0.000 HD 
BRANCH  23  25
HETATM   25  C   UNL     1     -10.226  15.434  65.487  1.00  0.00    -0.382 A  
HETATM   26  N   UNL     1     -10.614  16.568  64.960  1.00  0.00    -0.698 NA 
HETATM   27  C   UNL     1     -10.564  17.552  65.929  1.00  0.00    -0.203 A  
HETATM   28  C   UNL     1     -10.236  17.120  67.198  1.00  0.00    -0.316 A  
HETATM   29  S   UNL     1      -9.905  15.436  67.162  1.00  0.00    -0.223 SA 
ENDBRANCH  23  25
ENDBRANCH  20  23
ENDBRANCH  17  20
ENDBRANCH  12  14
ENDBRANCH   9  10
TORSDOF 5
ENDMDL
MODEL       22
REMARK 921   NORMALIZED FREE ENERGY PREDICTED BY IDOCK:   -6.11 KCAL/MOL
REMARK 922        TOTAL FREE ENERGY PREDICTED BY IDOCK:   -8.86 KCAL/MOL
REMARK 923 INTER-LIGAND FREE ENERGY PREDICTED BY IDOCK:   -8.15 KCAL/MOL
REMARK 924 INTRA-LIGAND FREE ENERGY PREDICTED BY IDOCK:   -0.71 KCAL/MOL
REMARK 927      BINDING AFFINITY PREDICTED BY RF-SCORE:    0.00 PKD
ROOT
HETATM    1  O   UNL     1     -12.164   7.514  72.003  1.00  0.00    -0.290 OA 
HETATM    2  C   UNL     1     -11.190   6.706  72.449  1.00  0.00    -0.267 C  
HETATM    3  O   UNL     1     -10.873   6.688  73.631  1.00  0.00    -0.274 OA 
HETATM    4  C   UNL     1     -10.598   5.721  71.495  1.00  0.00    -0.304 A  
HETATM    5  C   UNL     1     -10.283   4.477  72.084  1.00  0.00    -0.256 A  
HETATM    6  C   UNL     1      -9.664   3.460  71.356  1.00  0.00    -0.234 A  
HETATM    7  C   UNL     1      -9.354   3.664  70.020  1.00  0.00    -0.248 A  
HETATM    8  C   UNL     1      -9.662   4.883  69.412  1.00  0.00    -0.261 A  
HETATM    9  C   UNL     1     -10.265   5.929  70.142  1.00  0.00    -0.281 A  
ENDROOT
BRANCH   9  10
HETATM   10  C   UNL     1     -10.589   7.182  69.411  1.00  0.00    -0.233 C  
HETATM   11  O   UNL     1     -11.088   7.061  68.297  1.00  0.00    -0.122 OA 
HETATM   12  N   UNL     1     -10.246   8.376  70.032  1.00  0.00    -0.197 N  
HETATM   13  H   UNL     1      -9.828   8.306  70.960  1.00  0.00     0.000 HD 
BRANCH  12  14
HETATM   14  C   UNL     1     -10.416   9.683  69.511  1.00  0.00    -0.224 A  
HETATM   15  C   UNL     1      -9.515  10.292  68.634  1.00  0.00    -0.169 A  
HETATM   16  C   UNL     1      -9.728  11.597  68.171  1.00  0.00    -0.189 A  
HETATM   17  C   UNL     1     -10.860  12.304  68.578  1.00  0.00    -0.237 A  
HETATM   18  C   UNL     1     -11.552  10.405  69.910  1.00  0.00    -0.358 A  
HETATM   19  C   UNL     1     -11.772  11.715  69.456  1.00  0.00    -0.410 A  
BRANCH  17  20
HETATM   20  S   UNL     1     -11.067  14.006  68.075  1.00  0.00    -0.274 S  
HETATM   21  O   UNL     1      -9.929  14.372  67.255  1.00  0.00    -0.242 OA 
HETATM   22  O   UNL     1     -11.384  14.751  69.274  1.00  0.00    -0.263 OA 
BRANCH  20  23
HETATM   23  N   UNL     1     -12.478  13.991  67.141  1.00  0.00    -0.510 N  
HETATM   24  H   UNL     1     -13.390  14.281  67.494  1.00  0.00     0.000 HD 
BRANCH  23  25
HETATM   25  C   UNL     1     -12.262  13.537  65.823  1.00  0.00    -0.461 A  
HETATM   26  N   UNL     1     -12.335  12.250  65.600  1.00  0.00    -0.563 NA 
HETATM   27  C   UNL     1     -12.109  12.014  64.257  1.00  0.00    -0.322 A  
HETATM   28  C   UNL     1     -11.970  13.139  63.472  1.00  0.00    -0.513 A  
HETATM   29  S   UNL     1     -12.050  14.541  64.460  1.00  0.00    -0.446 SA 
ENDBRANCH  23  25
ENDBRANCH  20  23
ENDBRANCH  17  20
ENDBRANCH  12  14
ENDBRANCH   9  10
TORSDOF 5
ENDMDL
MODEL       23
REMARK 921   NORMALIZED FREE ENERGY PREDICTED BY IDOCK:   -6.11 KCAL/MOL
REMARK 922        TOTAL FREE ENERGY PREDICTED BY IDOCK:   -8.86 KCAL/MOL
REMARK 923 INTER-LIGAND FREE ENERGY PREDICTED BY IDOCK:   -7.96 KCAL/MOL
REMARK 924 INTRA-LIGAND FREE ENERGY PREDICTED BY IDOCK:   -0.90 KCAL/MOL
REMARK 927      BINDING AFFINITY PREDICTED BY RF-SCORE:    0.00 PKD
ROOT
HETATM    1  O   UNL     1     -11.551  14.727  66.293  1.00  0.00    -0.358 OA 
HETATM    2  C   UNL     1     -10.780  15.761  65.924  1.00  0.00    -0.313 C  
HETATM    3  O   UNL     1     -10.349  15.855  64.782  1.00  0.00    -0.485 OA 
HETATM    4  C   UNL     1     -10.576  16.873  66.900  1.00  0.00    -0.214 A  
HETATM    5  C   UNL     1     -10.535  18.153  66.303  1.00  0.00    -0.374 A  
HETATM    6  C   UNL     1     -10.289  19.301  67.055  1.00  0.00    -0.526 A  
HETATM    7  C   UNL     1     -10.087  19.196  68.423  1.00  0.00    -0.498 A  
HETATM    8  C   UNL     1     -10.130  17.942  69.038  1.00  0.00    -0.292 A  
HETATM    9  C   UNL     1     -10.353  16.769  68.287  1.00  0.00    -0.319 A  
ENDROOT
BRANCH   9  10
HETATM   10  C   UNL     1     -10.417  15.480  69.023  1.00  0.00    -0.231 C  
HETATM   11  O   UNL     1      -9.351  14.997  69.389  1.00  0.00    -0.190 OA 
HETATM   12  N   UNL     1     -11.674  14.910  69.181  1.00  0.00    -0.295 N  
HETATM   13  H   UNL     1     -12.465  15.437  68.810  1.00  0.00     0.000 HD 
BRANCH  12  14
HETATM   14  C   UNL     1     -11.972  13.673  69.805  1.00  0.00    -0.341 A  
HETATM   15  C   UNL     1     -12.563  13.562  71.066  1.00  0.00    -0.438 A  
HETATM   16  C   UNL     1     -12.812  12.308  71.639  1.00  0.00    -0.378 A  
HETATM   17  C   UNL     1     -12.478  11.147  70.943  1.00  0.00    -0.409 A  
HETATM   18  C   UNL     1     -11.643  12.496  69.115  1.00  0.00    -0.375 A  
HETATM   19  C   UNL     1     -11.884  11.235  69.682  1.00  0.00    -0.430 A  
BRANCH  17  20
HETATM   20  S   UNL     1     -12.693   9.554  71.726  1.00  0.00    -0.426 S  
HETATM   21  O   UNL     1     -13.379   8.685  70.790  1.00  0.00     0.179 OA 
HETATM   22  O   UNL     1     -13.249   9.815  73.035  1.00  0.00     0.288 OA 
BRANCH  20  23
HETATM   23  N   UNL     1     -11.114   9.004  71.983  1.00  0.00    -0.355 N  
HETATM   24  H   UNL     1     -10.391   9.562  72.436  1.00  0.00     0.000 HD 
BRANCH  23  25
HETATM   25  C   UNL     1     -10.903   7.693  71.507  1.00  0.00    -0.227 A  
HETATM   26  N   UNL     1     -11.198   6.698  72.304  1.00  0.00    -0.256 NA 
HETATM   27  C   UNL     1     -10.936   5.508  71.652  1.00  0.00    -0.168 A  
HETATM   28  C   UNL     1     -10.542   5.627  70.335  1.00  0.00    -0.294 A  
HETATM   29  S   UNL     1     -10.425   7.289  69.921  1.00  0.00    -0.230 SA 
ENDBRANCH  23  25
ENDBRANCH  20  23
ENDBRANCH  17  20
ENDBRANCH  12  14
ENDBRANCH   9  10
TORSDOF 5
ENDMDL
MODEL       24
REMARK 921   NORMALIZED FREE ENERGY PREDICTED BY IDOCK:   -6.09 KCAL/MOL
REMARK 922        TOTAL FREE ENERGY PREDICTED BY IDOCK:   -8.84 KCAL/MOL
REMARK 923 INTER-LIGAND FREE ENERGY PREDICTED BY IDOCK:   -7.93 KCAL/MOL
REMARK 924 INTRA-LIGAND FREE ENERGY PREDICTED BY IDOCK:   -0.91 KCAL/MOL
REMARK 927      BINDING AFFINITY PREDICTED BY RF-SCORE:    0.00 PKD
ROOT
HETATM    1  O   UNL     1     -11.171  13.558  63.954  1.00  0.00    -0.300 OA 
HETATM    2  C   UNL     1     -11.265  12.220  63.954  1.00  0.00    -0.421 C  
HETATM    3  O   UNL     1     -12.179  11.649  63.373  1.00  0.00    -0.448 OA 
HETATM    4  C   UNL     1     -10.149  11.434  64.559  1.00  0.00    -0.337 A  
HETATM    5  C   UNL     1      -9.858  10.236  63.870  1.00  0.00    -0.251 A  
HETATM    6  C   UNL     1      -8.888   9.346  64.330  1.00  0.00    -0.220 A  
HETATM    7  C   UNL     1      -8.181   9.638  65.486  1.00  0.00    -0.126 A  
HETATM    8  C   UNL     1      -8.445  10.820  66.183  1.00  0.00    -0.167 A  
HETATM    9  C   UNL     1      -9.441  11.718  65.743  1.00  0.00    -0.232 A  
ENDROOT
BRANCH   9  10
HETATM   10  C   UNL     1      -9.635  12.968  66.523  1.00  0.00    -0.260 C  
HETATM   11  O   UNL     1     -10.307  12.884  67.546  1.00  0.00    -0.220 OA 
HETATM   12  N   UNL     1      -9.086  14.129  65.994  1.00  0.00    -0.486 N  
HETATM   13  H   UNL     1      -8.560  14.031  65.125  1.00  0.00     0.000 HD 
BRANCH  12  14
HETATM   14  C   UNL     1      -9.181  15.435  66.534  1.00  0.00    -0.292 A  
HETATM   15  C   UNL     1     -10.189  16.343  66.198  1.00  0.00    -0.363 A  
HETATM   16  C   UNL     1     -10.215  17.630  66.750  1.00  0.00    -0.335 A  
HETATM   17  C   UNL     1      -9.230  18.017  67.659  1.00  0.00    -0.259 A  
HETATM   18  C   UNL     1      -8.197  15.838  67.451  1.00  0.00    -0.196 A  
HETATM   19  C   UNL     1      -8.211  17.127  68.006  1.00  0.00    -0.216 A  
BRANCH  17  20
HETATM   20  S   UNL     1      -9.204  19.696  68.272  1.00  0.00    -0.325 S  
HETATM   21  O   UNL     1      -8.167  19.788  69.280  1.00  0.00    -0.172 OA 
HETATM   22  O   UNL     1     -10.574  20.036  68.588  1.00  0.00    -0.296 OA 
BRANCH  20  23
HETATM   23  N   UNL     1      -8.786  20.623  66.920  1.00  0.00    -0.578 N  
HETATM   24  H   UNL     1      -9.407  21.315  66.499  1.00  0.00     0.000 HD 
BRANCH  23  25
HETATM   25  C   UNL     1      -7.492  20.342  66.437  1.00  0.00    -0.245 A  
HETATM   26  N   UNL     1      -7.379  19.484  65.455  1.00  0.00    -0.421 NA 
HETATM   27  C   UNL     1      -6.044  19.359  65.121  1.00  0.00    -0.261 A  
HETATM   28  C   UNL     1      -5.182  20.203  65.790  1.00  0.00    -0.161 A  
HETATM   29  S   UNL     1      -6.065  21.134  66.932  1.00  0.00    -0.337 SA 
ENDBRANCH  23  25
ENDBRANCH  20  23
ENDBRANCH  17  20
ENDBRANCH  12  14
ENDBRANCH   9  10
TORSDOF 5
ENDMDL
MODEL       25
REMARK 921   NORMALIZED FREE ENERGY PREDICTED BY IDOCK:   -6.08 KCAL/MOL
REMARK 922        TOTAL FREE ENERGY PREDICTED BY IDOCK:   -8.83 KCAL/MOL
REMARK 923 INTER-LIGAND FREE ENERGY PREDICTED BY IDOCK:   -7.77 KCAL/MOL
REMARK 924 INTRA-LIGAND FREE ENERGY PREDICTED BY IDOCK:   -1.06 KCAL/MOL
REMARK 927      BINDING AFFINITY PREDICTED BY RF-SCORE:    0.00 PKD
ROOT
HETATM    1  O   UNL     1      -9.752   9.268  65.510  1.00  0.00    -0.277 OA 
HETATM    2  C   UNL     1      -9.790  10.282  64.632  1.00  0.00    -0.327 C  
HETATM    3  O   UNL     1      -9.103  10.270  63.619  1.00  0.00    -0.211 OA 
HETATM    4  C   UNL     1     -10.798  11.363  64.845  1.00  0.00    -0.323 A  
HETATM    5  C   UNL     1     -11.361  11.860  63.649  1.00  0.00    -0.536 A  
HETATM    6  C   UNL     1     -12.273  12.915  63.654  1.00  0.00    -0.581 A  
HETATM    7  C   UNL     1     -12.649  13.492  64.858  1.00  0.00    -0.392 A  
HETATM    8  C   UNL     1     -12.113  13.013  66.056  1.00  0.00    -0.493 A  
HETATM    9  C   UNL     1     -11.171  11.963  66.064  1.00  0.00    -0.377 A  
ENDROOT
BRANCH   9  10
HETATM   10  C   UNL     1     -10.674  11.492  67.384  1.00  0.00    -0.232 C  
HETATM   11  O   UNL     1      -9.727  12.101  67.869  1.00  0.00    -0.188 OA 
HETATM   12  N   UNL     1     -11.291  10.369  67.921  1.00  0.00    -0.461 N  
HETATM   13  H   UNL     1     -12.063   9.971  67.385  1.00  0.00     0.000 HD 
BRANCH  12  14
HETATM   14  C   UNL     1     -10.960   9.718  69.135  1.00  0.00    -0.175 A  
HETATM   15  C   UNL     1     -11.463  10.099  70.381  1.00  0.00    -0.400 A  
HETATM   16  C   UNL     1     -11.079   9.429  71.551  1.00  0.00    -0.446 A  
HETATM   17  C   UNL     1     -10.188   8.358  71.477  1.00  0.00    -0.228 A  
HETATM   18  C   UNL     1     -10.066   8.637  69.076  1.00  0.00    -0.207 A  
HETATM   19  C   UNL     1      -9.671   7.962  70.241  1.00  0.00    -0.183 A  
BRANCH  17  20
HETATM   20  S   UNL     1      -9.615   7.581  72.981  1.00  0.00    -0.241 S  
HETATM   21  O   UNL     1     -10.777   7.183  73.751  1.00  0.00    -0.361 OA 
HETATM   22  O   UNL     1      -8.622   8.468  73.547  1.00  0.00    -0.341 OA 
BRANCH  20  23
HETATM   23  N   UNL     1      -8.776   6.213  72.446  1.00  0.00    -0.126 N  
HETATM   24  H   UNL     1      -7.980   6.254  71.809  1.00  0.00     0.000 HD 
BRANCH  23  25
HETATM   25  C   UNL     1      -9.291   5.009  72.970  1.00  0.00    -0.129 A  
HETATM   26  N   UNL     1     -10.151   4.343  72.242  1.00  0.00    -0.183 NA 
HETATM   27  C   UNL     1     -10.520   3.197  72.921  1.00  0.00    -0.150 A  
HETATM   28  C   UNL     1      -9.854   2.969  74.107  1.00  0.00    -0.107 A  
HETATM   29  S   UNL     1      -8.780   4.272  74.421  1.00  0.00    -0.094 SA 
ENDBRANCH  23  25
ENDBRANCH  20  23
ENDBRANCH  17  20
ENDBRANCH  12  14
ENDBRANCH   9  10
TORSDOF 5
ENDMDL
MODEL       26
REMARK 921   NORMALIZED FREE ENERGY PREDICTED BY IDOCK:   -6.06 KCAL/MOL
REMARK 922        TOTAL FREE ENERGY PREDICTED BY IDOCK:   -8.80 KCAL/MOL
REMARK 923 INTER-LIGAND FREE ENERGY PREDICTED BY IDOCK:   -8.41 KCAL/MOL
REMARK 924 INTRA-LIGAND FREE ENERGY PREDICTED BY IDOCK:   -0.38 KCAL/MOL
REMARK 927      BINDING AFFINITY PREDICTED BY RF-SCORE:    0.00 PKD
ROOT
HETATM    1  O   UNL     1     -13.273  15.878  70.769  1.00  0.00    -0.491 OA 
HETATM    2  C   UNL     1     -13.121  14.929  71.705  1.00  0.00    -0.341 C  
HETATM    3  O   UNL     1     -13.288  15.177  72.892  1.00  0.00    -0.444 OA 
HETATM    4  C   UNL     1     -12.886  13.525  71.255  1.00  0.00    -0.420 A  
HETATM    5  C   UNL     1     -13.525  12.555  72.058  1.00  0.00    -0.486 A  
HETATM    6  C   UNL     1     -13.363  11.190  71.822  1.00  0.00    -0.378 A  
HETATM    7  C   UNL     1     -12.564  10.764  70.772  1.00  0.00    -0.476 A  
HETATM    8  C   UNL     1     -11.925  11.704  69.959  1.00  0.00    -0.429 A  
HETATM    9  C   UNL     1     -12.060  13.087  70.200  1.00  0.00    -0.377 A  
ENDROOT
BRANCH   9  10
HETATM   10  C   UNL     1     -11.375  14.020  69.268  1.00  0.00    -0.273 C  
HETATM   11  O   UNL     1     -11.997  14.360  68.267  1.00  0.00    -0.329 OA 
HETATM   12  N   UNL     1     -10.070  14.377  69.584  1.00  0.00    -0.407 N  
HETATM   13  H   UNL     1      -9.691  13.999  70.453  1.00  0.00     0.000 HD 
BRANCH  12  14
HETATM   14  C   UNL     1      -9.211  15.211  68.827  1.00  0.00    -0.200 A  
HETATM   15  C   UNL     1      -8.758  14.897  67.543  1.00  0.00    -0.197 A  
HETATM   16  C   UNL     1      -7.890  15.753  66.853  1.00  0.00    -0.271 A  
HETATM   17  C   UNL     1      -7.474  16.946  67.445  1.00  0.00    -0.162 A  
HETATM   18  C   UNL     1      -8.786  16.416  69.409  1.00  0.00     0.011 A  
HETATM   19  C   UNL     1      -7.913  17.278  68.729  1.00  0.00    -0.250 A  
BRANCH  17  20
HETATM   20  S   UNL     1      -6.280  17.978  66.608  1.00  0.00    -0.189 S  
HETATM   21  O   UNL     1      -5.398  17.115  65.848  1.00  0.00    -0.295 OA 
HETATM   22  O   UNL     1      -5.750  18.882  67.606  1.00  0.00    -0.182 OA 
BRANCH  20  23
HETATM   23  N   UNL     1      -7.213  18.925  65.561  1.00  0.00    -0.158 N  
HETATM   24  H   UNL     1      -6.951  19.120  64.595  1.00  0.00     0.000 HD 
BRANCH  23  25
HETATM   25  C   UNL     1      -8.391  19.415  66.163  1.00  0.00    -0.300 A  
HETATM   26  N   UNL     1      -9.510  18.783  65.921  1.00  0.00    -0.433 NA 
HETATM   27  C   UNL     1     -10.534  19.405  66.609  1.00  0.00    -0.469 A  
HETATM   28  C   UNL     1     -10.150  20.437  67.440  1.00  0.00    -0.360 A  
HETATM   29  S   UNL     1      -8.457  20.685  67.299  1.00  0.00    -0.109 SA 
ENDBRANCH  23  25
ENDBRANCH  20  23
ENDBRANCH  17  20
ENDBRANCH  12  14
ENDBRANCH   9  10
TORSDOF 5
ENDMDL
MODEL       27
REMARK 921   NORMALIZED FREE ENERGY PREDICTED BY IDOCK:   -6.03 KCAL/MOL
REMARK 922        TOTAL FREE ENERGY PREDICTED BY IDOCK:   -8.75 KCAL/MOL
REMARK 923 INTER-LIGAND FREE ENERGY PREDICTED BY IDOCK:   -7.97 KCAL/MOL
REMARK 924 INTRA-LIGAND FREE ENERGY PREDICTED BY IDOCK:   -0.78 KCAL/MOL
REMARK 927      BINDING AFFINITY PREDICTED BY RF-SCORE:    0.00 PKD
ROOT
HETATM    1  O   UNL     1      -9.937   6.852  68.623  1.00  0.00    -0.143 OA 
HETATM    2  C   UNL     1     -10.285   5.693  69.203  1.00  0.00    -0.236 C  
HETATM    3  O   UNL     1     -10.391   4.663  68.549  1.00  0.00     0.001 OA 
HETATM    4  C   UNL     1     -10.402   5.656  70.691  1.00  0.00    -0.320 A  
HETATM    5  C   UNL     1      -9.949   4.448  71.268  1.00  0.00    -0.245 A  
HETATM    6  C   UNL     1     -10.041   4.214  72.639  1.00  0.00    -0.225 A  
HETATM    7  C   UNL     1     -10.582   5.186  73.467  1.00  0.00    -0.306 A  
HETATM    8  C   UNL     1     -11.031   6.392  72.923  1.00  0.00    -0.281 A  
HETATM    9  C   UNL     1     -10.966   6.633  71.534  1.00  0.00    -0.287 A  
ENDROOT
BRANCH   9  10
HETATM   10  C   UNL     1     -11.434   7.955  71.041  1.00  0.00    -0.280 C  
HETATM   11  O   UNL     1     -12.646   8.119  70.960  1.00  0.00    -0.205 OA 
HETATM   12  N   UNL     1     -10.455   8.866  70.664  1.00  0.00    -0.208 N  
HETATM   13  H   UNL     1      -9.486   8.572  70.785  1.00  0.00     0.000 HD 
BRANCH  12  14
HETATM   14  C   UNL     1     -10.663  10.160  70.127  1.00  0.00    -0.300 A  
HETATM   15  C   UNL     1     -11.671  11.026  70.556  1.00  0.00    -0.416 A  
HETATM   16  C   UNL     1     -11.840  12.287  69.969  1.00  0.00    -0.372 A  
HETATM   17  C   UNL     1     -10.986  12.697  68.946  1.00  0.00    -0.229 A  
HETATM   18  C   UNL     1      -9.808  10.588  69.098  1.00  0.00    -0.233 A  
HETATM   19  C   UNL     1      -9.972  11.846  68.499  1.00  0.00    -0.196 A  
BRANCH  17  20
HETATM   20  S   UNL     1     -11.276  14.258  68.124  1.00  0.00    -0.289 S  
HETATM   21  O   UNL     1     -10.116  14.556  67.308  1.00  0.00    -0.244 OA 
HETATM   22  O   UNL     1     -11.718  15.181  69.146  1.00  0.00    -0.295 OA 
BRANCH  20  23
HETATM   23  N   UNL     1     -12.620  13.963  67.140  1.00  0.00    -0.391 N  
HETATM   24  H   UNL     1     -13.583  14.099  67.447  1.00  0.00     0.000 HD 
BRANCH  23  25
HETATM   25  C   UNL     1     -12.270  13.509  65.851  1.00  0.00    -0.460 A  
HETATM   26  N   UNL     1     -12.252  12.217  65.641  1.00  0.00    -0.597 NA 
HETATM   27  C   UNL     1     -11.903  11.983  64.325  1.00  0.00    -0.346 A  
HETATM   28  C   UNL     1     -11.764  13.106  63.537  1.00  0.00    -0.415 A  
HETATM   29  S   UNL     1     -12.005  14.511  64.496  1.00  0.00    -0.448 SA 
ENDBRANCH  23  25
ENDBRANCH  20  23
ENDBRANCH  17  20
ENDBRANCH  12  14
ENDBRANCH   9  10
TORSDOF 5
ENDMDL
MODEL       28
REMARK 921   NORMALIZED FREE ENERGY PREDICTED BY IDOCK:   -6.00 KCAL/MOL
REMARK 922        TOTAL FREE ENERGY PREDICTED BY IDOCK:   -8.71 KCAL/MOL
REMARK 923 INTER-LIGAND FREE ENERGY PREDICTED BY IDOCK:   -8.11 KCAL/MOL
REMARK 924 INTRA-LIGAND FREE ENERGY PREDICTED BY IDOCK:   -0.60 KCAL/MOL
REMARK 927      BINDING AFFINITY PREDICTED BY RF-SCORE:    0.00 PKD
ROOT
HETATM    1  O   UNL     1      -9.852  11.409  68.073  1.00  0.00    -0.174 OA 
HETATM    2  C   UNL     1     -10.999  10.846  68.481  1.00  0.00    -0.230 C  
HETATM    3  O   UNL     1     -11.405   9.803  67.984  1.00  0.00    -0.099 OA 
HETATM    4  C   UNL     1     -11.699  11.442  69.657  1.00  0.00    -0.415 A  
HETATM    5  C   UNL     1     -12.302  10.487  70.505  1.00  0.00    -0.432 A  
HETATM    6  C   UNL     1     -13.052  10.868  71.617  1.00  0.00    -0.538 A  
HETATM    7  C   UNL     1     -13.210  12.214  71.911  1.00  0.00    -0.474 A  
HETATM    8  C   UNL     1     -12.619  13.179  71.091  1.00  0.00    -0.403 A  
HETATM    9  C   UNL     1     -11.877  12.809  69.949  1.00  0.00    -0.371 A  
ENDROOT
BRANCH   9  10
HETATM   10  C   UNL     1     -11.253  13.896  69.151  1.00  0.00    -0.269 C  
HETATM   11  O   UNL     1     -11.992  14.533  68.409  1.00  0.00    -0.321 OA 
HETATM   12  N   UNL     1      -9.878  14.054  69.275  1.00  0.00    -0.407 N  
HETATM   13  H   UNL     1      -9.404  13.435  69.931  1.00  0.00     0.000 HD 
BRANCH  12  14
HETATM   14  C   UNL     1      -9.066  14.987  68.583  1.00  0.00    -0.191 A  
HETATM   15  C   UNL     1      -8.741  14.879  67.229  1.00  0.00    -0.224 A  
HETATM   16  C   UNL     1      -7.913  15.823  66.607  1.00  0.00    -0.233 A  
HETATM   17  C   UNL     1      -7.409  16.897  67.341  1.00  0.00    -0.160 A  
HETATM   18  C   UNL     1      -8.554  16.074  69.309  1.00  0.00    -0.224 A  
HETATM   19  C   UNL     1      -7.720  17.023  68.697  1.00  0.00    -0.251 A  
BRANCH  17  20
HETATM   20  S   UNL     1      -6.264  18.033  66.572  1.00  0.00    -0.203 S  
HETATM   21  O   UNL     1      -5.368  17.264  65.731  1.00  0.00    -0.274 OA 
HETATM   22  O   UNL     1      -5.746  18.871  67.632  1.00  0.00    -0.182 OA 
BRANCH  20  23
HETATM   23  N   UNL     1      -7.247  19.028  65.620  1.00  0.00    -0.232 N  
HETATM   24  H   UNL     1      -6.980  19.363  64.694  1.00  0.00     0.000 HD 
BRANCH  23  25
HETATM   25  C   UNL     1      -8.473  19.347  66.239  1.00  0.00    -0.334 A  
HETATM   26  N   UNL     1      -9.532  18.664  65.887  1.00  0.00    -0.439 NA 
HETATM   27  C   UNL     1     -10.618  19.116  66.613  1.00  0.00    -0.432 A  
HETATM   28  C   UNL     1     -10.337  20.064  67.574  1.00  0.00    -0.378 A  
HETATM   29  S   UNL     1      -8.667  20.460  67.517  1.00  0.00    -0.221 SA 
ENDBRANCH  23  25
ENDBRANCH  20  23
ENDBRANCH  17  20
ENDBRANCH  12  14
ENDBRANCH   9  10
TORSDOF 5
ENDMDL
MODEL       29
REMARK 921   NORMALIZED FREE ENERGY PREDICTED BY IDOCK:   -5.94 KCAL/MOL
REMARK 922        TOTAL FREE ENERGY PREDICTED BY IDOCK:   -8.64 KCAL/MOL
REMARK 923 INTER-LIGAND FREE ENERGY PREDICTED BY IDOCK:   -7.78 KCAL/MOL
REMARK 924 INTRA-LIGAND FREE ENERGY PREDICTED BY IDOCK:   -0.86 KCAL/MOL
REMARK 927      BINDING AFFINITY PREDICTED BY RF-SCORE:    0.00 PKD
ROOT
HETATM    1  O   UNL     1     -11.542  14.938  65.283  1.00  0.00    -0.343 OA 
HETATM    2  C   UNL     1     -11.074  16.191  65.175  1.00  0.00    -0.249 C  
HETATM    3  O   UNL     1     -11.249  16.848  64.157  1.00  0.00    -1.176 OA 
HETATM    4  C   UNL     1     -10.459  16.821  66.381  1.00  0.00    -0.269 A  
HETATM    5  C   UNL     1     -10.747  18.197  66.514  1.00  0.00    -0.173 A  
HETATM    6  C   UNL     1     -10.203  18.960  67.547  1.00  0.00    -0.456 A  
HETATM    7  C   UNL     1      -9.365  18.362  68.475  1.00  0.00    -0.354 A  
HETATM    8  C   UNL     1      -9.069  17.000  68.370  1.00  0.00    -0.256 A  
HETATM    9  C   UNL     1      -9.593  16.221  67.317  1.00  0.00    -0.231 A  
ENDROOT
BRANCH   9  10
HETATM   10  C   UNL     1      -9.256  14.774  67.297  1.00  0.00    -0.203 C  
HETATM   11  O   UNL     1      -8.152  14.467  66.860  1.00  0.00    -0.131 OA 
HETATM   12  N   UNL     1     -10.245  13.895  67.722  1.00  0.00    -0.234 N  
HETATM   13  H   UNL     1     -11.117  14.311  68.049  1.00  0.00     0.000 HD 
BRANCH  12  14
HETATM   14  C   UNL     1     -10.168  12.480  67.748  1.00  0.00    -0.217 A  
HETATM   15  C   UNL     1     -11.110  11.640  67.150  1.00  0.00    -0.354 A  
HETATM   16  C   UNL     1     -10.991  10.246  67.230  1.00  0.00    -0.277 A  
HETATM   17  C   UNL     1      -9.912   9.680  67.908  1.00  0.00    -0.166 A  
HETATM   18  C   UNL     1      -9.086  11.895  68.425  1.00  0.00    -0.167 A  
HETATM   19  C   UNL     1      -8.959  10.500  68.517  1.00  0.00    -0.147 A  
BRANCH  17  20
HETATM   20  S   UNL     1      -9.825   7.905  68.105  1.00  0.00    -0.175 S  
HETATM   21  O   UNL     1      -8.710   7.606  68.981  1.00  0.00    -0.135 OA 
HETATM   22  O   UNL     1      -9.891   7.343  66.773  1.00  0.00    -0.201 OA 
BRANCH  20  23
HETATM   23  N   UNL     1     -11.284   7.502  68.861  1.00  0.00    -0.394 N  
HETATM   24  H   UNL     1     -12.125   7.228  68.352  1.00  0.00     0.000 HD 
BRANCH  23  25
HETATM   25  C   UNL     1     -11.218   7.583  70.267  1.00  0.00    -0.236 A  
HETATM   26  N   UNL     1     -11.485   8.736  70.826  1.00  0.00    -0.277 NA 
HETATM   27  C   UNL     1     -11.380   8.604  72.198  1.00  0.00    -0.364 A  
HETATM   28  C   UNL     1     -11.134   7.326  72.654  1.00  0.00    -0.313 A  
HETATM   29  S   UNL     1     -10.953   6.265  71.316  1.00  0.00    -0.286 SA 
ENDBRANCH  23  25
ENDBRANCH  20  23
ENDBRANCH  17  20
ENDBRANCH  12  14
ENDBRANCH   9  10
TORSDOF 5
ENDMDL
MODEL       30
REMARK 921   NORMALIZED FREE ENERGY PREDICTED BY IDOCK:   -5.94 KCAL/MOL
REMARK 922        TOTAL FREE ENERGY PREDICTED BY IDOCK:   -8.64 KCAL/MOL
REMARK 923 INTER-LIGAND FREE ENERGY PREDICTED BY IDOCK:   -7.67 KCAL/MOL
REMARK 924 INTRA-LIGAND FREE ENERGY PREDICTED BY IDOCK:   -0.97 KCAL/MOL
REMARK 927      BINDING AFFINITY PREDICTED BY RF-SCORE:    0.00 PKD
ROOT
HETATM    1  O   UNL     1      -9.533   6.138  69.156  1.00  0.00    -0.131 OA 
HETATM    2  C   UNL     1      -9.838   4.920  69.630  1.00  0.00    -0.218 C  
HETATM    3  O   UNL     1      -9.650   3.913  68.959  1.00  0.00    -0.175 OA 
HETATM    4  C   UNL     1     -10.280   4.806  71.052  1.00  0.00    -0.239 A  
HETATM    5  C   UNL     1      -9.805   3.646  71.704  1.00  0.00    -0.230 A  
HETATM    6  C   UNL     1     -10.170   3.345  73.016  1.00  0.00    -0.236 A  
HETATM    7  C   UNL     1     -11.014   4.202  73.708  1.00  0.00    -0.331 A  
HETATM    8  C   UNL     1     -11.492   5.359  73.087  1.00  0.00    -0.273 A  
HETATM    9  C   UNL     1     -11.150   5.664  71.753  1.00  0.00    -0.265 A  
ENDROOT
BRANCH   9  10
HETATM   10  C   UNL     1     -11.674   6.931  71.180  1.00  0.00    -0.336 C  
HETATM   11  O   UNL     1     -12.824   6.913  70.755  1.00  0.00    -0.239 OA 
HETATM   12  N   UNL     1     -10.794   8.005  71.124  1.00  0.00    -0.234 N  
HETATM   13  H   UNL     1      -9.864   7.854  71.513  1.00  0.00     0.000 HD 
BRANCH  12  14
HETATM   14  C   UNL     1     -11.055   9.288  70.583  1.00  0.00    -0.276 A  
HETATM   15  C   UNL     1     -10.464   9.772  69.414  1.00  0.00    -0.241 A  
HETATM   16  C   UNL     1     -10.745  11.061  68.942  1.00  0.00    -0.249 A  
HETATM   17  C   UNL     1     -11.637  11.877  69.638  1.00  0.00    -0.317 A  
HETATM   18  C   UNL     1     -11.953  10.120  71.272  1.00  0.00    -0.473 A  
HETATM   19  C   UNL     1     -12.238  11.414  70.811  1.00  0.00    -0.475 A  
BRANCH  17  20
HETATM   20  S   UNL     1     -11.906  13.558  69.094  1.00  0.00    -0.339 S  
HETATM   21  O   UNL     1     -12.675  14.241  70.115  1.00  0.00    -0.331 OA 
HETATM   22  O   UNL     1     -12.392  13.475  67.734  1.00  0.00    -0.237 OA 
BRANCH  20  23
HETATM   23  N   UNL     1     -10.350  14.215  69.000  1.00  0.00    -0.369 N  
HETATM   24  H   UNL     1      -9.575  13.912  69.590  1.00  0.00     0.000 HD 
BRANCH  23  25
HETATM   25  C   UNL     1     -10.236  15.225  68.022  1.00  0.00    -0.230 A  
HETATM   26  N   UNL     1     -10.659  16.425  68.330  1.00  0.00    -0.302 NA 
HETATM   27  C   UNL     1     -10.447  17.264  67.252  1.00  0.00    -0.319 A  
HETATM   28  C   UNL     1      -9.774  16.705  66.187  1.00  0.00    -0.303 A  
HETATM   29  S   UNL     1      -9.461  15.048  66.513  1.00  0.00    -0.299 SA 
ENDBRANCH  23  25
ENDBRANCH  20  23
ENDBRANCH  17  20
ENDBRANCH  12  14
ENDBRANCH   9  10
TORSDOF 5
ENDMDL
MODEL       31
REMARK 921   NORMALIZED FREE ENERGY PREDICTED BY IDOCK:   -5.93 KCAL/MOL
REMARK 922        TOTAL FREE ENERGY PREDICTED BY IDOCK:   -8.62 KCAL/MOL
REMARK 923 INTER-LIGAND FREE ENERGY PREDICTED BY IDOCK:   -8.10 KCAL/MOL
REMARK 924 INTRA-LIGAND FREE ENERGY PREDICTED BY IDOCK:   -0.52 KCAL/MOL
REMARK 927      BINDING AFFINITY PREDICTED BY RF-SCORE:    0.00 PKD
ROOT
HETATM    1  O   UNL     1      -9.483   8.201  67.553  1.00  0.00    -0.147 OA 
HETATM    2  C   UNL     1     -10.532   7.550  68.079  1.00  0.00    -0.197 C  
HETATM    3  O   UNL     1     -11.068   6.625  67.482  1.00  0.00    -0.321 OA 
HETATM    4  C   UNL     1     -10.943   7.886  69.474  1.00  0.00    -0.078 A  
HETATM    5  C   UNL     1     -11.378   6.770  70.224  1.00  0.00    -0.404 A  
HETATM    6  C   UNL     1     -11.858   6.907  71.526  1.00  0.00    -0.366 A  
HETATM    7  C   UNL     1     -11.907   8.163  72.111  1.00  0.00    -0.417 A  
HETATM    8  C   UNL     1     -11.477   9.282  71.394  1.00  0.00    -0.439 A  
HETATM    9  C   UNL     1     -11.011   9.162  70.068  1.00  0.00    -0.240 A  
ENDROOT
BRANCH   9  10
HETATM   10  C   UNL     1     -10.540  10.397  69.388  1.00  0.00    -0.239 C  
HETATM   11  O   UNL     1      -9.352  10.675  69.504  1.00  0.00    -0.125 OA 
HETATM   12  N   UNL     1     -11.501  11.155  68.729  1.00  0.00    -0.271 N  
HETATM   13  H   UNL     1     -12.453  10.789  68.732  1.00  0.00     0.000 HD 
BRANCH  12  14
HETATM   14  C   UNL     1     -11.295  12.384  68.055  1.00  0.00    -0.287 A  
HETATM   15  C   UNL     1     -11.540  12.571  66.692  1.00  0.00    -0.442 A  
HETATM   16  C   UNL     1     -11.295  13.806  66.077  1.00  0.00    -0.319 A  
HETATM   17  C   UNL     1     -10.808  14.874  66.831  1.00  0.00    -0.319 A  
HETATM   18  C   UNL     1     -10.807  13.468  68.801  1.00  0.00    -0.279 A  
HETATM   19  C   UNL     1     -10.553  14.707  68.195  1.00  0.00    -0.237 A  
BRANCH  17  20
HETATM   20  S   UNL     1     -10.390  16.411  66.020  1.00  0.00    -0.343 S  
HETATM   21  O   UNL     1     -10.774  17.498  66.898  1.00  0.00    -0.255 OA 
HETATM   22  O   UNL     1     -10.922  16.322  64.678  1.00  0.00    -0.674 OA 
BRANCH  20  23
HETATM   23  N   UNL     1      -8.706  16.353  65.867  1.00  0.00    -0.224 N  
HETATM   24  H   UNL     1      -8.212  15.612  65.369  1.00  0.00     0.000 HD 
BRANCH  23  25
HETATM   25  C   UNL     1      -8.057  17.434  66.499  1.00  0.00    -0.277 A  
HETATM   26  N   UNL     1      -7.747  18.473  65.767  1.00  0.00    -0.514 NA 
HETATM   27  C   UNL     1      -7.138  19.420  66.569  1.00  0.00    -0.219 A  
HETATM   28  C   UNL     1      -7.091  19.117  67.913  1.00  0.00    -0.231 A  
HETATM   29  S   UNL     1      -7.766  17.561  68.174  1.00  0.00    -0.239 SA 
ENDBRANCH  23  25
ENDBRANCH  20  23
ENDBRANCH  17  20
ENDBRANCH  12  14
ENDBRANCH   9  10
TORSDOF 5
ENDMDL
MODEL       32
REMARK 921   NORMALIZED FREE ENERGY PREDICTED BY IDOCK:   -5.93 KCAL/MOL
REMARK 922        TOTAL FREE ENERGY PREDICTED BY IDOCK:   -8.62 KCAL/MOL
REMARK 923 INTER-LIGAND FREE ENERGY PREDICTED BY IDOCK:   -7.69 KCAL/MOL
REMARK 924 INTRA-LIGAND FREE ENERGY PREDICTED BY IDOCK:   -0.93 KCAL/MOL
REMARK 927      BINDING AFFINITY PREDICTED BY RF-SCORE:    0.00 PKD
ROOT
HETATM    1  O   UNL     1      -9.455   5.832  68.977  1.00  0.00    -0.120 OA 
HETATM    2  C   UNL     1      -9.752   4.663  69.563  1.00  0.00    -0.208 C  
HETATM    3  O   UNL     1      -9.620   3.602  68.965  1.00  0.00    -0.171 OA 
HETATM    4  C   UNL     1     -10.113   4.670  71.011  1.00  0.00    -0.246 A  
HETATM    5  C   UNL     1      -9.621   3.557  71.727  1.00  0.00    -0.223 A  
HETATM    6  C   UNL     1      -9.915   3.368  73.077  1.00  0.00    -0.208 A  
HETATM    7  C   UNL     1     -10.703   4.294  73.744  1.00  0.00    -0.339 A  
HETATM    8  C   UNL     1     -11.197   5.408  73.061  1.00  0.00    -0.370 A  
HETATM    9  C   UNL     1     -10.928   5.599  71.689  1.00  0.00    -0.277 A  
ENDROOT
BRANCH   9  10
HETATM   10  C   UNL     1     -11.463   6.828  71.047  1.00  0.00    -0.324 C  
HETATM   11  O   UNL     1     -12.641   6.808  70.708  1.00  0.00    -0.311 OA 
HETATM   12  N   UNL     1     -10.565   7.867  70.836  1.00  0.00    -0.211 N  
HETATM   13  H   UNL     1      -9.612   7.723  71.170  1.00  0.00     0.000 HD 
BRANCH  12  14
HETATM   14  C   UNL     1     -10.835   9.107  70.205  1.00  0.00    -0.246 A  
HETATM   15  C   UNL     1     -11.576  10.133  70.797  1.00  0.00    -0.445 A  
HETATM   16  C   UNL     1     -11.829  11.329  70.112  1.00  0.00    -0.449 A  
HETATM   17  C   UNL     1     -11.329  11.510  68.822  1.00  0.00    -0.265 A  
HETATM   18  C   UNL     1     -10.337   9.304  68.908  1.00  0.00    -0.231 A  
HETATM   19  C   UNL     1     -10.589  10.496  68.211  1.00  0.00    -0.240 A  
BRANCH  17  20
HETATM   20  S   UNL     1     -11.750  12.989  67.911  1.00  0.00    -0.351 S  
HETATM   21  O   UNL     1     -12.526  13.846  68.785  1.00  0.00    -0.166 OA 
HETATM   22  O   UNL     1     -12.285  12.549  66.641  1.00  0.00    -0.552 OA 
BRANCH  20  23
HETATM   23  N   UNL     1     -10.255  13.705  67.572  1.00  0.00    -0.239 N  
HETATM   24  H   UNL     1      -9.465  13.196  67.173  1.00  0.00     0.000 HD 
BRANCH  23  25
HETATM   25  C   UNL     1     -10.213  15.076  67.897  1.00  0.00    -0.228 A  
HETATM   26  N   UNL     1     -10.691  15.927  67.024  1.00  0.00    -0.313 NA 
HETATM   27  C   UNL     1     -10.572  17.206  67.534  1.00  0.00    -0.323 A  
HETATM   28  C   UNL     1     -10.099  17.288  68.827  1.00  0.00    -0.337 A  
HETATM   29  S   UNL     1      -9.718  15.715  69.399  1.00  0.00    -0.299 SA 
ENDBRANCH  23  25
ENDBRANCH  20  23
ENDBRANCH  17  20
ENDBRANCH  12  14
ENDBRANCH   9  10
TORSDOF 5
ENDMDL
MODEL       33
REMARK 921   NORMALIZED FREE ENERGY PREDICTED BY IDOCK:   -5.93 KCAL/MOL
REMARK 922        TOTAL FREE ENERGY PREDICTED BY IDOCK:   -8.62 KCAL/MOL
REMARK 923 INTER-LIGAND FREE ENERGY PREDICTED BY IDOCK:   -8.19 KCAL/MOL
REMARK 924 INTRA-LIGAND FREE ENERGY PREDICTED BY IDOCK:   -0.43 KCAL/MOL
REMARK 927      BINDING AFFINITY PREDICTED BY RF-SCORE:    0.00 PKD
ROOT
HETATM    1  O   UNL     1     -12.106  13.541  67.861  1.00  0.00    -0.346 OA 
HETATM    2  C   UNL     1     -11.851  14.459  68.805  1.00  0.00    -0.325 C  
HETATM    3  O   UNL     1     -11.227  15.480  68.546  1.00  0.00    -0.295 OA 
HETATM    4  C   UNL     1     -12.469  14.276  70.152  1.00  0.00    -0.393 A  
HETATM    5  C   UNL     1     -12.881  15.483  70.758  1.00  0.00    -0.513 A  
HETATM    6  C   UNL     1     -13.421  15.508  72.044  1.00  0.00    -0.578 A  
HETATM    7  C   UNL     1     -13.569  14.324  72.750  1.00  0.00    -0.538 A  
HETATM    8  C   UNL     1     -13.175  13.115  72.170  1.00  0.00    -0.561 A  
HETATM    9  C   UNL     1     -12.605  13.077  70.880  1.00  0.00    -0.364 A  
ENDROOT
BRANCH   9  10
HETATM   10  C   UNL     1     -12.244  11.747  70.325  1.00  0.00    -0.299 C  
HETATM   11  O   UNL     1     -13.020  10.824  70.549  1.00  0.00    -0.299 OA 
HETATM   12  N   UNL     1     -11.033  11.657  69.650  1.00  0.00    -0.466 N  
HETATM   13  H   UNL     1     -10.497  12.519  69.556  1.00  0.00     0.000 HD 
BRANCH  12  14
HETATM   14  C   UNL     1     -10.465  10.491  69.079  1.00  0.00    -0.217 A  
HETATM   15  C   UNL     1     -10.865   9.954  67.853  1.00  0.00    -0.312 A  
HETATM   16  C   UNL     1     -10.280   8.783  67.351  1.00  0.00    -0.318 A  
HETATM   17  C   UNL     1      -9.274   8.144  68.076  1.00  0.00    -0.132 A  
HETATM   18  C   UNL     1      -9.450   9.837  69.796  1.00  0.00    -0.253 A  
HETATM   19  C   UNL     1      -8.861   8.662  69.306  1.00  0.00    -0.137 A  
BRANCH  17  20
HETATM   20  S   UNL     1      -8.611   6.591  67.487  1.00  0.00    -0.118 S  
HETATM   21  O   UNL     1      -7.364   6.345  68.183  1.00  0.00    -0.085 OA 
HETATM   22  O   UNL     1      -8.653   6.652  66.042  1.00  0.00    -0.139 OA 
BRANCH  20  23
HETATM   23  N   UNL     1      -9.770   5.447  67.946  1.00  0.00    -0.130 N  
HETATM   24  H   UNL     1     -10.109   4.710  67.327  1.00  0.00     0.000 HD 
BRANCH  23  25
HETATM   25  C   UNL     1     -10.217   5.617  69.273  1.00  0.00    -0.239 A  
HETATM   26  N   UNL     1     -11.375   6.200  69.458  1.00  0.00    -0.421 NA 
HETATM   27  C   UNL     1     -11.636   6.256  70.814  1.00  0.00    -0.279 A  
HETATM   28  C   UNL     1     -10.715   5.624  71.623  1.00  0.00    -0.251 A  
HETATM   29  S   UNL     1      -9.439   4.999  70.659  1.00  0.00    -0.182 SA 
ENDBRANCH  23  25
ENDBRANCH  20  23
ENDBRANCH  17  20
ENDBRANCH  12  14
ENDBRANCH   9  10
TORSDOF 5
ENDMDL
MODEL       34
REMARK 921   NORMALIZED FREE ENERGY PREDICTED BY IDOCK:   -5.92 KCAL/MOL
REMARK 922        TOTAL FREE ENERGY PREDICTED BY IDOCK:   -8.61 KCAL/MOL
REMARK 923 INTER-LIGAND FREE ENERGY PREDICTED BY IDOCK:   -7.61 KCAL/MOL
REMARK 924 INTRA-LIGAND FREE ENERGY PREDICTED BY IDOCK:   -1.01 KCAL/MOL
REMARK 927      BINDING AFFINITY PREDICTED BY RF-SCORE:    0.00 PKD
ROOT
HETATM    1  O   UNL     1      -9.404   5.524  68.828  1.00  0.00    -0.119 OA 
HETATM    2  C   UNL     1      -9.660   4.489  69.643  1.00  0.00    -0.199 C  
HETATM    3  O   UNL     1      -9.561   3.334  69.252  1.00  0.00    -0.162 OA 
HETATM    4  C   UNL     1      -9.929   4.776  71.084  1.00  0.00    -0.273 A  
HETATM    5  C   UNL     1      -9.388   3.814  71.967  1.00  0.00    -0.188 A  
HETATM    6  C   UNL     1      -9.596   3.888  73.343  1.00  0.00    -0.137 A  
HETATM    7  C   UNL     1     -10.343   4.930  73.870  1.00  0.00    -0.287 A  
HETATM    8  C   UNL     1     -10.883   5.898  73.020  1.00  0.00    -0.300 A  
HETATM    9  C   UNL     1     -10.702   5.823  71.623  1.00  0.00    -0.314 A  
ENDROOT
BRANCH   9  10
HETATM   10  C   UNL     1     -11.281   6.911  70.793  1.00  0.00    -0.294 C  
HETATM   11  O   UNL     1     -12.473   6.825  70.519  1.00  0.00    -0.273 OA 
HETATM   12  N   UNL     1     -10.407   7.898  70.355  1.00  0.00    -0.209 N  
HETATM   13  H   UNL     1      -9.438   7.821  70.664  1.00  0.00     0.000 HD 
BRANCH  12  14
HETATM   14  C   UNL     1     -10.721   9.001  69.522  1.00  0.00    -0.206 A  
HETATM   15  C   UNL     1     -10.461   9.036  68.150  1.00  0.00    -0.257 A  
HETATM   16  C   UNL     1     -10.775  10.167  67.384  1.00  0.00    -0.336 A  
HETATM   17  C   UNL     1     -11.366  11.275  67.991  1.00  0.00    -0.304 A  
HETATM   18  C   UNL     1     -11.318  10.123  70.119  1.00  0.00    -0.372 A  
HETATM   19  C   UNL     1     -11.632  11.263  69.362  1.00  0.00    -0.390 A  
BRANCH  17  20
HETATM   20  S   UNL     1     -11.659  12.755  67.032  1.00  0.00    -0.375 S  
HETATM   21  O   UNL     1     -12.185  13.769  67.925  1.00  0.00    -0.327 OA 
HETATM   22  O   UNL     1     -12.403  12.343  65.862  1.00  0.00    -0.638 OA 
BRANCH  20  23
HETATM   23  N   UNL     1     -10.123  13.203  66.482  1.00  0.00    -0.273 N  
HETATM   24  H   UNL     1      -9.400  12.531  66.225  1.00  0.00     0.000 HD 
BRANCH  23  25
HETATM   25  C   UNL     1      -9.946  14.601  66.418  1.00  0.00    -0.283 A  
HETATM   26  N   UNL     1      -9.042  15.140  67.195  1.00  0.00    -0.200 NA 
HETATM   27  C   UNL     1      -9.014  16.503  66.971  1.00  0.00    -0.204 A  
HETATM   28  C   UNL     1      -9.830  16.955  65.955  1.00  0.00    -0.258 A  
HETATM   29  S   UNL     1     -10.719  15.638  65.305  1.00  0.00    -0.428 SA 
ENDBRANCH  23  25
ENDBRANCH  20  23
ENDBRANCH  17  20
ENDBRANCH  12  14
ENDBRANCH   9  10
TORSDOF 5
ENDMDL
MODEL       35
REMARK 921   NORMALIZED FREE ENERGY PREDICTED BY IDOCK:   -5.76 KCAL/MOL
REMARK 922        TOTAL FREE ENERGY PREDICTED BY IDOCK:   -8.41 KCAL/MOL
REMARK 923 INTER-LIGAND FREE ENERGY PREDICTED BY IDOCK:   -7.75 KCAL/MOL
REMARK 924 INTRA-LIGAND FREE ENERGY PREDICTED BY IDOCK:   -0.66 KCAL/MOL
REMARK 927      BINDING AFFINITY PREDICTED BY RF-SCORE:    0.00 PKD
ROOT
HETATM    1  O   UNL     1     -12.686  12.314  65.185  1.00  0.00    -0.571 OA 
HETATM    2  C   UNL     1     -11.866  13.163  64.548  1.00  0.00    -0.377 C  
HETATM    3  O   UNL     1     -11.700  13.096  63.337  1.00  0.00    -0.475 OA 
HETATM    4  C   UNL     1     -11.268  14.287  65.329  1.00  0.00    -0.337 A  
HETATM    5  C   UNL     1     -11.162  15.493  64.601  1.00  0.00    -0.381 A  
HETATM    6  C   UNL     1     -10.570  16.628  65.152  1.00  0.00    -0.181 A  
HETATM    7  C   UNL     1     -10.077  16.586  66.448  1.00  0.00    -0.323 A  
HETATM    8  C   UNL     1     -10.177  15.408  67.192  1.00  0.00    -0.251 A  
HETATM    9  C   UNL     1     -10.751  14.244  66.639  1.00  0.00    -0.290 A  
ENDROOT
BRANCH   9  10
HETATM   10  C   UNL     1     -10.848  13.043  67.509  1.00  0.00    -0.247 C  
HETATM   11  O   UNL     1     -11.583  13.125  68.487  1.00  0.00    -0.282 OA 
HETATM   12  N   UNL     1     -10.055  11.955  67.167  1.00  0.00    -0.203 N  
HETATM   13  H   UNL     1      -9.489  12.049  66.323  1.00  0.00     0.000 HD 
BRANCH  12  14
HETATM   14  C   UNL     1      -9.949  10.728  67.868  1.00  0.00    -0.174 A  
HETATM   15  C   UNL     1     -10.582   9.549  67.469  1.00  0.00    -0.338 A  
HETATM   16  C   UNL     1     -10.457   8.372  68.219  1.00  0.00    -0.214 A  
HETATM   17  C   UNL     1      -9.681   8.366  69.378  1.00  0.00    -0.177 A  
HETATM   18  C   UNL     1      -9.170  10.707  69.036  1.00  0.00    -0.177 A  
HETATM   19  C   UNL     1      -9.042   9.535  69.798  1.00  0.00    -0.219 A  
BRANCH  17  20
HETATM   20  S   UNL     1      -9.617   6.894  70.391  1.00  0.00    -0.168 S  
HETATM   21  O   UNL     1      -8.224   6.540  70.577  1.00  0.00    -0.115 OA 
HETATM   22  O   UNL     1     -10.547   5.954  69.804  1.00  0.00    -0.243 OA 
BRANCH  20  23
HETATM   23  N   UNL     1     -10.297   7.376  71.863  1.00  0.00    -0.191 N  
HETATM   24  H   UNL     1      -9.786   7.374  72.746  1.00  0.00     0.000 HD 
BRANCH  23  25
HETATM   25  C   UNL     1     -11.643   7.780  71.743  1.00  0.00    -0.272 A  
HETATM   26  N   UNL     1     -12.567   6.857  71.811  1.00  0.00    -0.359 NA 
HETATM   27  C   UNL     1     -13.807   7.454  71.688  1.00  0.00    -0.382 A  
HETATM   28  C   UNL     1     -13.800   8.832  71.630  1.00  0.00    -0.397 A  
HETATM   29  S   UNL     1     -12.178   9.397  71.656  1.00  0.00    -0.408 SA 
ENDBRANCH  23  25
ENDBRANCH  20  23
ENDBRANCH  17  20
ENDBRANCH  12  14
ENDBRANCH   9  10
TORSDOF 5
ENDMDL
MODEL       36
REMARK 921   NORMALIZED FREE ENERGY PREDICTED BY IDOCK:   -5.75 KCAL/MOL
REMARK 922        TOTAL FREE ENERGY PREDICTED BY IDOCK:   -8.40 KCAL/MOL
REMARK 923 INTER-LIGAND FREE ENERGY PREDICTED BY IDOCK:   -7.74 KCAL/MOL
REMARK 924 INTRA-LIGAND FREE ENERGY PREDICTED BY IDOCK:   -0.66 KCAL/MOL
REMARK 927      BINDING AFFINITY PREDICTED BY RF-SCORE:    0.00 PKD
ROOT
HETATM    1  O   UNL     1      -8.539  13.603  67.322  1.00  0.00    -0.197 OA 
HETATM    2  C   UNL     1      -9.142  14.780  67.096  1.00  0.00    -0.217 C  
HETATM    3  O   UNL     1      -8.670  15.826  67.521  1.00  0.00    -0.170 OA 
HETATM    4  C   UNL     1     -10.329  14.802  66.190  1.00  0.00    -0.314 A  
HETATM    5  C   UNL     1     -10.396  15.949  65.368  1.00  0.00    -0.399 A  
HETATM    6  C   UNL     1     -11.469  16.167  64.505  1.00  0.00    -0.233 A  
HETATM    7  C   UNL     1     -12.497  15.238  64.439  1.00  0.00    -0.044 A  
HETATM    8  C   UNL     1     -12.452  14.093  65.237  1.00  0.00    -0.474 A  
HETATM    9  C   UNL     1     -11.384  13.871  66.133  1.00  0.00    -0.323 A  
ENDROOT
BRANCH   9  10
HETATM   10  C   UNL     1     -11.396  12.611  66.921  1.00  0.00    -0.320 C  
HETATM   11  O   UNL     1     -11.609  11.573  66.303  1.00  0.00    -0.382 OA 
HETATM   12  N   UNL     1     -11.221  12.728  68.294  1.00  0.00    -0.252 N  
HETATM   13  H   UNL     1     -11.062  13.669  68.656  1.00  0.00     0.000 HD 
BRANCH  12  14
HETATM   14  C   UNL     1     -11.239  11.678  69.244  1.00  0.00    -0.265 A  
HETATM   15  C   UNL     1     -10.312  10.633  69.265  1.00  0.00    -0.240 A  
HETATM   16  C   UNL     1     -10.397   9.609  70.218  1.00  0.00    -0.336 A  
HETATM   17  C   UNL     1     -11.415   9.631  71.172  1.00  0.00    -0.384 A  
HETATM   18  C   UNL     1     -12.257  11.687  70.212  1.00  0.00    -0.401 A  
HETATM   19  C   UNL     1     -12.355  10.665  71.168  1.00  0.00    -0.505 A  
BRANCH  17  20
HETATM   20  S   UNL     1     -11.586   8.265  72.312  1.00  0.00    -0.393 S  
HETATM   21  O   UNL     1     -12.804   8.468  73.072  1.00  0.00    -0.206 OA 
HETATM   22  O   UNL     1     -10.311   8.130  72.981  1.00  0.00    -0.321 OA 
BRANCH  20  23
HETATM   23  N   UNL     1     -11.742   6.909  71.312  1.00  0.00    -0.308 N  
HETATM   24  H   UNL     1     -12.201   6.932  70.402  1.00  0.00     0.000 HD 
BRANCH  23  25
HETATM   25  C   UNL     1     -11.171   5.746  71.869  1.00  0.00    -0.227 A  
HETATM   26  N   UNL     1     -11.735   5.237  72.934  1.00  0.00    -0.242 NA 
HETATM   27  C   UNL     1     -11.041   4.103  73.310  1.00  0.00    -0.222 A  
HETATM   28  C   UNL     1     -10.025   3.719  72.461  1.00  0.00    -0.163 A  
HETATM   29  S   UNL     1      -9.884   4.860  71.184  1.00  0.00    -0.202 SA 
ENDBRANCH  23  25
ENDBRANCH  20  23
ENDBRANCH  17  20
ENDBRANCH  12  14
ENDBRANCH   9  10
TORSDOF 5
ENDMDL
MODEL       37
REMARK 921   NORMALIZED FREE ENERGY PREDICTED BY IDOCK:   -5.74 KCAL/MOL
REMARK 922        TOTAL FREE ENERGY PREDICTED BY IDOCK:   -8.38 KCAL/MOL
REMARK 923 INTER-LIGAND FREE ENERGY PREDICTED BY IDOCK:   -7.83 KCAL/MOL
REMARK 924 INTRA-LIGAND FREE ENERGY PREDICTED BY IDOCK:   -0.55 KCAL/MOL
REMARK 927      BINDING AFFINITY PREDICTED BY RF-SCORE:    0.00 PKD
ROOT
HETATM    1  O   UNL     1      -7.144   9.462  67.116  1.00  0.00    -0.084 OA 
HETATM    2  C   UNL     1      -7.308   8.352  66.381  1.00  0.00    -0.083 C  
HETATM    3  O   UNL     1      -6.414   7.933  65.656  1.00  0.00    -0.042 OA 
HETATM    4  C   UNL     1      -8.555   7.554  66.574  1.00  0.00    -0.134 A  
HETATM    5  C   UNL     1      -8.357   6.158  66.495  1.00  0.00    -0.113 A  
HETATM    6  C   UNL     1      -9.421   5.262  66.589  1.00  0.00    -0.148 A  
HETATM    7  C   UNL     1     -10.709   5.743  66.772  1.00  0.00    -0.369 A  
HETATM    8  C   UNL     1     -10.932   7.120  66.860  1.00  0.00    -0.208 A  
HETATM    9  C   UNL     1      -9.868   8.039  66.742  1.00  0.00    -0.327 A  
ENDROOT
BRANCH   9  10
HETATM   10  C   UNL     1     -10.186   9.483  66.881  1.00  0.00    -0.249 C  
HETATM   11  O   UNL     1     -10.904   9.805  67.822  1.00  0.00    -0.275 OA 
HETATM   12  N   UNL     1      -9.689  10.332  65.900  1.00  0.00    -0.210 N  
HETATM   13  H   UNL     1      -9.112   9.904  65.175  1.00  0.00     0.000 HD 
BRANCH  12  14
HETATM   14  C   UNL     1      -9.899  11.730  65.801  1.00  0.00    -0.240 A  
HETATM   15  C   UNL     1     -10.635  12.333  64.779  1.00  0.00    -0.332 A  
HETATM   16  C   UNL     1     -10.788  13.725  64.723  1.00  0.00    -0.410 A  
HETATM   17  C   UNL     1     -10.208  14.528  65.705  1.00  0.00    -0.335 A  
HETATM   18  C   UNL     1      -9.323  12.550  66.784  1.00  0.00    -0.230 A  
HETATM   19  C   UNL     1      -9.465  13.945  66.735  1.00  0.00    -0.287 A  
BRANCH  17  20
HETATM   20  S   UNL     1     -10.311  16.307  65.567  1.00  0.00    -0.285 S  
HETATM   21  O   UNL     1     -11.173  16.619  64.444  1.00  0.00    -1.033 OA 
HETATM   22  O   UNL     1      -8.951  16.800  65.614  1.00  0.00    -0.475 OA 
BRANCH  20  23
HETATM   23  N   UNL     1     -11.041  16.792  67.014  1.00  0.00     0.061 N  
HETATM   24  H   UNL     1     -11.726  16.227  67.515  1.00  0.00     0.000 HD 
BRANCH  23  25
HETATM   25  C   UNL     1     -10.603  18.059  67.454  1.00  0.00    -0.365 A  
HETATM   26  N   UNL     1     -10.008  18.130  68.617  1.00  0.00    -0.383 NA 
HETATM   27  C   UNL     1      -9.647  19.442  68.856  1.00  0.00    -0.415 A  
HETATM   28  C   UNL     1      -9.887  20.322  67.822  1.00  0.00    -0.393 A  
HETATM   29  S   UNL     1     -10.660  19.493  66.532  1.00  0.00    -0.464 SA 
ENDBRANCH  23  25
ENDBRANCH  20  23
ENDBRANCH  17  20
ENDBRANCH  12  14
ENDBRANCH   9  10
TORSDOF 5
ENDMDL
MODEL       38
REMARK 921   NORMALIZED FREE ENERGY PREDICTED BY IDOCK:   -5.74 KCAL/MOL
REMARK 922        TOTAL FREE ENERGY PREDICTED BY IDOCK:   -8.38 KCAL/MOL
REMARK 923 INTER-LIGAND FREE ENERGY PREDICTED BY IDOCK:   -8.16 KCAL/MOL
REMARK 924 INTRA-LIGAND FREE ENERGY PREDICTED BY IDOCK:   -0.22 KCAL/MOL
REMARK 927      BINDING AFFINITY PREDICTED BY RF-SCORE:    0.00 PKD
ROOT
HETATM    1  O   UNL     1     -12.937  12.702  65.146  1.00  0.00    -0.754 OA 
HETATM    2  C   UNL     1     -12.193  13.601  64.483  1.00  0.00    -0.401 C  
HETATM    3  O   UNL     1     -12.358  13.802  63.287  1.00  0.00    -0.756 OA 
HETATM    4  C   UNL     1     -11.255  14.457  65.269  1.00  0.00    -0.345 A  
HETATM    5  C   UNL     1     -11.164  15.785  64.794  1.00  0.00    -0.375 A  
HETATM    6  C   UNL     1     -10.289  16.706  65.368  1.00  0.00    -0.214 A  
HETATM    7  C   UNL     1      -9.490  16.323  66.435  1.00  0.00    -0.322 A  
HETATM    8  C   UNL     1      -9.566  15.018  66.927  1.00  0.00    -0.251 A  
HETATM    9  C   UNL     1     -10.429  14.068  66.341  1.00  0.00    -0.284 A  
ENDROOT
BRANCH   9  10
HETATM   10  C   UNL     1     -10.474  12.711  66.947  1.00  0.00    -0.233 C  
HETATM   11  O   UNL     1     -10.145  11.773  66.230  1.00  0.00    -0.207 OA 
HETATM   12  N   UNL     1     -10.939  12.623  68.253  1.00  0.00    -0.235 N  
HETATM   13  H   UNL     1     -11.183  13.501  68.712  1.00  0.00     0.000 HD 
BRANCH  12  14
HETATM   14  C   UNL     1     -11.111  11.440  69.015  1.00  0.00    -0.243 A  
HETATM   15  C   UNL     1     -12.102  11.280  69.986  1.00  0.00    -0.425 A  
HETATM   16  C   UNL     1     -12.205  10.092  70.723  1.00  0.00    -0.434 A  
HETATM   17  C   UNL     1     -11.315   9.045  70.482  1.00  0.00    -0.243 A  
HETATM   18  C   UNL     1     -10.223  10.377  68.782  1.00  0.00    -0.201 A  
HETATM   19  C   UNL     1     -10.315   9.186  69.518  1.00  0.00    -0.220 A  
BRANCH  17  20
HETATM   20  S   UNL     1     -11.381   7.578  71.502  1.00  0.00    -0.262 S  
HETATM   21  O   UNL     1     -12.268   6.628  70.861  1.00  0.00    -0.368 OA 
HETATM   22  O   UNL     1     -11.633   8.031  72.853  1.00  0.00    -0.397 OA 
BRANCH  20  23
HETATM   23  N   UNL     1      -9.793   6.995  71.488  1.00  0.00    -0.173 N  
HETATM   24  H   UNL     1      -9.004   7.501  71.889  1.00  0.00     0.000 HD 
BRANCH  23  25
HETATM   25  C   UNL     1      -9.674   5.735  70.865  1.00  0.00    -0.174 A  
HETATM   26  N   UNL     1      -9.404   5.708  69.585  1.00  0.00    -0.135 NA 
HETATM   27  C   UNL     1      -9.315   4.392  69.173  1.00  0.00    -0.155 A  
HETATM   28  C   UNL     1      -9.420   3.448  70.173  1.00  0.00    -0.173 A  
HETATM   29  S   UNL     1      -9.715   4.233  71.672  1.00  0.00    -0.181 SA 
ENDBRANCH  23  25
ENDBRANCH  20  23
ENDBRANCH  17  20
ENDBRANCH  12  14
ENDBRANCH   9  10
TORSDOF 5
ENDMDL
MODEL       39
REMARK 921   NORMALIZED FREE ENERGY PREDICTED BY IDOCK:   -5.72 KCAL/MOL
REMARK 922        TOTAL FREE ENERGY PREDICTED BY IDOCK:   -8.36 KCAL/MOL
REMARK 923 INTER-LIGAND FREE ENERGY PREDICTED BY IDOCK:   -7.48 KCAL/MOL
REMARK 924 INTRA-LIGAND FREE ENERGY PREDICTED BY IDOCK:   -0.88 KCAL/MOL
REMARK 927      BINDING AFFINITY PREDICTED BY RF-SCORE:    0.00 PKD
ROOT
HETATM    1  O   UNL     1     -10.304  18.744  68.945  1.00  0.00    -0.289 OA 
HETATM    2  C   UNL     1     -10.107  19.177  67.691  1.00  0.00    -0.377 C  
HETATM    3  O   UNL     1     -10.913  19.918  67.142  1.00  0.00    -0.369 OA 
HETATM    4  C   UNL     1      -8.810  18.852  67.027  1.00  0.00    -0.306 A  
HETATM    5  C   UNL     1      -8.313  19.890  66.207  1.00  0.00    -0.371 A  
HETATM    6  C   UNL     1      -7.146  19.737  65.461  1.00  0.00    -0.313 A  
HETATM    7  C   UNL     1      -6.443  18.543  65.523  1.00  0.00    -0.309 A  
HETATM    8  C   UNL     1      -6.908  17.503  66.331  1.00  0.00    -0.308 A  
HETATM    9  C   UNL     1      -8.101  17.635  67.073  1.00  0.00    -0.243 A  
ENDROOT
BRANCH   9  10
HETATM   10  C   UNL     1      -8.508  16.494  67.934  1.00  0.00    -0.181 C  
HETATM   11  O   UNL     1      -7.697  16.115  68.772  1.00  0.00    -0.174 OA 
HETATM   12  N   UNL     1      -9.748  15.923  67.673  1.00  0.00    -0.223 N  
HETATM   13  H   UNL     1     -10.302  16.352  66.932  1.00  0.00     0.000 HD 
BRANCH  12  14
HETATM   14  C   UNL     1     -10.322  14.806  68.329  1.00  0.00    -0.238 A  
HETATM   15  C   UNL     1     -10.024  13.480  68.008  1.00  0.00    -0.248 A  
HETATM   16  C   UNL     1     -10.644  12.417  68.678  1.00  0.00    -0.243 A  
HETATM   17  C   UNL     1     -11.566  12.678  69.692  1.00  0.00    -0.251 A  
HETATM   18  C   UNL     1     -11.251  15.054  69.353  1.00  0.00    -0.299 A  
HETATM   19  C   UNL     1     -11.881  13.997  70.028  1.00  0.00    -0.388 A  
BRANCH  17  20
HETATM   20  S   UNL     1     -12.437  11.322  70.466  1.00  0.00    -0.286 S  
HETATM   21  O   UNL     1     -13.159  10.606  69.432  1.00  0.00     0.073 OA 
HETATM   22  O   UNL     1     -13.134  11.881  71.603  1.00  0.00    -0.436 OA 
BRANCH  20  23
HETATM   23  N   UNL     1     -11.206  10.348  71.097  1.00  0.00    -0.226 N  
HETATM   24  H   UNL     1     -10.390  10.719  71.586  1.00  0.00     0.000 HD 
BRANCH  23  25
HETATM   25  C   UNL     1     -11.424   8.972  70.878  1.00  0.00    -0.291 A  
HETATM   26  N   UNL     1     -10.689   8.372  69.977  1.00  0.00    -0.236 NA 
HETATM   27  C   UNL     1     -11.044   7.038  69.926  1.00  0.00    -0.264 A  
HETATM   28  C   UNL     1     -11.973   6.634  70.862  1.00  0.00    -0.355 A  
HETATM   29  S   UNL     1     -12.474   7.987  71.792  1.00  0.00    -0.334 SA 
ENDBRANCH  23  25
ENDBRANCH  20  23
ENDBRANCH  17  20
ENDBRANCH  12  14
ENDBRANCH   9  10
TORSDOF 5
ENDMDL
MODEL       40
REMARK 921   NORMALIZED FREE ENERGY PREDICTED BY IDOCK:   -5.70 KCAL/MOL
REMARK 922        TOTAL FREE ENERGY PREDICTED BY IDOCK:   -8.33 KCAL/MOL
REMARK 923 INTER-LIGAND FREE ENERGY PREDICTED BY IDOCK:   -7.57 KCAL/MOL
REMARK 924 INTRA-LIGAND FREE ENERGY PREDICTED BY IDOCK:   -0.76 KCAL/MOL
REMARK 927      BINDING AFFINITY PREDICTED BY RF-SCORE:    0.00 PKD
ROOT
HETATM    1  O   UNL     1     -11.874  12.797  67.985  1.00  0.00    -0.345 OA 
HETATM    2  C   UNL     1     -11.614  13.799  68.838  1.00  0.00    -0.319 C  
HETATM    3  O   UNL     1     -10.880  14.727  68.521  1.00  0.00    -0.238 OA 
HETATM    4  C   UNL     1     -12.354  13.833  70.135  1.00  0.00    -0.390 A  
HETATM    5  C   UNL     1     -12.702  15.135  70.558  1.00  0.00    -0.416 A  
HETATM    6  C   UNL     1     -13.340  15.360  71.777  1.00  0.00    -0.567 A  
HETATM    7  C   UNL     1     -13.652  14.287  72.598  1.00  0.00    -0.601 A  
HETATM    8  C   UNL     1     -13.325  12.988  72.199  1.00  0.00    -0.622 A  
HETATM    9  C   UNL     1     -12.657  12.747  70.980  1.00  0.00    -0.362 A  
ENDROOT
BRANCH   9  10
HETATM   10  C   UNL     1     -12.376  11.334  70.615  1.00  0.00    -0.383 C  
HETATM   11  O   UNL     1     -13.296  10.534  70.748  1.00  0.00    -0.273 OA 
HETATM   12  N   UNL     1     -11.081  11.037  70.211  1.00  0.00    -0.466 N  
HETATM   13  H   UNL     1     -10.427  11.818  70.162  1.00  0.00     0.000 HD 
BRANCH  12  14
HETATM   14  C   UNL     1     -10.573   9.761  69.861  1.00  0.00    -0.265 A  
HETATM   15  C   UNL     1     -10.027   8.864  70.782  1.00  0.00    -0.282 A  
HETATM   16  C   UNL     1      -9.519   7.625  70.369  1.00  0.00    -0.164 A  
HETATM   17  C   UNL     1      -9.566   7.268  69.021  1.00  0.00    -0.147 A  
HETATM   18  C   UNL     1     -10.615   9.388  68.508  1.00  0.00    -0.234 A  
HETATM   19  C   UNL     1     -10.105   8.151  68.084  1.00  0.00    -0.237 A  
BRANCH  17  20
HETATM   20  S   UNL     1      -8.816   5.737  68.486  1.00  0.00    -0.109 S  
HETATM   21  O   UNL     1      -8.347   5.033  69.664  1.00  0.00    -0.086 OA 
HETATM   22  O   UNL     1      -7.902   6.081  67.418  1.00  0.00    -0.100 OA 
BRANCH  20  23
HETATM   23  N   UNL     1     -10.087   4.884  67.765  1.00  0.00    -0.131 N  
HETATM   24  H   UNL     1     -11.065   5.007  68.025  1.00  0.00     0.000 HD 
BRANCH  23  25
HETATM   25  C   UNL     1      -9.653   3.987  66.767  1.00  0.00    -0.211 A  
HETATM   26  N   UNL     1      -9.123   2.854  67.152  1.00  0.00    -0.161 NA 
HETATM   27  C   UNL     1      -8.780   2.118  66.033  1.00  0.00    -0.116 A  
HETATM   28  C   UNL     1      -9.152   2.667  64.824  1.00  0.00    -0.135 A  
HETATM   29  S   UNL     1      -9.890   4.194  65.091  1.00  0.00    -0.206 SA 
ENDBRANCH  23  25
ENDBRANCH  20  23
ENDBRANCH  17  20
ENDBRANCH  12  14
ENDBRANCH   9  10
TORSDOF 5
ENDMDL
MODEL       41
REMARK 921   NORMALIZED FREE ENERGY PREDICTED BY IDOCK:   -5.67 KCAL/MOL
REMARK 922        TOTAL FREE ENERGY PREDICTED BY IDOCK:   -8.29 KCAL/MOL
REMARK 923 INTER-LIGAND FREE ENERGY PREDICTED BY IDOCK:   -7.40 KCAL/MOL
REMARK 924 INTRA-LIGAND FREE ENERGY PREDICTED BY IDOCK:   -0.89 KCAL/MOL
REMARK 927      BINDING AFFINITY PREDICTED BY RF-SCORE:    0.00 PKD
ROOT
HETATM    1  O   UNL     1     -13.127  10.478  70.277  1.00  0.00    -0.227 OA 
HETATM    2  C   UNL     1     -12.671   9.662  71.239  1.00  0.00    -0.352 C  
HETATM    3  O   UNL     1     -12.987   9.825  72.411  1.00  0.00    -0.363 OA 
HETATM    4  C   UNL     1     -11.884   8.461  70.832  1.00  0.00    -0.237 A  
HETATM    5  C   UNL     1     -12.139   7.317  71.621  1.00  0.00    -0.359 A  
HETATM    6  C   UNL     1     -11.447   6.123  71.423  1.00  0.00    -0.317 A  
HETATM    7  C   UNL     1     -10.488   6.043  70.425  1.00  0.00    -0.307 A  
HETATM    8  C   UNL     1     -10.220   7.158  69.626  1.00  0.00    -0.215 A  
HETATM    9  C   UNL     1     -10.896   8.380  69.830  1.00  0.00    -0.207 A  
ENDROOT
BRANCH   9  10
HETATM   10  C   UNL     1     -10.576   9.506  68.915  1.00  0.00    -0.216 C  
HETATM   11  O   UNL     1     -10.763   9.317  67.718  1.00  0.00    -0.259 OA 
HETATM   12  N   UNL     1     -10.041  10.651  69.493  1.00  0.00    -0.385 N  
HETATM   13  H   UNL     1      -9.940  10.646  70.507  1.00  0.00     0.000 HD 
BRANCH  12  14
HETATM   14  C   UNL     1      -9.622  11.824  68.818  1.00  0.00    -0.042 A  
HETATM   15  C   UNL     1      -8.319  12.031  68.358  1.00  0.00    -0.151 A  
HETATM   16  C   UNL     1      -7.960  13.225  67.718  1.00  0.00    -0.166 A  
HETATM   17  C   UNL     1      -8.915  14.224  67.524  1.00  0.00    -0.196 A  
HETATM   18  C   UNL     1     -10.572  12.838  68.614  1.00  0.00    -0.256 A  
HETATM   19  C   UNL     1     -10.222  14.039  67.979  1.00  0.00    -0.238 A  
BRANCH  17  20
HETATM   20  S   UNL     1      -8.424  15.787  66.809  1.00  0.00    -0.292 S  
HETATM   21  O   UNL     1      -9.246  16.021  65.638  1.00  0.00    -0.379 OA 
HETATM   22  O   UNL     1      -6.982  15.754  66.706  1.00  0.00    -0.218 OA 
BRANCH  20  23
HETATM   23  N   UNL     1      -8.786  16.922  68.011  1.00  0.00    -0.211 N  
HETATM   24  H   UNL     1      -8.650  16.750  69.007  1.00  0.00     0.000 HD 
BRANCH  23  25
HETATM   25  C   UNL     1      -9.296  18.130  67.492  1.00  0.00    -0.258 A  
HETATM   26  N   UNL     1     -10.568  18.383  67.668  1.00  0.00    -0.420 NA 
HETATM   27  C   UNL     1     -10.864  19.610  67.104  1.00  0.00    -0.405 A  
HETATM   28  C   UNL     1      -9.785  20.307  66.602  1.00  0.00    -0.414 A  
HETATM   29  S   UNL     1      -8.362  19.363  66.774  1.00  0.00    -0.312 SA 
ENDBRANCH  23  25
ENDBRANCH  20  23
ENDBRANCH  17  20
ENDBRANCH  12  14
ENDBRANCH   9  10
TORSDOF 5
ENDMDL
MODEL       42
REMARK 921   NORMALIZED FREE ENERGY PREDICTED BY IDOCK:   -5.67 KCAL/MOL
REMARK 922        TOTAL FREE ENERGY PREDICTED BY IDOCK:   -8.29 KCAL/MOL
REMARK 923 INTER-LIGAND FREE ENERGY PREDICTED BY IDOCK:   -7.34 KCAL/MOL
REMARK 924 INTRA-LIGAND FREE ENERGY PREDICTED BY IDOCK:   -0.95 KCAL/MOL
REMARK 927      BINDING AFFINITY PREDICTED BY RF-SCORE:    0.00 PKD
ROOT
HETATM    1  O   UNL     1      -9.361  13.264  68.443  1.00  0.00    -0.205 OA 
HETATM    2  C   UNL     1     -10.206  14.191  67.968  1.00  0.00    -0.232 C  
HETATM    3  O   UNL     1     -10.285  15.300  68.480  1.00  0.00    -0.216 OA 
HETATM    4  C   UNL     1     -10.949  13.890  66.708  1.00  0.00    -0.301 A  
HETATM    5  C   UNL     1     -11.110  15.008  65.860  1.00  0.00    -0.334 A  
HETATM    6  C   UNL     1     -11.833  14.925  64.670  1.00  0.00    -0.412 A  
HETATM    7  C   UNL     1     -12.405  13.718  64.298  1.00  0.00    -0.384 A  
HETATM    8  C   UNL     1     -12.255  12.595  65.115  1.00  0.00    -0.539 A  
HETATM    9  C   UNL     1     -11.547  12.670  66.333  1.00  0.00    -0.441 A  
ENDROOT
BRANCH   9  10
HETATM   10  C   UNL     1     -11.405  11.421  67.126  1.00  0.00    -0.255 C  
HETATM   11  O   UNL     1     -12.145  11.294  68.096  1.00  0.00    -0.635 OA 
HETATM   12  N   UNL     1     -10.408  10.538  66.732  1.00  0.00    -0.237 N  
HETATM   13  H   UNL     1      -9.870  10.796  65.905  1.00  0.00     0.000 HD 
BRANCH  12  14
HETATM   14  C   UNL     1     -10.061   9.315  67.359  1.00  0.00    -0.223 A  
HETATM   15  C   UNL     1     -10.630   8.084  67.025  1.00  0.00    -0.364 A  
HETATM   16  C   UNL     1     -10.261   6.911  67.699  1.00  0.00    -0.235 A  
HETATM   17  C   UNL     1      -9.304   6.964  68.713  1.00  0.00    -0.129 A  
HETATM   18  C   UNL     1      -9.098   9.353  68.379  1.00  0.00    -0.128 A  
HETATM   19  C   UNL     1      -8.725   8.186  69.064  1.00  0.00    -0.144 A  
BRANCH  17  20
HETATM   20  S   UNL     1      -8.921   5.487  69.644  1.00  0.00    -0.118 S  
HETATM   21  O   UNL     1      -7.826   5.796  70.541  1.00  0.00    -0.096 OA 
HETATM   22  O   UNL     1      -8.807   4.415  68.679  1.00  0.00    -0.096 OA 
BRANCH  20  23
HETATM   23  N   UNL     1     -10.330   5.180  70.528  1.00  0.00    -0.259 N  
HETATM   24  H   UNL     1     -11.036   4.499  70.244  1.00  0.00     0.000 HD 
BRANCH  23  25
HETATM   25  C   UNL     1     -10.429   5.961  71.698  1.00  0.00    -0.233 A  
HETATM   26  N   UNL     1     -11.031   7.119  71.612  1.00  0.00    -0.226 NA 
HETATM   27  C   UNL     1     -11.035   7.716  72.858  1.00  0.00    -0.400 A  
HETATM   28  C   UNL     1     -10.524   6.951  73.885  1.00  0.00    -0.318 A  
HETATM   29  S   UNL     1      -9.950   5.459  73.257  1.00  0.00    -0.178 SA 
ENDBRANCH  23  25
ENDBRANCH  20  23
ENDBRANCH  17  20
ENDBRANCH  12  14
ENDBRANCH   9  10
TORSDOF 5
ENDMDL
MODEL       43
REMARK 921   NORMALIZED FREE ENERGY PREDICTED BY IDOCK:   -5.64 KCAL/MOL
REMARK 922        TOTAL FREE ENERGY PREDICTED BY IDOCK:   -8.25 KCAL/MOL
REMARK 923 INTER-LIGAND FREE ENERGY PREDICTED BY IDOCK:   -7.59 KCAL/MOL
REMARK 924 INTRA-LIGAND FREE ENERGY PREDICTED BY IDOCK:   -0.66 KCAL/MOL
REMARK 927      BINDING AFFINITY PREDICTED BY RF-SCORE:    0.00 PKD
ROOT
HETATM    1  O   UNL     1     -12.034   7.251  72.685  1.00  0.00    -0.165 OA 
HETATM    2  C   UNL     1     -10.984   6.471  72.981  1.00  0.00    -0.239 C  
HETATM    3  O   UNL     1     -10.491   6.471  74.102  1.00  0.00    -0.337 OA 
HETATM    4  C   UNL     1     -10.519   5.493  71.953  1.00  0.00    -0.282 A  
HETATM    5  C   UNL     1     -10.086   4.262  72.493  1.00  0.00    -0.233 A  
HETATM    6  C   UNL     1      -9.560   3.255  71.685  1.00  0.00    -0.230 A  
HETATM    7  C   UNL     1      -9.461   3.454  70.316  1.00  0.00    -0.247 A  
HETATM    8  C   UNL     1      -9.889   4.660  69.756  1.00  0.00    -0.296 A  
HETATM    9  C   UNL     1     -10.401   5.697  70.564  1.00  0.00    -0.327 A  
ENDROOT
BRANCH   9  10
HETATM   10  C   UNL     1     -10.864   6.935  69.885  1.00  0.00    -0.257 C  
HETATM   11  O   UNL     1     -11.523   6.793  68.861  1.00  0.00    -0.114 OA 
HETATM   12  N   UNL     1     -10.461   8.143  70.440  1.00  0.00    -0.211 N  
HETATM   13  H   UNL     1      -9.904   8.091  71.294  1.00  0.00     0.000 HD 
BRANCH  12  14
HETATM   14  C   UNL     1     -10.741   9.441  69.945  1.00  0.00    -0.234 A  
HETATM   15  C   UNL     1     -10.023  10.049  68.913  1.00  0.00    -0.198 A  
HETATM   16  C   UNL     1     -10.335  11.346  68.482  1.00  0.00    -0.219 A  
HETATM   17  C   UNL     1     -11.384  12.043  69.080  1.00  0.00    -0.281 A  
HETATM   18  C   UNL     1     -11.796  10.154  70.536  1.00  0.00    -0.408 A  
HETATM   19  C   UNL     1     -12.114  11.455  70.116  1.00  0.00    -0.439 A  
BRANCH  17  20
HETATM   20  S   UNL     1     -11.704  13.736  68.605  1.00  0.00    -0.375 S  
HETATM   21  O   UNL     1     -12.486  14.356  69.656  1.00  0.00    -0.288 OA 
HETATM   22  O   UNL     1     -12.197  13.693  67.245  1.00  0.00    -0.366 OA 
BRANCH  20  23
HETATM   23  N   UNL     1     -10.168  14.441  68.528  1.00  0.00    -0.238 N  
HETATM   24  H   UNL     1      -9.336  14.024  68.945  1.00  0.00     0.000 HD 
BRANCH  23  25
HETATM   25  C   UNL     1     -10.157  15.666  67.828  1.00  0.00    -0.226 A  
HETATM   26  N   UNL     1     -10.594  16.730  68.451  1.00  0.00    -0.336 NA 
HETATM   27  C   UNL     1     -10.487  17.819  67.607  1.00  0.00    -0.388 A  
HETATM   28  C   UNL     1      -9.877  17.573  66.395  1.00  0.00    -0.309 A  
HETATM   29  S   UNL     1      -9.489  15.904  66.277  1.00  0.00    -0.346 SA 
ENDBRANCH  23  25
ENDBRANCH  20  23
ENDBRANCH  17  20
ENDBRANCH  12  14
ENDBRANCH   9  10
TORSDOF 5
ENDMDL
MODEL       44
REMARK 921   NORMALIZED FREE ENERGY PREDICTED BY IDOCK:   -5.62 KCAL/MOL
REMARK 922        TOTAL FREE ENERGY PREDICTED BY IDOCK:   -8.22 KCAL/MOL
REMARK 923 INTER-LIGAND FREE ENERGY PREDICTED BY IDOCK:   -7.73 KCAL/MOL
REMARK 924 INTRA-LIGAND FREE ENERGY PREDICTED BY IDOCK:   -0.50 KCAL/MOL
REMARK 927      BINDING AFFINITY PREDICTED BY RF-SCORE:    0.00 PKD
ROOT
HETATM    1  O   UNL     1     -11.527  14.137  70.109  1.00  0.00    -0.242 OA 
HETATM    2  C   UNL     1     -11.894  15.323  69.600  1.00  0.00    -0.339 C  
HETATM    3  O   UNL     1     -12.609  16.090  70.231  1.00  0.00    -0.286 OA 
HETATM    4  C   UNL     1     -11.290  15.750  68.302  1.00  0.00    -0.354 A  
HETATM    5  C   UNL     1     -11.014  17.134  68.231  1.00  0.00    -0.229 A  
HETATM    6  C   UNL     1     -10.508  17.718  67.071  1.00  0.00    -0.324 A  
HETATM    7  C   UNL     1     -10.259  16.931  65.957  1.00  0.00    -0.350 A  
HETATM    8  C   UNL     1     -10.517  15.558  66.004  1.00  0.00    -0.335 A  
HETATM    9  C   UNL     1     -11.052  14.957  67.163  1.00  0.00    -0.332 A  
ENDROOT
BRANCH   9  10
HETATM   10  C   UNL     1     -11.266  13.486  67.140  1.00  0.00    -0.305 C  
HETATM   11  O   UNL     1     -12.308  13.085  66.633  1.00  0.00    -0.381 OA 
HETATM   12  N   UNL     1     -10.292  12.702  67.747  1.00  0.00    -0.216 N  
HETATM   13  H   UNL     1      -9.485  13.192  68.133  1.00  0.00     0.000 HD 
BRANCH  12  14
HETATM   14  C   UNL     1     -10.304  11.292  67.886  1.00  0.00    -0.182 A  
HETATM   15  C   UNL     1     -10.507  10.409  66.822  1.00  0.00    -0.287 A  
HETATM   16  C   UNL     1     -10.531   9.023  67.028  1.00  0.00    -0.316 A  
HETATM   17  C   UNL     1     -10.339   8.508  68.310  1.00  0.00    -0.201 A  
HETATM   18  C   UNL     1     -10.111  10.759  69.170  1.00  0.00    -0.224 A  
HETATM   19  C   UNL     1     -10.138   9.373  69.388  1.00  0.00    -0.204 A  
BRANCH  17  20
HETATM   20  S   UNL     1     -10.483   6.748  68.585  1.00  0.00    -0.222 S  
HETATM   21  O   UNL     1      -9.261   6.293  69.218  1.00  0.00    -0.133 OA 
HETATM   22  O   UNL     1     -10.924   6.173  67.332  1.00  0.00    -0.321 OA 
BRANCH  20  23
HETATM   23  N   UNL     1     -11.784   6.602  69.656  1.00  0.00    -0.657 N  
HETATM   24  H   UNL     1     -12.755   6.527  69.355  1.00  0.00     0.000 HD 
BRANCH  23  25
HETATM   25  C   UNL     1     -11.385   6.594  71.010  1.00  0.00    -0.315 A  
HETATM   26  N   UNL     1     -11.577   7.683  71.710  1.00  0.00    -0.261 NA 
HETATM   27  C   UNL     1     -11.137   7.467  73.002  1.00  0.00    -0.362 A  
HETATM   28  C   UNL     1     -10.715   6.184  73.279  1.00  0.00    -0.260 A  
HETATM   29  S   UNL     1     -10.800   5.232  71.853  1.00  0.00    -0.092 SA 
ENDBRANCH  23  25
ENDBRANCH  20  23
ENDBRANCH  17  20
ENDBRANCH  12  14
ENDBRANCH   9  10
TORSDOF 5
ENDMDL
MODEL       45
REMARK 921   NORMALIZED FREE ENERGY PREDICTED BY IDOCK:   -5.59 KCAL/MOL
REMARK 922        TOTAL FREE ENERGY PREDICTED BY IDOCK:   -8.19 KCAL/MOL
REMARK 923 INTER-LIGAND FREE ENERGY PREDICTED BY IDOCK:   -7.30 KCAL/MOL
REMARK 924 INTRA-LIGAND FREE ENERGY PREDICTED BY IDOCK:   -0.89 KCAL/MOL
REMARK 927      BINDING AFFINITY PREDICTED BY RF-SCORE:    0.00 PKD
ROOT
HETATM    1  O   UNL     1     -11.864  10.627  68.484  1.00  0.00    -0.406 OA 
HETATM    2  C   UNL     1     -11.472  11.816  68.966  1.00  0.00    -0.297 C  
HETATM    3  O   UNL     1     -10.579  12.457  68.427  1.00  0.00    -0.223 OA 
HETATM    4  C   UNL     1     -12.248  12.410  70.095  1.00  0.00    -0.303 A  
HETATM    5  C   UNL     1     -12.387  13.814  70.015  1.00  0.00    -0.364 A  
HETATM    6  C   UNL     1     -13.027  14.543  71.016  1.00  0.00    -0.423 A  
HETATM    7  C   UNL     1     -13.552  13.883  72.118  1.00  0.00    -0.599 A  
HETATM    8  C   UNL     1     -13.434  12.495  72.218  1.00  0.00    -0.490 A  
HETATM    9  C   UNL     1     -12.768  11.747  71.225  1.00  0.00    -0.420 A  
ENDROOT
BRANCH   9  10
HETATM   10  C   UNL     1     -12.717  10.271  71.391  1.00  0.00    -0.442 C  
HETATM   11  O   UNL     1     -13.790   9.678  71.409  1.00  0.00    -0.273 OA 
HETATM   12  N   UNL     1     -11.461   9.703  71.568  1.00  0.00    -0.385 N  
HETATM   13  H   UNL     1     -10.664  10.338  71.537  1.00  0.00     0.000 HD 
BRANCH  12  14
HETATM   14  C   UNL     1     -11.174   8.333  71.789  1.00  0.00    -0.283 A  
HETATM   15  C   UNL     1     -11.306   7.345  70.811  1.00  0.00    -0.303 A  
HETATM   16  C   UNL     1     -11.027   6.002  71.098  1.00  0.00    -0.341 A  
HETATM   17  C   UNL     1     -10.601   5.638  72.375  1.00  0.00    -0.224 A  
HETATM   18  C   UNL     1     -10.741   7.952  73.070  1.00  0.00    -0.408 A  
HETATM   19  C   UNL     1     -10.464   6.610  73.369  1.00  0.00    -0.313 A  
BRANCH  17  20
HETATM   20  S   UNL     1     -10.356   3.911  72.767  1.00  0.00    -0.147 S  
HETATM   21  O   UNL     1      -9.972   3.227  71.548  1.00  0.00    -0.167 OA 
HETATM   22  O   UNL     1     -11.522   3.493  73.514  1.00  0.00    -0.207 OA 
BRANCH  20  23
HETATM   23  N   UNL     1      -9.068   3.915  73.863  1.00  0.00    -0.094 N  
HETATM   24  H   UNL     1      -9.175   4.121  74.856  1.00  0.00     0.000 HD 
BRANCH  23  25
HETATM   25  C   UNL     1      -7.831   3.603  73.261  1.00  0.00    -0.074 A  
HETATM   26  N   UNL     1      -7.139   4.585  72.742  1.00  0.00    -0.073 NA 
HETATM   27  C   UNL     1      -5.964   4.078  72.221  1.00  0.00    -0.009 A  
HETATM   28  C   UNL     1      -5.744   2.736  72.447  1.00  0.00    -0.008 A  
HETATM   29  S   UNL     1      -7.090   2.067  73.278  1.00  0.00    -0.028 SA 
ENDBRANCH  23  25
ENDBRANCH  20  23
ENDBRANCH  17  20
ENDBRANCH  12  14
ENDBRANCH   9  10
TORSDOF 5
ENDMDL
MODEL       46
REMARK 921   NORMALIZED FREE ENERGY PREDICTED BY IDOCK:   -5.58 KCAL/MOL
REMARK 922        TOTAL FREE ENERGY PREDICTED BY IDOCK:   -8.18 KCAL/MOL
REMARK 923 INTER-LIGAND FREE ENERGY PREDICTED BY IDOCK:   -7.22 KCAL/MOL
REMARK 924 INTRA-LIGAND FREE ENERGY PREDICTED BY IDOCK:   -0.96 KCAL/MOL
REMARK 927      BINDING AFFINITY PREDICTED BY RF-SCORE:    0.00 PKD
ROOT
HETATM    1  O   UNL     1     -11.139   6.788  69.306  1.00  0.00    -0.260 OA 
HETATM    2  C   UNL     1     -10.414   5.677  69.503  1.00  0.00    -0.302 C  
HETATM    3  O   UNL     1     -10.488   5.048  70.551  1.00  0.00    -0.240 OA 
HETATM    4  C   UNL     1      -9.618   5.142  68.359  1.00  0.00    -0.185 A  
HETATM    5  C   UNL     1      -9.590   3.731  68.295  1.00  0.00    -0.171 A  
HETATM    6  C   UNL     1      -8.843   3.058  67.328  1.00  0.00    -0.160 A  
HETATM    7  C   UNL     1      -8.113   3.782  66.398  1.00  0.00    -0.097 A  
HETATM    8  C   UNL     1      -8.129   5.178  66.435  1.00  0.00    -0.108 A  
HETATM    9  C   UNL     1      -8.861   5.873  67.422  1.00  0.00    -0.106 A  
ENDROOT
BRANCH   9  10
HETATM   10  C   UNL     1      -8.852   7.358  67.369  1.00  0.00    -0.123 C  
HETATM   11  O   UNL     1      -7.954   7.928  67.979  1.00  0.00    -0.124 OA 
HETATM   12  N   UNL     1      -9.894   7.967  66.682  1.00  0.00    -0.290 N  
HETATM   13  H   UNL     1     -10.570   7.348  66.235  1.00  0.00     0.000 HD 
BRANCH  12  14
HETATM   14  C   UNL     1     -10.117   9.359  66.539  1.00  0.00    -0.262 A  
HETATM   15  C   UNL     1     -10.747  10.148  67.503  1.00  0.00    -0.347 A  
HETATM   16  C   UNL     1     -10.959  11.517  67.292  1.00  0.00    -0.323 A  
HETATM   17  C   UNL     1     -10.527  12.112  66.107  1.00  0.00    -0.248 A  
HETATM   18  C   UNL     1      -9.685   9.972  65.351  1.00  0.00    -0.368 A  
HETATM   19  C   UNL     1      -9.896  11.341  65.128  1.00  0.00    -0.298 A  
BRANCH  17  20
HETATM   20  S   UNL     1     -10.899  13.832  65.795  1.00  0.00    -0.282 S  
HETATM   21  O   UNL     1     -11.704  14.322  66.897  1.00  0.00    -0.371 OA 
HETATM   22  O   UNL     1     -11.386  13.905  64.435  1.00  0.00    -0.373 OA 
BRANCH  20  23
HETATM   23  N   UNL     1      -9.386  14.589  65.797  1.00  0.00    -0.531 N  
HETATM   24  H   UNL     1      -8.553  14.181  65.374  1.00  0.00     0.000 HD 
BRANCH  23  25
HETATM   25  C   UNL     1      -9.398  15.843  66.444  1.00  0.00    -0.297 A  
HETATM   26  N   UNL     1      -9.794  16.883  65.755  1.00  0.00    -0.554 NA 
HETATM   27  C   UNL     1      -9.746  18.001  66.565  1.00  0.00    -0.338 A  
HETATM   28  C   UNL     1      -9.411  17.767  67.882  1.00  0.00    -0.266 A  
HETATM   29  S   UNL     1      -9.070  16.098  68.098  1.00  0.00    -0.192 SA 
ENDBRANCH  23  25
ENDBRANCH  20  23
ENDBRANCH  17  20
ENDBRANCH  12  14
ENDBRANCH   9  10
TORSDOF 5
ENDMDL
MODEL       47
REMARK 921   NORMALIZED FREE ENERGY PREDICTED BY IDOCK:   -5.58 KCAL/MOL
REMARK 922        TOTAL FREE ENERGY PREDICTED BY IDOCK:   -8.17 KCAL/MOL
REMARK 923 INTER-LIGAND FREE ENERGY PREDICTED BY IDOCK:   -7.41 KCAL/MOL
REMARK 924 INTRA-LIGAND FREE ENERGY PREDICTED BY IDOCK:   -0.76 KCAL/MOL
REMARK 927      BINDING AFFINITY PREDICTED BY RF-SCORE:    0.00 PKD
ROOT
HETATM    1  O   UNL     1     -12.033  13.367  67.872  1.00  0.00    -0.351 OA 
HETATM    2  C   UNL     1     -11.723  14.284  68.800  1.00  0.00    -0.343 C  
HETATM    3  O   UNL     1     -11.030  15.255  68.525  1.00  0.00    -0.245 OA 
HETATM    4  C   UNL     1     -12.360  14.171  70.146  1.00  0.00    -0.413 A  
HETATM    5  C   UNL     1     -12.694  15.415  70.724  1.00  0.00    -0.516 A  
HETATM    6  C   UNL     1     -13.239  15.503  72.005  1.00  0.00    -0.549 A  
HETATM    7  C   UNL     1     -13.471  14.345  72.733  1.00  0.00    -0.582 A  
HETATM    8  C   UNL     1     -13.156  13.101  72.180  1.00  0.00    -0.481 A  
HETATM    9  C   UNL     1     -12.582  12.999  70.896  1.00  0.00    -0.364 A  
ENDROOT
BRANCH   9  10
HETATM   10  C   UNL     1     -12.309  11.636  70.369  1.00  0.00    -0.288 C  
HETATM   11  O   UNL     1     -13.191  10.798  70.517  1.00  0.00    -0.190 OA 
HETATM   12  N   UNL     1     -11.056  11.421  69.808  1.00  0.00    -0.455 N  
HETATM   13  H   UNL     1     -10.429  12.224  69.768  1.00  0.00     0.000 HD 
BRANCH  12  14
HETATM   14  C   UNL     1     -10.560  10.201  69.286  1.00  0.00    -0.230 A  
HETATM   15  C   UNL     1      -9.963   9.208  70.067  1.00  0.00    -0.223 A  
HETATM   16  C   UNL     1      -9.469   8.031  69.487  1.00  0.00    -0.160 A  
HETATM   17  C   UNL     1      -9.581   7.835  68.110  1.00  0.00    -0.151 A  
HETATM   18  C   UNL     1     -10.667   9.988  67.902  1.00  0.00    -0.322 A  
HETATM   19  C   UNL     1     -10.172   8.816  67.310  1.00  0.00    -0.332 A  
BRANCH  17  20
HETATM   20  S   UNL     1      -8.850   6.385  67.362  1.00  0.00    -0.102 S  
HETATM   21  O   UNL     1      -7.650   6.056  68.106  1.00  0.00    -0.090 OA 
HETATM   22  O   UNL     1      -8.791   6.645  65.941  1.00  0.00    -0.154 OA 
BRANCH  20  23
HETATM   23  N   UNL     1     -10.017   5.179  67.575  1.00  0.00    -0.169 N  
HETATM   24  H   UNL     1     -10.950   5.220  67.166  1.00  0.00     0.000 HD 
BRANCH  23  25
HETATM   25  C   UNL     1      -9.564   4.109  68.375  1.00  0.00    -0.125 A  
HETATM   26  N   UNL     1      -9.851   4.137  69.652  1.00  0.00    -0.198 NA 
HETATM   27  C   UNL     1      -9.336   3.003  70.251  1.00  0.00    -0.158 A  
HETATM   28  C   UNL     1      -8.757   2.090  69.395  1.00  0.00    -0.071 A  
HETATM   29  S   UNL     1      -8.791   2.705  67.792  1.00  0.00    -0.148 SA 
ENDBRANCH  23  25
ENDBRANCH  20  23
ENDBRANCH  17  20
ENDBRANCH  12  14
ENDBRANCH   9  10
TORSDOF 5
ENDMDL
MODEL       48
REMARK 921   NORMALIZED FREE ENERGY PREDICTED BY IDOCK:   -5.56 KCAL/MOL
REMARK 922        TOTAL FREE ENERGY PREDICTED BY IDOCK:   -8.15 KCAL/MOL
REMARK 923 INTER-LIGAND FREE ENERGY PREDICTED BY IDOCK:   -7.27 KCAL/MOL
REMARK 924 INTRA-LIGAND FREE ENERGY PREDICTED BY IDOCK:   -0.88 KCAL/MOL
REMARK 927      BINDING AFFINITY PREDICTED BY RF-SCORE:    0.00 PKD
ROOT
HETATM    1  O   UNL     1      -7.097  16.369  68.719  1.00  0.00    -0.157 OA 
HETATM    2  C   UNL     1      -7.344  17.681  68.852  1.00  0.00    -0.239 C  
HETATM    3  O   UNL     1      -6.561  18.418  69.437  1.00  0.00    -0.262 OA 
HETATM    4  C   UNL     1      -8.530  18.252  68.146  1.00  0.00    -0.290 A  
HETATM    5  C   UNL     1      -8.314  19.547  67.625  1.00  0.00    -0.340 A  
HETATM    6  C   UNL     1      -9.331  20.258  66.990  1.00  0.00    -0.526 A  
HETATM    7  C   UNL     1     -10.587  19.686  66.854  1.00  0.00    -0.603 A  
HETATM    8  C   UNL     1     -10.826  18.404  67.355  1.00  0.00    -0.306 A  
HETATM    9  C   UNL     1      -9.813  17.682  68.022  1.00  0.00    -0.310 A  
ENDROOT
BRANCH   9  10
HETATM   10  C   UNL     1     -10.139  16.311  68.494  1.00  0.00    -0.239 C  
HETATM   11  O   UNL     1     -10.628  16.213  69.614  1.00  0.00    -0.268 OA 
HETATM   12  N   UNL     1      -9.809  15.261  67.647  1.00  0.00    -0.217 N  
HETATM   13  H   UNL     1      -9.398  15.511  66.748  1.00  0.00     0.000 HD 
BRANCH  12  14
HETATM   14  C   UNL     1      -9.984  13.878  67.902  1.00  0.00    -0.242 A  
HETATM   15  C   UNL     1     -11.230  13.274  68.085  1.00  0.00    -0.302 A  
HETATM   16  C   UNL     1     -11.336  11.904  68.358  1.00  0.00    -0.331 A  
HETATM   17  C   UNL     1     -10.184  11.121  68.440  1.00  0.00    -0.188 A  
HETATM   18  C   UNL     1      -8.834  13.077  67.986  1.00  0.00    -0.191 A  
HETATM   19  C   UNL     1      -8.928  11.705  68.263  1.00  0.00    -0.185 A  
BRANCH  17  20
HETATM   20  S   UNL     1     -10.318   9.398  68.900  1.00  0.00    -0.217 S  
HETATM   21  O   UNL     1     -11.296   9.295  69.964  1.00  0.00    -0.214 OA 
HETATM   22  O   UNL     1      -8.966   8.920  69.089  1.00  0.00    -0.138 OA 
BRANCH  20  23
HETATM   23  N   UNL     1     -10.896   8.642  67.501  1.00  0.00    -0.486 N  
HETATM   24  H   UNL     1     -11.554   9.079  66.856  1.00  0.00     0.000 HD 
BRANCH  23  25
HETATM   25  C   UNL     1     -10.375   7.344  67.321  1.00  0.00    -0.286 A  
HETATM   26  N   UNL     1     -11.038   6.341  67.837  1.00  0.00    -0.327 NA 
HETATM   27  C   UNL     1     -10.375   5.165  67.539  1.00  0.00    -0.128 A  
HETATM   28  C   UNL     1      -9.277   5.295  66.715  1.00  0.00    -0.126 A  
HETATM   29  S   UNL     1      -9.019   6.955  66.361  1.00  0.00    -0.150 SA 
ENDBRANCH  23  25
ENDBRANCH  20  23
ENDBRANCH  17  20
ENDBRANCH  12  14
ENDBRANCH   9  10
TORSDOF 5
ENDMDL
MODEL       49
REMARK 921   NORMALIZED FREE ENERGY PREDICTED BY IDOCK:   -5.56 KCAL/MOL
REMARK 922        TOTAL FREE ENERGY PREDICTED BY IDOCK:   -8.15 KCAL/MOL
REMARK 923 INTER-LIGAND FREE ENERGY PREDICTED BY IDOCK:   -7.38 KCAL/MOL
REMARK 924 INTRA-LIGAND FREE ENERGY PREDICTED BY IDOCK:   -0.76 KCAL/MOL
REMARK 927      BINDING AFFINITY PREDICTED BY RF-SCORE:    0.00 PKD
ROOT
HETATM    1  O   UNL     1     -12.924  13.853  71.410  1.00  0.00    -0.329 OA 
HETATM    2  C   UNL     1     -13.034  14.908  70.589  1.00  0.00    -0.338 C  
HETATM    3  O   UNL     1     -13.906  15.752  70.754  1.00  0.00    -0.359 OA 
HETATM    4  C   UNL     1     -11.980  15.107  69.550  1.00  0.00    -0.351 A  
HETATM    5  C   UNL     1     -11.648  16.463  69.328  1.00  0.00    -0.084 A  
HETATM    6  C   UNL     1     -10.729  16.839  68.350  1.00  0.00    -0.362 A  
HETATM    7  C   UNL     1     -10.113  15.866  67.576  1.00  0.00    -0.247 A  
HETATM    8  C   UNL     1     -10.418  14.518  67.780  1.00  0.00    -0.242 A  
HETATM    9  C   UNL     1     -11.365  14.125  68.750  1.00  0.00    -0.308 A  
ENDROOT
BRANCH   9  10
HETATM   10  C   UNL     1     -11.606  12.669  68.926  1.00  0.00    -0.317 C  
HETATM   11  O   UNL     1     -12.129  12.076  67.989  1.00  0.00    -0.514 OA 
HETATM   12  N   UNL     1     -11.270  12.123  70.159  1.00  0.00    -0.406 N  
HETATM   13  H   UNL     1     -10.850  12.755  70.840  1.00  0.00     0.000 HD 
BRANCH  12  14
HETATM   14  C   UNL     1     -11.450  10.778  70.568  1.00  0.00    -0.275 A  
HETATM   15  C   UNL     1     -12.476  10.357  71.418  1.00  0.00    -0.521 A  
HETATM   16  C   UNL     1     -12.587   9.015  71.806  1.00  0.00    -0.434 A  
HETATM   17  C   UNL     1     -11.670   8.076  71.333  1.00  0.00    -0.287 A  
HETATM   18  C   UNL     1     -10.536   9.822  70.098  1.00  0.00    -0.338 A  
HETATM   19  C   UNL     1     -10.635   8.476  70.484  1.00  0.00    -0.238 A  
BRANCH  17  20
HETATM   20  S   UNL     1     -11.750   6.390  71.919  1.00  0.00    -0.322 S  
HETATM   21  O   UNL     1     -10.804   5.604  71.152  1.00  0.00    -0.257 OA 
HETATM   22  O   UNL     1     -13.152   6.034  71.951  1.00  0.00     0.270 OA 
BRANCH  20  23
HETATM   23  N   UNL     1     -11.250   6.490  73.533  1.00  0.00    -0.424 N  
HETATM   24  H   UNL     1     -11.888   6.667  74.309  1.00  0.00     0.000 HD 
BRANCH  23  25
HETATM   25  C   UNL     1      -9.861   6.303  73.693  1.00  0.00    -0.190 A  
HETATM   26  N   UNL     1      -9.093   7.362  73.652  1.00  0.00    -0.204 NA 
HETATM   27  C   UNL     1      -7.781   6.971  73.842  1.00  0.00    -0.105 A  
HETATM   28  C   UNL     1      -7.595   5.634  74.124  1.00  0.00    -0.092 A  
HETATM   29  S   UNL     1      -9.107   4.822  74.076  1.00  0.00    -0.111 SA 
ENDBRANCH  23  25
ENDBRANCH  20  23
ENDBRANCH  17  20
ENDBRANCH  12  14
ENDBRANCH   9  10
TORSDOF 5
ENDMDL
MODEL       50
REMARK 921   NORMALIZED FREE ENERGY PREDICTED BY IDOCK:   -5.55 KCAL/MOL
REMARK 922        TOTAL FREE ENERGY PREDICTED BY IDOCK:   -8.14 KCAL/MOL
REMARK 923 INTER-LIGAND FREE ENERGY PREDICTED BY IDOCK:   -7.57 KCAL/MOL
REMARK 924 INTRA-LIGAND FREE ENERGY PREDICTED BY IDOCK:   -0.57 KCAL/MOL
REMARK 927      BINDING AFFINITY PREDICTED BY RF-SCORE:    0.00 PKD
ROOT
HETATM    1  O   UNL     1     -13.150  12.282  64.735  1.00  0.00    -0.724 OA 
HETATM    2  C   UNL     1     -12.309  13.163  64.174  1.00  0.00    -0.348 C  
HETATM    3  O   UNL     1     -12.118  13.175  62.965  1.00  0.00    -0.442 OA 
HETATM    4  C   UNL     1     -11.718  14.226  65.040  1.00  0.00    -0.383 A  
HETATM    5  C   UNL     1     -11.585  15.477  64.397  1.00  0.00    -0.258 A  
HETATM    6  C   UNL     1     -10.994  16.567  65.035  1.00  0.00    -0.222 A  
HETATM    7  C   UNL     1     -10.531  16.434  66.335  1.00  0.00    -0.288 A  
HETATM    8  C   UNL     1     -10.657  15.209  66.996  1.00  0.00    -0.300 A  
HETATM    9  C   UNL     1     -11.230  14.091  66.355  1.00  0.00    -0.321 A  
ENDROOT
BRANCH   9  10
HETATM   10  C   UNL     1     -11.357  12.836  67.141  1.00  0.00    -0.314 C  
HETATM   11  O   UNL     1     -12.123  12.856  68.098  1.00  0.00    -0.300 OA 
HETATM   12  N   UNL     1     -10.553  11.770  66.754  1.00  0.00    -0.229 N  
HETATM   13  H   UNL     1      -9.960  11.917  65.937  1.00  0.00     0.000 HD 
BRANCH  12  14
HETATM   14  C   UNL     1     -10.472  10.500  67.377  1.00  0.00    -0.244 A  
HETATM   15  C   UNL     1     -10.088  10.311  68.706  1.00  0.00    -0.198 A  
HETATM   16  C   UNL     1     -10.004   9.026  69.259  1.00  0.00    -0.188 A  
HETATM   17  C   UNL     1     -10.316   7.912  68.478  1.00  0.00    -0.200 A  
HETATM   18  C   UNL     1     -10.785   9.370  66.604  1.00  0.00    -0.076 A  
HETATM   19  C   UNL     1     -10.699   8.078  67.145  1.00  0.00    -0.285 A  
BRANCH  17  20
HETATM   20  S   UNL     1     -10.098   6.271  69.153  1.00  0.00    -0.181 S  
HETATM   21  O   UNL     1      -8.851   6.253  69.891  1.00  0.00    -0.138 OA 
HETATM   22  O   UNL     1     -10.326   5.348  68.063  1.00  0.00    -0.183 OA 
BRANCH  20  23
HETATM   23  N   UNL     1     -11.404   6.084  70.212  1.00  0.00    -0.330 N  
HETATM   24  H   UNL     1     -12.353   5.874  69.904  1.00  0.00     0.000 HD 
BRANCH  23  25
HETATM   25  C   UNL     1     -11.044   6.249  71.566  1.00  0.00    -0.281 A  
HETATM   26  N   UNL     1     -10.431   5.258  72.161  1.00  0.00    -0.215 NA 
HETATM   27  C   UNL     1     -10.154   5.621  73.466  1.00  0.00    -0.193 A  
HETATM   28  C   UNL     1     -10.474   6.920  73.801  1.00  0.00    -0.357 A  
HETATM   29  S   UNL     1     -11.215   7.692  72.459  1.00  0.00    -0.369 SA 
ENDBRANCH  23  25
ENDBRANCH  20  23
ENDBRANCH  17  20
ENDBRANCH  12  14
ENDBRANCH   9  10
TORSDOF 5
ENDMDL
MODEL       51
REMARK 921   NORMALIZED FREE ENERGY PREDICTED BY IDOCK:   -5.55 KCAL/MOL
REMARK 922        TOTAL FREE ENERGY PREDICTED BY IDOCK:   -8.14 KCAL/MOL
REMARK 923 INTER-LIGAND FREE ENERGY PREDICTED BY IDOCK:   -7.34 KCAL/MOL
REMARK 924 INTRA-LIGAND FREE ENERGY PREDICTED BY IDOCK:   -0.80 KCAL/MOL
REMARK 927      BINDING AFFINITY PREDICTED BY RF-SCORE:    0.00 PKD
ROOT
HETATM    1  O   UNL     1      -8.942  11.246  67.567  1.00  0.00    -0.139 OA 
HETATM    2  C   UNL     1      -9.701  10.167  67.809  1.00  0.00    -0.153 C  
HETATM    3  O   UNL     1      -9.579   9.144  67.149  1.00  0.00    -0.150 OA 
HETATM    4  C   UNL     1     -10.603  10.191  68.999  1.00  0.00    -0.245 A  
HETATM    5  C   UNL     1     -10.701   8.949  69.665  1.00  0.00    -0.222 A  
HETATM    6  C   UNL     1     -11.547   8.772  70.759  1.00  0.00    -0.288 A  
HETATM    7  C   UNL     1     -12.310   9.835  71.217  1.00  0.00    -0.465 A  
HETATM    8  C   UNL     1     -12.226  11.076  70.581  1.00  0.00    -0.481 A  
HETATM    9  C   UNL     1     -11.393  11.264  69.458  1.00  0.00    -0.362 A  
ENDROOT
BRANCH   9  10
HETATM   10  C   UNL     1     -11.337  12.624  68.861  1.00  0.00    -0.297 C  
HETATM   11  O   UNL     1     -12.085  12.844  67.914  1.00  0.00    -0.312 OA 
HETATM   12  N   UNL     1     -10.402  13.504  69.392  1.00  0.00    -0.375 N  
HETATM   13  H   UNL     1      -9.847  13.162  70.176  1.00  0.00     0.000 HD 
BRANCH  12  14
HETATM   14  C   UNL     1     -10.140  14.827  68.957  1.00  0.00    -0.232 A  
HETATM   15  C   UNL     1     -10.493  15.966  69.683  1.00  0.00    -0.295 A  
HETATM   16  C   UNL     1     -10.227  17.250  69.188  1.00  0.00    -0.283 A  
HETATM   17  C   UNL     1      -9.590  17.401  67.956  1.00  0.00    -0.276 A  
HETATM   18  C   UNL     1      -9.498  14.994  67.720  1.00  0.00    -0.195 A  
HETATM   19  C   UNL     1      -9.231  16.275  67.212  1.00  0.00    -0.217 A  
BRANCH  17  20
HETATM   20  S   UNL     1      -9.355  19.039  67.278  1.00  0.00    -0.309 S  
HETATM   21  O   UNL     1     -10.181  19.959  68.035  1.00  0.00    -0.422 OA 
HETATM   22  O   UNL     1      -9.509  18.914  65.846  1.00  0.00    -0.458 OA 
BRANCH  20  23
HETATM   23  N   UNL     1      -7.717  19.367  67.551  1.00  0.00    -0.252 N  
HETATM   24  H   UNL     1      -7.322  19.528  68.477  1.00  0.00     0.000 HD 
BRANCH  23  25
HETATM   25  C   UNL     1      -6.956  19.395  66.364  1.00  0.00    -0.218 A  
HETATM   26  N   UNL     1      -6.348  18.294  66.001  1.00  0.00    -0.215 NA 
HETATM   27  C   UNL     1      -5.675  18.524  64.816  1.00  0.00    -0.160 A  
HETATM   28  C   UNL     1      -5.871  19.768  64.253  1.00  0.00    -0.264 A  
HETATM   29  S   UNL     1      -6.874  20.710  65.280  1.00  0.00    -0.059 SA 
ENDBRANCH  23  25
ENDBRANCH  20  23
ENDBRANCH  17  20
ENDBRANCH  12  14
ENDBRANCH   9  10
TORSDOF 5
ENDMDL
MODEL       52
REMARK 921   NORMALIZED FREE ENERGY PREDICTED BY IDOCK:   -5.54 KCAL/MOL
REMARK 922        TOTAL FREE ENERGY PREDICTED BY IDOCK:   -8.13 KCAL/MOL
REMARK 923 INTER-LIGAND FREE ENERGY PREDICTED BY IDOCK:   -7.36 KCAL/MOL
REMARK 924 INTRA-LIGAND FREE ENERGY PREDICTED BY IDOCK:   -0.77 KCAL/MOL
REMARK 927      BINDING AFFINITY PREDICTED BY RF-SCORE:    0.00 PKD
ROOT
HETATM    1  O   UNL     1     -12.013  11.918  68.161  1.00  0.00    -0.496 OA 
HETATM    2  C   UNL     1     -11.763  13.067  68.808  1.00  0.00    -0.324 C  
HETATM    3  O   UNL     1     -11.032  13.921  68.325  1.00  0.00    -0.241 OA 
HETATM    4  C   UNL     1     -12.512  13.343  70.070  1.00  0.00    -0.202 A  
HETATM    5  C   UNL     1     -12.870  14.699  70.235  1.00  0.00    -0.254 A  
HETATM    6  C   UNL     1     -13.518  15.149  71.385  1.00  0.00    -0.561 A  
HETATM    7  C   UNL     1     -13.831  14.250  72.394  1.00  0.00    -0.619 A  
HETATM    8  C   UNL     1     -13.494  12.902  72.252  1.00  0.00    -0.631 A  
HETATM    9  C   UNL     1     -12.817  12.436  71.105  1.00  0.00    -0.299 A  
ENDROOT
BRANCH   9  10
HETATM   10  C   UNL     1     -12.527  10.981  71.019  1.00  0.00    -0.409 C  
HETATM   11  O   UNL     1     -13.478  10.218  71.141  1.00  0.00    -0.316 OA 
HETATM   12  N   UNL     1     -11.195  10.616  70.864  1.00  0.00    -0.290 N  
HETATM   13  H   UNL     1     -10.519  11.376  70.787  1.00  0.00     0.000 HD 
BRANCH  12  14
HETATM   14  C   UNL     1     -10.679   9.298  70.803  1.00  0.00    -0.284 A  
HETATM   15  C   UNL     1     -10.006   8.679  71.859  1.00  0.00    -0.392 A  
HETATM   16  C   UNL     1      -9.497   7.379  71.729  1.00  0.00    -0.166 A  
HETATM   17  C   UNL     1      -9.670   6.682  70.534  1.00  0.00    -0.176 A  
HETATM   18  C   UNL     1     -10.847   8.583  69.607  1.00  0.00    -0.157 A  
HETATM   19  C   UNL     1     -10.337   7.283  69.464  1.00  0.00    -0.230 A  
BRANCH  17  20
HETATM   20  S   UNL     1      -8.922   5.071  70.335  1.00  0.00    -0.127 S  
HETATM   21  O   UNL     1      -7.684   5.240  69.601  1.00  0.00    -0.070 OA 
HETATM   22  O   UNL     1      -9.962   4.196  69.838  1.00  0.00    -0.209 OA 
BRANCH  20  23
HETATM   23  N   UNL     1      -8.598   4.568  71.917  1.00  0.00    -0.111 N  
HETATM   24  H   UNL     1      -7.761   4.839  72.434  1.00  0.00     0.000 HD 
BRANCH  23  25
HETATM   25  C   UNL     1      -9.605   3.735  72.448  1.00  0.00    -0.139 A  
HETATM   26  N   UNL     1      -9.460   2.441  72.318  1.00  0.00    -0.094 NA 
HETATM   27  C   UNL     1     -10.535   1.808  72.913  1.00  0.00    -0.141 A  
HETATM   28  C   UNL     1     -11.422   2.634  73.569  1.00  0.00    -0.133 A  
HETATM   29  S   UNL     1     -10.934   4.269  73.374  1.00  0.00    -0.285 SA 
ENDBRANCH  23  25
ENDBRANCH  20  23
ENDBRANCH  17  20
ENDBRANCH  12  14
ENDBRANCH   9  10
TORSDOF 5
ENDMDL
MODEL       53
REMARK 921   NORMALIZED FREE ENERGY PREDICTED BY IDOCK:   -5.53 KCAL/MOL
REMARK 922        TOTAL FREE ENERGY PREDICTED BY IDOCK:   -8.11 KCAL/MOL
REMARK 923 INTER-LIGAND FREE ENERGY PREDICTED BY IDOCK:   -7.11 KCAL/MOL
REMARK 924 INTRA-LIGAND FREE ENERGY PREDICTED BY IDOCK:   -1.00 KCAL/MOL
REMARK 927      BINDING AFFINITY PREDICTED BY RF-SCORE:    0.00 PKD
ROOT
HETATM    1  O   UNL     1     -10.253  18.447  68.806  1.00  0.00    -0.379 OA 
HETATM    2  C   UNL     1      -9.858  19.489  68.060  1.00  0.00    -0.398 C  
HETATM    3  O   UNL     1     -10.453  20.558  68.098  1.00  0.00    -0.182 OA 
HETATM    4  C   UNL     1      -8.587  19.362  67.287  1.00  0.00    -0.329 A  
HETATM    5  C   UNL     1      -7.827  20.552  67.241  1.00  0.00    -0.367 A  
HETATM    6  C   UNL     1      -6.642  20.634  66.510  1.00  0.00    -0.317 A  
HETATM    7  C   UNL     1      -6.185  19.524  65.816  1.00  0.00    -0.217 A  
HETATM    8  C   UNL     1      -6.914  18.333  65.851  1.00  0.00    -0.312 A  
HETATM    9  C   UNL     1      -8.127  18.242  66.566  1.00  0.00    -0.293 A  
ENDROOT
BRANCH   9  10
HETATM   10  C   UNL     1      -8.823  16.929  66.579  1.00  0.00    -0.271 C  
HETATM   11  O   UNL     1      -9.556  16.680  65.629  1.00  0.00    -0.519 OA 
HETATM   12  N   UNL     1      -8.625  16.126  67.696  1.00  0.00    -0.171 N  
HETATM   13  H   UNL     1      -7.988  16.483  68.408  1.00  0.00     0.000 HD 
BRANCH  12  14
HETATM   14  C   UNL     1      -9.215  14.863  67.948  1.00  0.00    -0.183 A  
HETATM   15  C   UNL     1     -10.428  14.694  68.619  1.00  0.00    -0.244 A  
HETATM   16  C   UNL     1     -10.950  13.415  68.858  1.00  0.00    -0.284 A  
HETATM   17  C   UNL     1     -10.258  12.288  68.413  1.00  0.00    -0.217 A  
HETATM   18  C   UNL     1      -8.531  13.720  67.504  1.00  0.00    -0.199 A  
HETATM   19  C   UNL     1      -9.042  12.435  67.742  1.00  0.00    -0.193 A  
BRANCH  17  20
HETATM   20  S   UNL     1     -10.869  10.658  68.820  1.00  0.00    -0.249 S  
HETATM   21  O   UNL     1     -10.201   9.703  67.959  1.00  0.00    -0.173 OA 
HETATM   22  O   UNL     1     -12.313  10.756  68.836  1.00  0.00    -0.433 OA 
BRANCH  20  23
HETATM   23  N   UNL     1     -10.393  10.428  70.427  1.00  0.00    -0.387 N  
HETATM   24  H   UNL     1     -10.759  10.975  71.206  1.00  0.00     0.000 HD 
BRANCH  23  25
HETATM   25  C   UNL     1      -9.439   9.400  70.577  1.00  0.00    -0.269 A  
HETATM   26  N   UNL     1      -9.877   8.178  70.741  1.00  0.00    -0.179 NA 
HETATM   27  C   UNL     1      -8.795   7.326  70.853  1.00  0.00    -0.149 A  
HETATM   28  C   UNL     1      -7.558   7.908  70.669  1.00  0.00    -0.077 A  
HETATM   29  S   UNL     1      -7.752   9.596  70.421  1.00  0.00    -0.124 SA 
ENDBRANCH  23  25
ENDBRANCH  20  23
ENDBRANCH  17  20
ENDBRANCH  12  14
ENDBRANCH   9  10
TORSDOF 5
ENDMDL
MODEL       54
REMARK 921   NORMALIZED FREE ENERGY PREDICTED BY IDOCK:   -5.53 KCAL/MOL
REMARK 922        TOTAL FREE ENERGY PREDICTED BY IDOCK:   -8.11 KCAL/MOL
REMARK 923 INTER-LIGAND FREE ENERGY PREDICTED BY IDOCK:   -7.07 KCAL/MOL
REMARK 924 INTRA-LIGAND FREE ENERGY PREDICTED BY IDOCK:   -1.04 KCAL/MOL
REMARK 927      BINDING AFFINITY PREDICTED BY RF-SCORE:    0.00 PKD
ROOT
HETATM    1  O   UNL     1     -12.146   8.645  70.965  1.00  0.00    -0.287 OA 
HETATM    2  C   UNL     1     -11.568   7.494  71.343  1.00  0.00    -0.275 C  
HETATM    3  O   UNL     1     -11.984   6.862  72.305  1.00  0.00    -0.272 OA 
HETATM    4  C   UNL     1     -10.495   6.925  70.474  1.00  0.00    -0.234 A  
HETATM    5  C   UNL     1     -10.520   5.515  70.388  1.00  0.00    -0.356 A  
HETATM    6  C   UNL     1      -9.553   4.810  69.672  1.00  0.00    -0.253 A  
HETATM    7  C   UNL     1      -8.544   5.500  69.018  1.00  0.00    -0.103 A  
HETATM    8  C   UNL     1      -8.501   6.895  69.082  1.00  0.00    -0.129 A  
HETATM    9  C   UNL     1      -9.458   7.621  69.822  1.00  0.00    -0.156 A  
ENDROOT
BRANCH   9  10
HETATM   10  C   UNL     1      -9.360   9.103  69.811  1.00  0.00    -0.182 C  
HETATM   11  O   UNL     1      -8.723   9.624  70.720  1.00  0.00    -0.214 OA 
HETATM   12  N   UNL     1     -10.046   9.769  68.802  1.00  0.00    -0.167 N  
HETATM   13  H   UNL     1     -10.538   9.188  68.124  1.00  0.00     0.000 HD 
BRANCH  12  14
HETATM   14  C   UNL     1     -10.133  11.171  68.618  1.00  0.00    -0.200 A  
HETATM   15  C   UNL     1      -9.196  11.920  67.902  1.00  0.00    -0.187 A  
HETATM   16  C   UNL     1      -9.326  13.309  67.775  1.00  0.00    -0.209 A  
HETATM   17  C   UNL     1     -10.410  13.962  68.361  1.00  0.00    -0.249 A  
HETATM   18  C   UNL     1     -11.221  11.842  69.201  1.00  0.00    -0.324 A  
HETATM   19  C   UNL     1     -11.358  13.234  69.084  1.00  0.00    -0.336 A  
BRANCH  17  20
HETATM   20  S   UNL     1     -10.510  15.746  68.292  1.00  0.00    -0.268 S  
HETATM   21  O   UNL     1      -9.477  16.285  69.154  1.00  0.00    -0.247 OA 
HETATM   22  O   UNL     1     -11.900  16.086  68.503  1.00  0.00    -0.343 OA 
BRANCH  20  23
HETATM   23  N   UNL     1     -10.173  16.116  66.676  1.00  0.00    -0.279 N  
HETATM   24  H   UNL     1     -10.407  15.500  65.897  1.00  0.00     0.000 HD 
BRANCH  23  25
HETATM   25  C   UNL     1      -9.536  17.364  66.517  1.00  0.00    -0.273 A  
HETATM   26  N   UNL     1      -8.266  17.367  66.203  1.00  0.00    -0.484 NA 
HETATM   27  C   UNL     1      -7.838  18.675  66.081  1.00  0.00    -0.218 A  
HETATM   28  C   UNL     1      -8.819  19.635  66.206  1.00  0.00    -0.371 A  
HETATM   29  S   UNL     1     -10.319  18.879  66.563  1.00  0.00    -0.452 SA 
ENDBRANCH  23  25
ENDBRANCH  20  23
ENDBRANCH  17  20
ENDBRANCH  12  14
ENDBRANCH   9  10
TORSDOF 5
ENDMDL
MODEL       55
REMARK 921   NORMALIZED FREE ENERGY PREDICTED BY IDOCK:   -5.51 KCAL/MOL
REMARK 922        TOTAL FREE ENERGY PREDICTED BY IDOCK:   -8.09 KCAL/MOL
REMARK 923 INTER-LIGAND FREE ENERGY PREDICTED BY IDOCK:   -7.28 KCAL/MOL
REMARK 924 INTRA-LIGAND FREE ENERGY PREDICTED BY IDOCK:   -0.81 KCAL/MOL
REMARK 927      BINDING AFFINITY PREDICTED BY RF-SCORE:    0.00 PKD
ROOT
HETATM    1  O   UNL     1     -10.465  13.554  68.277  1.00  0.00    -0.239 OA 
HETATM    2  C   UNL     1     -11.453  13.705  67.383  1.00  0.00    -0.336 C  
HETATM    3  O   UNL     1     -12.370  14.492  67.578  1.00  0.00    -0.240 OA 
HETATM    4  C   UNL     1     -11.337  12.993  66.076  1.00  0.00    -0.343 A  
HETATM    5  C   UNL     1     -11.824  13.736  64.978  1.00  0.00    -0.381 A  
HETATM    6  C   UNL     1     -11.852  13.203  63.690  1.00  0.00    -0.549 A  
HETATM    7  C   UNL     1     -11.385  11.916  63.469  1.00  0.00    -0.516 A  
HETATM    8  C   UNL     1     -10.891  11.163  64.537  1.00  0.00    -0.320 A  
HETATM    9  C   UNL     1     -10.879  11.680  65.849  1.00  0.00    -0.339 A  
ENDROOT
BRANCH   9  10
HETATM   10  C   UNL     1     -10.306  10.826  66.922  1.00  0.00    -0.241 C  
HETATM   11  O   UNL     1      -9.110  10.565  66.843  1.00  0.00    -0.146 OA 
HETATM   12  N   UNL     1     -11.188  10.353  67.886  1.00  0.00    -0.416 N  
HETATM   13  H   UNL     1     -12.159  10.656  67.805  1.00  0.00     0.000 HD 
BRANCH  12  14
HETATM   14  C   UNL     1     -10.880   9.494  68.969  1.00  0.00    -0.160 A  
HETATM   15  C   UNL     1     -10.408   8.189  68.814  1.00  0.00    -0.220 A  
HETATM   16  C   UNL     1     -10.142   7.379  69.927  1.00  0.00    -0.195 A  
HETATM   17  C   UNL     1     -10.341   7.880  71.214  1.00  0.00    -0.191 A  
HETATM   18  C   UNL     1     -11.072   9.985  70.270  1.00  0.00    -0.381 A  
HETATM   19  C   UNL     1     -10.815   9.181  71.392  1.00  0.00    -0.419 A  
BRANCH  17  20
HETATM   20  S   UNL     1     -10.109   6.807  72.625  1.00  0.00    -0.180 S  
HETATM   21  O   UNL     1     -10.665   7.471  73.787  1.00  0.00    -0.315 OA 
HETATM   22  O   UNL     1      -8.723   6.395  72.601  1.00  0.00    -0.126 OA 
BRANCH  20  23
HETATM   23  N   UNL     1     -11.018   5.430  72.250  1.00  0.00    -0.233 N  
HETATM   24  H   UNL     1     -11.855   5.450  71.667  1.00  0.00     0.000 HD 
BRANCH  23  25
HETATM   25  C   UNL     1     -10.499   4.253  72.827  1.00  0.00    -0.179 A  
HETATM   26  N   UNL     1     -10.693   4.062  74.107  1.00  0.00    -0.226 NA 
HETATM   27  C   UNL     1     -10.126   2.856  74.472  1.00  0.00    -0.145 A  
HETATM   28  C   UNL     1      -9.601   2.110  73.437  1.00  0.00    -0.079 A  
HETATM   29  S   UNL     1      -9.757   2.981  71.966  1.00  0.00    -0.166 SA 
ENDBRANCH  23  25
ENDBRANCH  20  23
ENDBRANCH  17  20
ENDBRANCH  12  14
ENDBRANCH   9  10
TORSDOF 5
ENDMDL
MODEL       56
REMARK 921   NORMALIZED FREE ENERGY PREDICTED BY IDOCK:   -5.49 KCAL/MOL
REMARK 922        TOTAL FREE ENERGY PREDICTED BY IDOCK:   -8.06 KCAL/MOL
REMARK 923 INTER-LIGAND FREE ENERGY PREDICTED BY IDOCK:   -7.59 KCAL/MOL
REMARK 924 INTRA-LIGAND FREE ENERGY PREDICTED BY IDOCK:   -0.47 KCAL/MOL
REMARK 927      BINDING AFFINITY PREDICTED BY RF-SCORE:    0.00 PKD
ROOT
HETATM    1  O   UNL     1     -11.926  14.407  67.752  1.00  0.00    -0.370 OA 
HETATM    2  C   UNL     1     -11.789  15.078  68.906  1.00  0.00    -0.307 C  
HETATM    3  O   UNL     1     -11.288  16.195  68.934  1.00  0.00    -0.341 OA 
HETATM    4  C   UNL     1     -12.395  14.494  70.139  1.00  0.00    -0.398 A  
HETATM    5  C   UNL     1     -12.952  15.455  71.011  1.00  0.00    -0.556 A  
HETATM    6  C   UNL     1     -13.503  15.094  72.240  1.00  0.00    -0.539 A  
HETATM    7  C   UNL     1     -13.517  13.761  72.621  1.00  0.00    -0.638 A  
HETATM    8  C   UNL     1     -12.979  12.789  71.774  1.00  0.00    -0.416 A  
HETATM    9  C   UNL     1     -12.396  13.142  70.538  1.00  0.00    -0.380 A  
ENDROOT
BRANCH   9  10
HETATM   10  C   UNL     1     -11.876  12.044  69.682  1.00  0.00    -0.333 C  
HETATM   11  O   UNL     1     -12.563  11.032  69.602  1.00  0.00    -0.238 OA 
HETATM   12  N   UNL     1     -10.633  12.242  69.096  1.00  0.00    -0.429 N  
HETATM   13  H   UNL     1     -10.183  13.141  69.269  1.00  0.00     0.000 HD 
BRANCH  12  14
HETATM   14  C   UNL     1      -9.923  11.324  68.282  1.00  0.00    -0.195 A  
HETATM   15  C   UNL     1     -10.176  11.137  66.921  1.00  0.00    -0.260 A  
HETATM   16  C   UNL     1      -9.454  10.195  66.175  1.00  0.00    -0.238 A  
HETATM   17  C   UNL     1      -8.459   9.436  66.790  1.00  0.00    -0.127 A  
HETATM   18  C   UNL     1      -8.917  10.554  68.887  1.00  0.00    -0.175 A  
HETATM   19  C   UNL     1      -8.192   9.605  68.150  1.00  0.00    -0.106 A  
BRANCH  17  20
HETATM   20  S   UNL     1      -7.621   8.159  65.861  1.00  0.00    -0.084 S  
HETATM   21  O   UNL     1      -6.569   7.616  66.697  1.00  0.00    -0.054 OA 
HETATM   22  O   UNL     1      -7.317   8.729  64.567  1.00  0.00    -0.097 OA 
BRANCH  20  23
HETATM   23  N   UNL     1      -8.815   6.991  65.595  1.00  0.00    -0.342 N  
HETATM   24  H   UNL     1      -9.045   6.621  64.673  1.00  0.00     0.000 HD 
BRANCH  23  25
HETATM   25  C   UNL     1      -9.459   6.580  66.781  1.00  0.00    -0.158 A  
HETATM   26  N   UNL     1      -8.779   5.846  67.624  1.00  0.00    -0.105 NA 
HETATM   27  C   UNL     1      -9.576   5.565  68.718  1.00  0.00    -0.135 A  
HETATM   28  C   UNL     1     -10.811   6.178  68.726  1.00  0.00    -0.336 A  
HETATM   29  S   UNL     1     -11.013   7.079  67.278  1.00  0.00    -0.234 SA 
ENDBRANCH  23  25
ENDBRANCH  20  23
ENDBRANCH  17  20
ENDBRANCH  12  14
ENDBRANCH   9  10
TORSDOF 5
ENDMDL
MODEL       57
REMARK 921   NORMALIZED FREE ENERGY PREDICTED BY IDOCK:   -5.47 KCAL/MOL
REMARK 922        TOTAL FREE ENERGY PREDICTED BY IDOCK:   -8.03 KCAL/MOL
REMARK 923 INTER-LIGAND FREE ENERGY PREDICTED BY IDOCK:   -7.97 KCAL/MOL
REMARK 924 INTRA-LIGAND FREE ENERGY PREDICTED BY IDOCK:   -0.05 KCAL/MOL
REMARK 927      BINDING AFFINITY PREDICTED BY RF-SCORE:    0.00 PKD
ROOT
HETATM    1  O   UNL     1     -12.150  13.893  66.032  1.00  0.00    -0.388 OA 
HETATM    2  C   UNL     1     -11.116  14.736  65.896  1.00  0.00    -0.340 C  
HETATM    3  O   UNL     1     -10.448  14.761  64.870  1.00  0.00    -0.412 OA 
HETATM    4  C   UNL     1     -10.883  15.747  66.970  1.00  0.00    -0.273 A  
HETATM    5  C   UNL     1     -10.445  17.000  66.487  1.00  0.00    -0.250 A  
HETATM    6  C   UNL     1     -10.119  18.043  67.353  1.00  0.00    -0.354 A  
HETATM    7  C   UNL     1     -10.231  17.859  68.723  1.00  0.00    -0.362 A  
HETATM    8  C   UNL     1     -10.669  16.632  69.226  1.00  0.00    -0.337 A  
HETATM    9  C   UNL     1     -10.979  15.560  68.363  1.00  0.00    -0.297 A  
ENDROOT
BRANCH   9  10
HETATM   10  C   UNL     1     -11.470  14.299  68.978  1.00  0.00    -0.284 C  
HETATM   11  O   UNL     1     -12.564  14.341  69.530  1.00  0.00    -0.226 OA 
HETATM   12  N   UNL     1     -10.619  13.202  68.921  1.00  0.00    -0.392 N  
HETATM   13  H   UNL     1      -9.735  13.333  68.431  1.00  0.00     0.000 HD 
BRANCH  12  14
HETATM   14  C   UNL     1     -10.853  11.918  69.475  1.00  0.00     0.050 A  
HETATM   15  C   UNL     1     -11.911  11.626  70.339  1.00  0.00    -0.385 A  
HETATM   16  C   UNL     1     -12.075  10.341  70.872  1.00  0.00    -0.468 A  
HETATM   17  C   UNL     1     -11.179   9.328  70.532  1.00  0.00    -0.265 A  
HETATM   18  C   UNL     1      -9.960  10.888  69.140  1.00  0.00    -0.181 A  
HETATM   19  C   UNL     1     -10.112   9.598  69.672  1.00  0.00    -0.242 A  
BRANCH  17  20
HETATM   20  S   UNL     1     -11.327   7.722  71.302  1.00  0.00    -0.269 S  
HETATM   21  O   UNL     1     -12.233   7.847  72.426  1.00  0.00    -0.306 OA 
HETATM   22  O   UNL     1      -9.978   7.233  71.491  1.00  0.00    -0.182 OA 
BRANCH  20  23
HETATM   23  N   UNL     1     -12.018   6.750  70.102  1.00  0.00    -0.639 N  
HETATM   24  H   UNL     1     -13.023   6.603  70.007  1.00  0.00     0.000 HD 
BRANCH  23  25
HETATM   25  C   UNL     1     -11.061   6.165  69.247  1.00  0.00    -0.393 A  
HETATM   26  N   UNL     1     -10.524   5.030  69.616  1.00  0.00    -0.202 NA 
HETATM   27  C   UNL     1      -9.632   4.620  68.644  1.00  0.00    -0.162 A  
HETATM   28  C   UNL     1      -9.586   5.404  67.510  1.00  0.00    -0.126 A  
HETATM   29  S   UNL     1     -10.644   6.743  67.698  1.00  0.00    -0.290 SA 
ENDBRANCH  23  25
ENDBRANCH  20  23
ENDBRANCH  17  20
ENDBRANCH  12  14
ENDBRANCH   9  10
TORSDOF 5
ENDMDL
MODEL       58
REMARK 921   NORMALIZED FREE ENERGY PREDICTED BY IDOCK:   -5.46 KCAL/MOL
REMARK 922        TOTAL FREE ENERGY PREDICTED BY IDOCK:   -8.02 KCAL/MOL
REMARK 923 INTER-LIGAND FREE ENERGY PREDICTED BY IDOCK:   -7.44 KCAL/MOL
REMARK 924 INTRA-LIGAND FREE ENERGY PREDICTED BY IDOCK:   -0.58 KCAL/MOL
REMARK 927      BINDING AFFINITY PREDICTED BY RF-SCORE:    0.00 PKD
ROOT
HETATM    1  O   UNL     1      -9.484  15.180  69.855  1.00  0.00    -0.130 OA 
HETATM    2  C   UNL     1     -10.295  15.893  69.059  1.00  0.00    -0.231 C  
HETATM    3  O   UNL     1     -10.847  16.909  69.462  1.00  0.00    -0.303 OA 
HETATM    4  C   UNL     1     -10.399  15.499  67.622  1.00  0.00    -0.269 A  
HETATM    5  C   UNL     1     -10.510  16.595  66.738  1.00  0.00    -0.261 A  
HETATM    6  C   UNL     1     -10.680  16.412  65.366  1.00  0.00    -0.310 A  
HETATM    7  C   UNL     1     -10.734  15.127  64.846  1.00  0.00    -0.421 A  
HETATM    8  C   UNL     1     -10.619  14.026  65.698  1.00  0.00    -0.313 A  
HETATM    9  C   UNL     1     -10.472  14.196  67.091  1.00  0.00    -0.270 A  
ENDROOT
BRANCH   9  10
HETATM   10  C   UNL     1     -10.323  12.973  67.922  1.00  0.00    -0.231 C  
HETATM   11  O   UNL     1      -9.182  12.566  68.110  1.00  0.00    -0.200 OA 
HETATM   12  N   UNL     1     -11.493  12.370  68.365  1.00  0.00    -0.285 N  
HETATM   13  H   UNL     1     -12.368  12.831  68.115  1.00  0.00     0.000 HD 
BRANCH  12  14
HETATM   14  C   UNL     1     -11.599  11.180  69.127  1.00  0.00    -0.324 A  
HETATM   15  C   UNL     1     -10.945   9.989  68.801  1.00  0.00    -0.242 A  
HETATM   16  C   UNL     1     -11.108   8.838  69.584  1.00  0.00    -0.038 A  
HETATM   17  C   UNL     1     -11.926   8.875  70.713  1.00  0.00    -0.148 A  
HETATM   18  C   UNL     1     -12.417  11.203  70.268  1.00  0.00    -0.354 A  
HETATM   19  C   UNL     1     -12.591  10.055  71.056  1.00  0.00    -0.463 A  
BRANCH  17  20
HETATM   20  S   UNL     1     -12.219   7.376  71.641  1.00  0.00    -0.345 S  
HETATM   21  O   UNL     1     -11.458   6.310  71.021  1.00  0.00    -0.319 OA 
HETATM   22  O   UNL     1     -13.653   7.266  71.798  1.00  0.00    -0.356 OA 
BRANCH  20  23
HETATM   23  N   UNL     1     -11.600   7.715  73.179  1.00  0.00    -0.598 N  
HETATM   24  H   UNL     1     -12.133   8.189  73.908  1.00  0.00     0.000 HD 
BRANCH  23  25
HETATM   25  C   UNL     1     -10.271   7.273  73.348  1.00  0.00    -0.347 A  
HETATM   26  N   UNL     1     -10.076   6.158  74.004  1.00  0.00    -0.243 NA 
HETATM   27  C   UNL     1      -8.720   5.894  74.047  1.00  0.00    -0.119 A  
HETATM   28  C   UNL     1      -7.923   6.764  73.333  1.00  0.00    -0.098 A  
HETATM   29  S   UNL     1      -8.897   8.000  72.645  1.00  0.00    -0.225 SA 
ENDBRANCH  23  25
ENDBRANCH  20  23
ENDBRANCH  17  20
ENDBRANCH  12  14
ENDBRANCH   9  10
TORSDOF 5
ENDMDL
MODEL       59
REMARK 921   NORMALIZED FREE ENERGY PREDICTED BY IDOCK:   -5.44 KCAL/MOL
REMARK 922        TOTAL FREE ENERGY PREDICTED BY IDOCK:   -7.99 KCAL/MOL
REMARK 923 INTER-LIGAND FREE ENERGY PREDICTED BY IDOCK:   -7.16 KCAL/MOL
REMARK 924 INTRA-LIGAND FREE ENERGY PREDICTED BY IDOCK:   -0.84 KCAL/MOL
REMARK 927      BINDING AFFINITY PREDICTED BY RF-SCORE:    0.00 PKD
ROOT
HETATM    1  O   UNL     1      -9.918  13.848  68.570  1.00  0.00    -0.226 OA 
HETATM    2  C   UNL     1     -10.857  14.520  67.888  1.00  0.00    -0.256 C  
HETATM    3  O   UNL     1     -11.224  15.633  68.242  1.00  0.00    -0.320 OA 
HETATM    4  C   UNL     1     -11.344  13.941  66.600  1.00  0.00    -0.342 A  
HETATM    5  C   UNL     1     -11.605  14.908  65.604  1.00  0.00    -0.245 A  
HETATM    6  C   UNL     1     -12.126  14.553  64.360  1.00  0.00    -0.492 A  
HETATM    7  C   UNL     1     -12.389  13.221  64.081  1.00  0.00    -0.408 A  
HETATM    8  C   UNL     1     -12.133  12.244  65.046  1.00  0.00    -0.392 A  
HETATM    9  C   UNL     1     -11.629  12.591  66.318  1.00  0.00    -0.449 A  
ENDROOT
BRANCH   9  10
HETATM   10  C   UNL     1     -11.353  11.488  67.275  1.00  0.00    -0.290 C  
HETATM   11  O   UNL     1     -12.266  11.165  68.027  1.00  0.00    -0.584 OA 
HETATM   12  N   UNL     1     -10.068  10.961  67.269  1.00  0.00    -0.185 N  
HETATM   13  H   UNL     1      -9.418  11.347  66.584  1.00  0.00     0.000 HD 
BRANCH  12  14
HETATM   14  C   UNL     1      -9.565   9.942  68.117  1.00  0.00    -0.139 A  
HETATM   15  C   UNL     1      -9.343   8.627  67.702  1.00  0.00    -0.157 A  
HETATM   16  C   UNL     1      -8.865   7.658  68.595  1.00  0.00    -0.127 A  
HETATM   17  C   UNL     1      -8.595   8.007  69.918  1.00  0.00    -0.135 A  
HETATM   18  C   UNL     1      -9.286  10.279  69.451  1.00  0.00    -0.206 A  
HETATM   19  C   UNL     1      -8.812   9.315  70.355  1.00  0.00    -0.271 A  
BRANCH  17  20
HETATM   20  S   UNL     1      -8.094   6.743  71.079  1.00  0.00    -0.115 S  
HETATM   21  O   UNL     1      -7.752   7.394  72.329  1.00  0.00    -0.088 OA 
HETATM   22  O   UNL     1      -7.130   5.914  70.390  1.00  0.00    -0.065 OA 
BRANCH  20  23
HETATM   23  N   UNL     1      -9.479   5.793  71.278  1.00  0.00    -0.153 N  
HETATM   24  H   UNL     1      -9.480   4.776  71.197  1.00  0.00     0.000 HD 
BRANCH  23  25
HETATM   25  C   UNL     1     -10.632   6.552  71.567  1.00  0.00    -0.229 A  
HETATM   26  N   UNL     1     -11.669   6.415  70.780  1.00  0.00    -0.357 NA 
HETATM   27  C   UNL     1     -12.690   7.225  71.239  1.00  0.00    -0.359 A  
HETATM   28  C   UNL     1     -12.439   7.883  72.424  1.00  0.00    -0.167 A  
HETATM   29  S   UNL     1     -10.840   7.534  72.946  1.00  0.00    -0.397 SA 
ENDBRANCH  23  25
ENDBRANCH  20  23
ENDBRANCH  17  20
ENDBRANCH  12  14
ENDBRANCH   9  10
TORSDOF 5
ENDMDL
MODEL       60
REMARK 921   NORMALIZED FREE ENERGY PREDICTED BY IDOCK:   -5.44 KCAL/MOL
REMARK 922        TOTAL FREE ENERGY PREDICTED BY IDOCK:   -7.99 KCAL/MOL
REMARK 923 INTER-LIGAND FREE ENERGY PREDICTED BY IDOCK:   -7.04 KCAL/MOL
REMARK 924 INTRA-LIGAND FREE ENERGY PREDICTED BY IDOCK:   -0.95 KCAL/MOL
REMARK 927      BINDING AFFINITY PREDICTED BY RF-SCORE:    0.00 PKD
ROOT
HETATM    1  O   UNL     1     -11.241  12.152  67.451  1.00  0.00    -0.264 OA 
HETATM    2  C   UNL     1     -11.559  12.099  66.149  1.00  0.00    -0.354 C  
HETATM    3  O   UNL     1     -12.521  12.713  65.705  1.00  0.00    -0.607 OA 
HETATM    4  C   UNL     1     -10.628  11.389  65.223  1.00  0.00    -0.336 A  
HETATM    5  C   UNL     1     -10.503  12.004  63.957  1.00  0.00    -0.410 A  
HETATM    6  C   UNL     1      -9.724  11.443  62.946  1.00  0.00    -0.344 A  
HETATM    7  C   UNL     1      -9.046  10.257  63.179  1.00  0.00    -0.287 A  
HETATM    8  C   UNL     1      -9.147   9.631  64.425  1.00  0.00    -0.279 A  
HETATM    9  C   UNL     1      -9.950  10.174  65.449  1.00  0.00    -0.377 A  
ENDROOT
BRANCH   9  10
HETATM   10  C   UNL     1      -9.976   9.464  66.755  1.00  0.00    -0.239 C  
HETATM   11  O   UNL     1     -10.736   8.506  66.849  1.00  0.00    -0.265 OA 
HETATM   12  N   UNL     1      -9.180   9.984  67.767  1.00  0.00    -0.134 N  
HETATM   13  H   UNL     1      -8.610  10.796  67.529  1.00  0.00     0.000 HD 
BRANCH  12  14
HETATM   14  C   UNL     1      -9.078   9.505  69.097  1.00  0.00    -0.152 A  
HETATM   15  C   UNL     1      -7.966   8.819  69.591  1.00  0.00    -0.096 A  
HETATM   16  C   UNL     1      -7.935   8.349  70.911  1.00  0.00    -0.112 A  
HETATM   17  C   UNL     1      -9.023   8.575  71.755  1.00  0.00    -0.220 A  
HETATM   18  C   UNL     1     -10.164   9.727  69.959  1.00  0.00    -0.308 A  
HETATM   19  C   UNL     1     -10.146   9.257  71.281  1.00  0.00    -0.361 A  
BRANCH  17  20
HETATM   20  S   UNL     1      -9.024   7.877  73.401  1.00  0.00    -0.282 S  
HETATM   21  O   UNL     1     -10.403   7.714  73.816  1.00  0.00    -0.277 OA 
HETATM   22  O   UNL     1      -8.106   8.675  74.184  1.00  0.00    -0.373 OA 
BRANCH  20  23
HETATM   23  N   UNL     1      -8.291   6.365  73.208  1.00  0.00    -0.118 N  
HETATM   24  H   UNL     1      -7.299   6.242  73.004  1.00  0.00     0.000 HD 
BRANCH  23  25
HETATM   25  C   UNL     1      -9.194   5.291  73.358  1.00  0.00    -0.131 A  
HETATM   26  N   UNL     1      -9.397   4.827  74.564  1.00  0.00    -0.120 NA 
HETATM   27  C   UNL     1     -10.317   3.797  74.499  1.00  0.00    -0.213 A  
HETATM   28  C   UNL     1     -10.867   3.571  73.255  1.00  0.00    -0.189 A  
HETATM   29  S   UNL     1     -10.154   4.634  72.111  1.00  0.00    -0.195 SA 
ENDBRANCH  23  25
ENDBRANCH  20  23
ENDBRANCH  17  20
ENDBRANCH  12  14
ENDBRANCH   9  10
TORSDOF 5
ENDMDL
MODEL       61
REMARK 921   NORMALIZED FREE ENERGY PREDICTED BY IDOCK:   -5.43 KCAL/MOL
REMARK 922        TOTAL FREE ENERGY PREDICTED BY IDOCK:   -7.98 KCAL/MOL
REMARK 923 INTER-LIGAND FREE ENERGY PREDICTED BY IDOCK:   -7.29 KCAL/MOL
REMARK 924 INTRA-LIGAND FREE ENERGY PREDICTED BY IDOCK:   -0.69 KCAL/MOL
REMARK 927      BINDING AFFINITY PREDICTED BY RF-SCORE:    0.00 PKD
ROOT
HETATM    1  O   UNL     1     -10.144  12.964  68.182  1.00  0.00    -0.227 OA 
HETATM    2  C   UNL     1     -11.287  13.350  67.595  1.00  0.00    -0.290 C  
HETATM    3  O   UNL     1     -12.140  13.972  68.214  1.00  0.00    -0.355 OA 
HETATM    4  C   UNL     1     -11.435  13.128  66.125  1.00  0.00    -0.366 A  
HETATM    5  C   UNL     1     -12.120  14.167  65.458  1.00  0.00    -0.421 A  
HETATM    6  C   UNL     1     -12.404  14.098  64.095  1.00  0.00    -0.372 A  
HETATM    7  C   UNL     1     -12.002  12.989  63.365  1.00  0.00    -0.592 A  
HETATM    8  C   UNL     1     -11.316  11.950  64.000  1.00  0.00    -0.475 A  
HETATM    9  C   UNL     1     -11.043  11.995  65.383  1.00  0.00    -0.369 A  
ENDROOT
BRANCH   9  10
HETATM   10  C   UNL     1     -10.280  10.865  65.973  1.00  0.00    -0.254 C  
HETATM   11  O   UNL     1      -9.176  10.631  65.493  1.00  0.00    -0.178 OA 
HETATM   12  N   UNL     1     -10.911  10.139  66.976  1.00  0.00    -0.199 N  
HETATM   13  H   UNL     1     -11.838  10.457  67.257  1.00  0.00     0.000 HD 
BRANCH  12  14
HETATM   14  C   UNL     1     -10.400   9.001  67.648  1.00  0.00    -0.257 A  
HETATM   15  C   UNL     1     -10.776   7.689  67.350  1.00  0.00    -0.318 A  
HETATM   16  C   UNL     1     -10.251   6.606  68.068  1.00  0.00    -0.193 A  
HETATM   17  C   UNL     1      -9.331   6.831  69.092  1.00  0.00    -0.135 A  
HETATM   18  C   UNL     1      -9.471   9.212  68.680  1.00  0.00    -0.145 A  
HETATM   19  C   UNL     1      -8.943   8.135  69.409  1.00  0.00    -0.147 A  
BRANCH  17  20
HETATM   20  S   UNL     1      -8.752   5.457  70.077  1.00  0.00    -0.124 S  
HETATM   21  O   UNL     1      -7.644   5.923  70.887  1.00  0.00    -0.091 OA 
HETATM   22  O   UNL     1      -8.587   4.343  69.168  1.00  0.00    -0.081 OA 
BRANCH  20  23
HETATM   23  N   UNL     1     -10.072   5.071  71.063  1.00  0.00    -0.220 N  
HETATM   24  H   UNL     1     -10.337   4.115  71.299  1.00  0.00     0.000 HD 
BRANCH  23  25
HETATM   25  C   UNL     1     -10.768   6.208  71.523  1.00  0.00    -0.252 A  
HETATM   26  N   UNL     1     -11.958   6.438  71.031  1.00  0.00    -0.283 NA 
HETATM   27  C   UNL     1     -12.472   7.579  71.617  1.00  0.00    -0.342 A  
HETATM   28  C   UNL     1     -11.700   8.134  72.615  1.00  0.00    -0.355 A  
HETATM   29  S   UNL     1     -10.244   7.239  72.777  1.00  0.00    -0.250 SA 
ENDBRANCH  23  25
ENDBRANCH  20  23
ENDBRANCH  17  20
ENDBRANCH  12  14
ENDBRANCH   9  10
TORSDOF 5
ENDMDL
MODEL       62
REMARK 921   NORMALIZED FREE ENERGY PREDICTED BY IDOCK:   -5.41 KCAL/MOL
REMARK 922        TOTAL FREE ENERGY PREDICTED BY IDOCK:   -7.96 KCAL/MOL
REMARK 923 INTER-LIGAND FREE ENERGY PREDICTED BY IDOCK:   -7.04 KCAL/MOL
REMARK 924 INTRA-LIGAND FREE ENERGY PREDICTED BY IDOCK:   -0.91 KCAL/MOL
REMARK 927      BINDING AFFINITY PREDICTED BY RF-SCORE:    0.00 PKD
ROOT
HETATM    1  O   UNL     1     -10.761  17.983  68.070  1.00  0.00    -0.376 OA 
HETATM    2  C   UNL     1     -10.320  18.926  67.223  1.00  0.00    -0.418 C  
HETATM    3  O   UNL     1     -10.986  19.925  66.984  1.00  0.00    -0.376 OA 
HETATM    4  C   UNL     1      -8.932  18.800  66.687  1.00  0.00    -0.315 A  
HETATM    5  C   UNL     1      -8.260  20.035  66.551  1.00  0.00    -0.347 A  
HETATM    6  C   UNL     1      -6.979  20.113  66.006  1.00  0.00    -0.291 A  
HETATM    7  C   UNL     1      -6.337  18.956  65.592  1.00  0.00    -0.291 A  
HETATM    8  C   UNL     1      -6.977  17.721  65.722  1.00  0.00    -0.199 A  
HETATM    9  C   UNL     1      -8.283  17.629  66.248  1.00  0.00    -0.264 A  
ENDROOT
BRANCH   9  10
HETATM   10  C   UNL     1      -8.878  16.274  66.383  1.00  0.00    -0.311 C  
HETATM   11  O   UNL     1      -9.476  15.832  65.409  1.00  0.00    -0.321 OA 
HETATM   12  N   UNL     1      -8.752  15.655  67.621  1.00  0.00    -0.172 N  
HETATM   13  H   UNL     1      -8.230  16.162  68.335  1.00  0.00     0.000 HD 
BRANCH  12  14
HETATM   14  C   UNL     1      -9.274  14.392  67.994  1.00  0.00    -0.193 A  
HETATM   15  C   UNL     1      -8.555  13.197  67.903  1.00  0.00    -0.185 A  
HETATM   16  C   UNL     1      -9.136  11.975  68.266  1.00  0.00    -0.190 A  
HETATM   17  C   UNL     1     -10.449  11.942  68.737  1.00  0.00    -0.184 A  
HETATM   18  C   UNL     1     -10.594  14.343  68.471  1.00  0.00    -0.256 A  
HETATM   19  C   UNL     1     -11.187  13.123  68.833  1.00  0.00    -0.324 A  
BRANCH  17  20
HETATM   20  S   UNL     1     -11.221  10.369  69.091  1.00  0.00    -0.233 S  
HETATM   21  O   UNL     1     -12.641  10.597  69.267  1.00  0.00    -0.270 OA 
HETATM   22  O   UNL     1     -10.436   9.755  70.140  1.00  0.00    -0.247 OA 
BRANCH  20  23
HETATM   23  N   UNL     1     -10.947   9.451  67.697  1.00  0.00    -0.475 N  
HETATM   24  H   UNL     1     -11.331   9.688  66.782  1.00  0.00     0.000 HD 
BRANCH  23  25
HETATM   25  C   UNL     1     -10.132   8.323  67.930  1.00  0.00    -0.202 A  
HETATM   26  N   UNL     1      -8.842   8.453  67.751  1.00  0.00    -0.137 NA 
HETATM   27  C   UNL     1      -8.226   7.251  68.044  1.00  0.00    -0.120 A  
HETATM   28  C   UNL     1      -9.053   6.264  68.536  1.00  0.00    -0.125 A  
HETATM   29  S   UNL     1     -10.672   6.835  68.564  1.00  0.00    -0.222 SA 
ENDBRANCH  23  25
ENDBRANCH  20  23
ENDBRANCH  17  20
ENDBRANCH  12  14
ENDBRANCH   9  10
TORSDOF 5
ENDMDL
MODEL       63
REMARK 921   NORMALIZED FREE ENERGY PREDICTED BY IDOCK:   -5.41 KCAL/MOL
REMARK 922        TOTAL FREE ENERGY PREDICTED BY IDOCK:   -7.95 KCAL/MOL
REMARK 923 INTER-LIGAND FREE ENERGY PREDICTED BY IDOCK:   -7.32 KCAL/MOL
REMARK 924 INTRA-LIGAND FREE ENERGY PREDICTED BY IDOCK:   -0.63 KCAL/MOL
REMARK 927      BINDING AFFINITY PREDICTED BY RF-SCORE:    0.00 PKD
ROOT
HETATM    1  O   UNL     1     -12.056  13.604  67.735  1.00  0.00    -0.358 OA 
HETATM    2  C   UNL     1     -11.797  14.471  68.726  1.00  0.00    -0.315 C  
HETATM    3  O   UNL     1     -11.178  15.506  68.518  1.00  0.00    -0.295 OA 
HETATM    4  C   UNL     1     -12.407  14.214  70.065  1.00  0.00    -0.403 A  
HETATM    5  C   UNL     1     -12.818  15.386  70.738  1.00  0.00    -0.524 A  
HETATM    6  C   UNL     1     -13.351  15.340  72.026  1.00  0.00    -0.522 A  
HETATM    7  C   UNL     1     -13.491  14.119  72.668  1.00  0.00    -0.634 A  
HETATM    8  C   UNL     1     -13.098  12.944  72.022  1.00  0.00    -0.483 A  
HETATM    9  C   UNL     1     -12.535  12.977  70.729  1.00  0.00    -0.384 A  
ENDROOT
BRANCH   9  10
HETATM   10  C   UNL     1     -12.175  11.680  70.100  1.00  0.00    -0.288 C  
HETATM   11  O   UNL     1     -12.963  10.752  70.253  1.00  0.00    -0.257 OA 
HETATM   12  N   UNL     1     -10.952  11.619  69.444  1.00  0.00    -0.409 N  
HETATM   13  H   UNL     1     -10.407  12.481  69.413  1.00  0.00     0.000 HD 
BRANCH  12  14
HETATM   14  C   UNL     1     -10.383  10.485  68.814  1.00  0.00    -0.191 A  
HETATM   15  C   UNL     1     -10.814   9.983  67.584  1.00  0.00    -0.336 A  
HETATM   16  C   UNL     1     -10.225   8.842  67.022  1.00  0.00    -0.351 A  
HETATM   17  C   UNL     1      -9.184   8.197  67.691  1.00  0.00    -0.137 A  
HETATM   18  C   UNL     1      -9.333   9.827  69.473  1.00  0.00    -0.226 A  
HETATM   19  C   UNL     1      -8.739   8.681  68.923  1.00  0.00    -0.131 A  
BRANCH  17  20
HETATM   20  S   UNL     1      -8.514   6.679  67.026  1.00  0.00    -0.114 S  
HETATM   21  O   UNL     1      -9.152   5.571  67.710  1.00  0.00    -0.109 OA 
HETATM   22  O   UNL     1      -7.075   6.827  67.040  1.00  0.00    -0.068 OA 
BRANCH  20  23
HETATM   23  N   UNL     1      -8.976   6.702  65.398  1.00  0.00    -0.365 N  
HETATM   24  H   UNL     1      -9.888   6.387  65.068  1.00  0.00     0.000 HD 
BRANCH  23  25
HETATM   25  C   UNL     1      -7.969   7.200  64.546  1.00  0.00    -0.104 A  
HETATM   26  N   UNL     1      -7.278   6.337  63.846  1.00  0.00    -0.057 NA 
HETATM   27  C   UNL     1      -6.360   7.021  63.071  1.00  0.00    -0.044 A  
HETATM   28  C   UNL     1      -6.444   8.397  63.126  1.00  0.00    -0.086 A  
HETATM   29  S   UNL     1      -7.666   8.851  64.244  1.00  0.00    -0.129 SA 
ENDBRANCH  23  25
ENDBRANCH  20  23
ENDBRANCH  17  20
ENDBRANCH  12  14
ENDBRANCH   9  10
TORSDOF 5
ENDMDL
MODEL       64
REMARK 921   NORMALIZED FREE ENERGY PREDICTED BY IDOCK:   -5.40 KCAL/MOL
REMARK 922        TOTAL FREE ENERGY PREDICTED BY IDOCK:   -7.94 KCAL/MOL
REMARK 923 INTER-LIGAND FREE ENERGY PREDICTED BY IDOCK:   -7.17 KCAL/MOL
REMARK 924 INTRA-LIGAND FREE ENERGY PREDICTED BY IDOCK:   -0.76 KCAL/MOL
REMARK 927      BINDING AFFINITY PREDICTED BY RF-SCORE:    0.00 PKD
ROOT
HETATM    1  O   UNL     1     -12.641  12.483  65.358  1.00  0.00    -0.656 OA 
HETATM    2  C   UNL     1     -12.160  13.503  64.630  1.00  0.00    -0.409 C  
HETATM    3  O   UNL     1     -12.653  13.798  63.549  1.00  0.00    -0.814 OA 
HETATM    4  C   UNL     1     -11.100  14.363  65.235  1.00  0.00    -0.344 A  
HETATM    5  C   UNL     1     -11.222  15.732  64.907  1.00  0.00    -0.358 A  
HETATM    6  C   UNL     1     -10.284  16.671  65.333  1.00  0.00    -0.138 A  
HETATM    7  C   UNL     1      -9.205  16.264  66.103  1.00  0.00    -0.376 A  
HETATM    8  C   UNL     1      -9.065  14.917  66.447  1.00  0.00    -0.293 A  
HETATM    9  C   UNL     1      -9.994  13.952  66.004  1.00  0.00    -0.325 A  
ENDROOT
BRANCH   9  10
HETATM   10  C   UNL     1      -9.790  12.546  66.442  1.00  0.00    -0.253 C  
HETATM   11  O   UNL     1      -8.944  11.895  65.839  1.00  0.00    -0.138 OA 
HETATM   12  N   UNL     1     -10.615  12.081  67.458  1.00  0.00    -0.217 N  
HETATM   13  H   UNL     1     -11.277  12.749  67.852  1.00  0.00     0.000 HD 
BRANCH  12  14
HETATM   14  C   UNL     1     -10.633  10.773  68.004  1.00  0.00    -0.207 A  
HETATM   15  C   UNL     1     -10.500  10.500  69.367  1.00  0.00    -0.264 A  
HETATM   16  C   UNL     1     -10.503   9.182  69.844  1.00  0.00    -0.239 A  
HETATM   17  C   UNL     1     -10.651   8.121  68.951  1.00  0.00    -0.140 A  
HETATM   18  C   UNL     1     -10.783   9.695  67.117  1.00  0.00    -0.258 A  
HETATM   19  C   UNL     1     -10.782   8.371  67.583  1.00  0.00    -0.191 A  
BRANCH  17  20
HETATM   20  S   UNL     1     -10.540   6.440  69.550  1.00  0.00    -0.286 S  
HETATM   21  O   UNL     1     -11.627   6.226  70.484  1.00  0.00    -0.363 OA 
HETATM   22  O   UNL     1      -9.166   6.242  69.957  1.00  0.00    -0.150 OA 
BRANCH  20  23
HETATM   23  N   UNL     1     -10.765   5.493  68.167  1.00  0.00    -0.144 N  
HETATM   24  H   UNL     1     -11.670   5.365  67.714  1.00  0.00     0.000 HD 
BRANCH  23  25
HETATM   25  C   UNL     1      -9.572   4.899  67.705  1.00  0.00    -0.151 A  
HETATM   26  N   UNL     1      -9.304   3.680  68.098  1.00  0.00    -0.176 NA 
HETATM   27  C   UNL     1      -8.111   3.278  67.528  1.00  0.00    -0.081 A  
HETATM   28  C   UNL     1      -7.551   4.167  66.634  1.00  0.00    -0.089 A  
HETATM   29  S   UNL     1      -8.513   5.587  66.559  1.00  0.00    -0.115 SA 
ENDBRANCH  23  25
ENDBRANCH  20  23
ENDBRANCH  17  20
ENDBRANCH  12  14
ENDBRANCH   9  10
TORSDOF 5
ENDMDL
MODEL       65
REMARK 921   NORMALIZED FREE ENERGY PREDICTED BY IDOCK:   -5.39 KCAL/MOL
REMARK 922        TOTAL FREE ENERGY PREDICTED BY IDOCK:   -7.93 KCAL/MOL
REMARK 923 INTER-LIGAND FREE ENERGY PREDICTED BY IDOCK:   -6.99 KCAL/MOL
REMARK 924 INTRA-LIGAND FREE ENERGY PREDICTED BY IDOCK:   -0.94 KCAL/MOL
REMARK 927      BINDING AFFINITY PREDICTED BY RF-SCORE:    0.00 PKD
ROOT
HETATM    1  O   UNL     1     -12.181   7.290  71.037  1.00  0.00    -0.328 OA 
HETATM    2  C   UNL     1     -11.672   6.318  71.809  1.00  0.00    -0.299 C  
HETATM    3  O   UNL     1     -12.374   5.701  72.599  1.00  0.00    -0.106 OA 
HETATM    4  C   UNL     1     -10.255   5.905  71.580  1.00  0.00    -0.254 A  
HETATM    5  C   UNL     1     -10.035   4.517  71.728  1.00  0.00    -0.264 A  
HETATM    6  C   UNL     1      -8.761   3.963  71.613  1.00  0.00    -0.129 A  
HETATM    7  C   UNL     1      -7.677   4.784  71.338  1.00  0.00    -0.090 A  
HETATM    8  C   UNL     1      -7.869   6.159  71.179  1.00  0.00    -0.111 A  
HETATM    9  C   UNL     1      -9.148   6.737  71.317  1.00  0.00    -0.150 A  
ENDROOT
BRANCH   9  10
HETATM   10  C   UNL     1      -9.270   8.202  71.100  1.00  0.00    -0.154 C  
HETATM   11  O   UNL     1      -8.998   8.928  72.050  1.00  0.00    -0.365 OA 
HETATM   12  N   UNL     1      -9.737   8.615  69.858  1.00  0.00    -0.171 N  
HETATM   13  H   UNL     1      -9.929   7.882  69.175  1.00  0.00     0.000 HD 
BRANCH  12  14
HETATM   14  C   UNL     1      -9.975   9.948  69.441  1.00  0.00    -0.212 A  
HETATM   15  C   UNL     1      -9.034  10.730  68.768  1.00  0.00    -0.171 A  
HETATM   16  C   UNL     1      -9.321  12.052  68.403  1.00  0.00    -0.175 A  
HETATM   17  C   UNL     1     -10.568  12.600  68.702  1.00  0.00    -0.222 A  
HETATM   18  C   UNL     1     -11.227  10.513  69.734  1.00  0.00    -0.361 A  
HETATM   19  C   UNL     1     -11.523  11.837  69.377  1.00  0.00    -0.371 A  
BRANCH  17  20
HETATM   20  S   UNL     1     -10.888  14.320  68.335  1.00  0.00    -0.261 S  
HETATM   21  O   UNL     1      -9.831  14.796  67.465  1.00  0.00    -0.217 OA 
HETATM   22  O   UNL     1     -11.150  14.967  69.602  1.00  0.00    -0.257 OA 
BRANCH  20  23
HETATM   23  N   UNL     1     -12.361  14.297  67.503  1.00  0.00    -0.587 N  
HETATM   24  H   UNL     1     -13.259  14.503  67.942  1.00  0.00     0.000 HD 
BRANCH  23  25
HETATM   25  C   UNL     1     -12.220  13.964  66.140  1.00  0.00    -0.464 A  
HETATM   26  N   UNL     1     -12.279  14.934  65.264  1.00  0.00    -0.143 NA 
HETATM   27  C   UNL     1     -12.104  14.407  63.998  1.00  0.00    -0.280 A  
HETATM   28  C   UNL     1     -11.815  13.059  63.952  1.00  0.00    -0.477 A  
HETATM   29  S   UNL     1     -11.835  12.413  65.543  1.00  0.00    -0.372 SA 
ENDBRANCH  23  25
ENDBRANCH  20  23
ENDBRANCH  17  20
ENDBRANCH  12  14
ENDBRANCH   9  10
TORSDOF 5
ENDMDL
MODEL       66
REMARK 921   NORMALIZED FREE ENERGY PREDICTED BY IDOCK:   -5.39 KCAL/MOL
REMARK 922        TOTAL FREE ENERGY PREDICTED BY IDOCK:   -7.93 KCAL/MOL
REMARK 923 INTER-LIGAND FREE ENERGY PREDICTED BY IDOCK:   -7.09 KCAL/MOL
REMARK 924 INTRA-LIGAND FREE ENERGY PREDICTED BY IDOCK:   -0.84 KCAL/MOL
REMARK 927      BINDING AFFINITY PREDICTED BY RF-SCORE:    0.00 PKD
ROOT
HETATM    1  O   UNL     1     -12.813  14.311  70.317  1.00  0.00    -0.315 OA 
HETATM    2  C   UNL     1     -12.554  13.130  70.898  1.00  0.00    -0.295 C  
HETATM    3  O   UNL     1     -12.920  12.892  72.042  1.00  0.00    -0.335 OA 
HETATM    4  C   UNL     1     -11.935  12.055  70.067  1.00  0.00    -0.400 A  
HETATM    5  C   UNL     1     -12.417  10.760  70.360  1.00  0.00    -0.430 A  
HETATM    6  C   UNL     1     -11.904   9.629  69.725  1.00  0.00     0.141 A  
HETATM    7  C   UNL     1     -10.903   9.769  68.776  1.00  0.00    -0.219 A  
HETATM    8  C   UNL     1     -10.414  11.040  68.462  1.00  0.00    -0.210 A  
HETATM    9  C   UNL     1     -10.906  12.190  69.114  1.00  0.00    -0.165 A  
ENDROOT
BRANCH   9  10
HETATM   10  C   UNL     1     -10.356  13.506  68.698  1.00  0.00    -0.214 C  
HETATM   11  O   UNL     1      -9.212  13.767  69.054  1.00  0.00     0.054 OA 
HETATM   12  N   UNL     1     -11.207  14.347  67.992  1.00  0.00    -0.268 N  
HETATM   13  H   UNL     1     -12.137  13.984  67.781  1.00  0.00     0.000 HD 
BRANCH  12  14
HETATM   14  C   UNL     1     -10.919  15.656  67.534  1.00  0.00    -0.309 A  
HETATM   15  C   UNL     1     -10.560  15.957  66.218  1.00  0.00    -0.301 A  
HETATM   16  C   UNL     1     -10.264  17.271  65.831  1.00  0.00    -0.273 A  
HETATM   17  C   UNL     1     -10.336  18.303  66.766  1.00  0.00    -0.384 A  
HETATM   18  C   UNL     1     -10.990  16.706  68.463  1.00  0.00    -0.339 A  
HETATM   19  C   UNL     1     -10.691  18.025  68.088  1.00  0.00    -0.267 A  
BRANCH  17  20
HETATM   20  S   UNL     1      -9.849  19.957  66.295  1.00  0.00    -0.464 S  
HETATM   21  O   UNL     1      -9.973  20.809  67.462  1.00  0.00    -0.408 OA 
HETATM   22  O   UNL     1     -10.566  20.263  65.077  1.00  0.00    -0.002 OA 
BRANCH  20  23
HETATM   23  N   UNL     1      -8.222  19.800  65.860  1.00  0.00    -0.336 N  
HETATM   24  H   UNL     1      -7.902  19.738  64.893  1.00  0.00     0.000 HD 
BRANCH  23  25
HETATM   25  C   UNL     1      -7.354  19.763  66.971  1.00  0.00    -0.223 A  
HETATM   26  N   UNL     1      -6.970  20.903  67.486  1.00  0.00    -0.355 NA 
HETATM   27  C   UNL     1      -6.144  20.652  68.564  1.00  0.00    -0.337 A  
HETATM   28  C   UNL     1      -6.001  19.323  68.907  1.00  0.00    -0.228 A  
HETATM   29  S   UNL     1      -6.872  18.348  67.794  1.00  0.00    -0.210 SA 
ENDBRANCH  23  25
ENDBRANCH  20  23
ENDBRANCH  17  20
ENDBRANCH  12  14
ENDBRANCH   9  10
TORSDOF 5
ENDMDL
MODEL       67
REMARK 921   NORMALIZED FREE ENERGY PREDICTED BY IDOCK:   -5.38 KCAL/MOL
REMARK 922        TOTAL FREE ENERGY PREDICTED BY IDOCK:   -7.92 KCAL/MOL
REMARK 923 INTER-LIGAND FREE ENERGY PREDICTED BY IDOCK:   -7.04 KCAL/MOL
REMARK 924 INTRA-LIGAND FREE ENERGY PREDICTED BY IDOCK:   -0.88 KCAL/MOL
REMARK 927      BINDING AFFINITY PREDICTED BY RF-SCORE:    0.00 PKD
ROOT
HETATM    1  O   UNL     1     -11.286   6.600  70.180  1.00  0.00    -0.327 OA 
HETATM    2  C   UNL     1     -10.495   5.603  69.758  1.00  0.00    -0.306 C  
HETATM    3  O   UNL     1     -10.284   4.621  70.457  1.00  0.00    -0.223 OA 
HETATM    4  C   UNL     1      -9.990   5.650  68.353  1.00  0.00    -0.201 A  
HETATM    5  C   UNL     1      -9.927   4.384  67.728  1.00  0.00    -0.098 A  
HETATM    6  C   UNL     1      -9.420   4.231  66.438  1.00  0.00    -0.191 A  
HETATM    7  C   UNL     1      -8.971   5.342  65.740  1.00  0.00    -0.161 A  
HETATM    8  C   UNL     1      -9.029   6.606  66.333  1.00  0.00    -0.161 A  
HETATM    9  C   UNL     1      -9.516   6.773  67.647  1.00  0.00    -0.126 A  
ENDROOT
BRANCH   9  10
HETATM   10  C   UNL     1      -9.575   8.155  68.190  1.00  0.00    -0.149 C  
HETATM   11  O   UNL     1      -8.566   8.575  68.746  1.00  0.00    -0.129 OA 
HETATM   12  N   UNL     1     -10.786   8.825  68.069  1.00  0.00    -0.476 N  
HETATM   13  H   UNL     1     -11.536   8.331  67.586  1.00  0.00     0.000 HD 
BRANCH  12  14
HETATM   14  C   UNL     1     -11.088  10.124  68.549  1.00  0.00    -0.214 A  
HETATM   15  C   UNL     1     -11.529  10.388  69.848  1.00  0.00    -0.368 A  
HETATM   16  C   UNL     1     -11.834  11.693  70.256  1.00  0.00    -0.414 A  
HETATM   17  C   UNL     1     -11.689  12.753  69.361  1.00  0.00    -0.319 A  
HETATM   18  C   UNL     1     -10.945  11.201  67.660  1.00  0.00    -0.323 A  
HETATM   19  C   UNL     1     -11.253  12.511  68.056  1.00  0.00    -0.316 A  
BRANCH  17  20
HETATM   20  S   UNL     1     -12.187  14.398  69.851  1.00  0.00    -0.328 S  
HETATM   21  O   UNL     1     -13.243  14.271  70.835  1.00  0.00    -0.342 OA 
HETATM   22  O   UNL     1     -12.402  15.141  68.628  1.00  0.00    -0.091 OA 
BRANCH  20  23
HETATM   23  N   UNL     1     -10.801  15.054  70.565  1.00  0.00    -0.497 N  
HETATM   24  H   UNL     1     -10.563  14.930  71.550  1.00  0.00     0.000 HD 
BRANCH  23  25
HETATM   25  C   UNL     1     -10.008  15.789  69.659  1.00  0.00    -0.284 A  
HETATM   26  N   UNL     1     -10.330  17.038  69.438  1.00  0.00    -0.275 NA 
HETATM   27  C   UNL     1      -9.430  17.580  68.540  1.00  0.00    -0.296 A  
HETATM   28  C   UNL     1      -8.384  16.758  68.177  1.00  0.00    -0.201 A  
HETATM   29  S   UNL     1      -8.574  15.225  68.928  1.00  0.00    -0.222 SA 
ENDBRANCH  23  25
ENDBRANCH  20  23
ENDBRANCH  17  20
ENDBRANCH  12  14
ENDBRANCH   9  10
TORSDOF 5
ENDMDL
MODEL       68
REMARK 921   NORMALIZED FREE ENERGY PREDICTED BY IDOCK:   -5.36 KCAL/MOL
REMARK 922        TOTAL FREE ENERGY PREDICTED BY IDOCK:   -7.89 KCAL/MOL
REMARK 923 INTER-LIGAND FREE ENERGY PREDICTED BY IDOCK:   -7.05 KCAL/MOL
REMARK 924 INTRA-LIGAND FREE ENERGY PREDICTED BY IDOCK:   -0.85 KCAL/MOL
REMARK 927      BINDING AFFINITY PREDICTED BY RF-SCORE:    0.00 PKD
ROOT
HETATM    1  O   UNL     1      -8.433  11.095  65.365  1.00  0.00    -0.096 OA 
HETATM    2  C   UNL     1      -9.429  10.215  65.546  1.00  0.00    -0.230 C  
HETATM    3  O   UNL     1      -9.929   9.619  64.600  1.00  0.00    -0.054 OA 
HETATM    4  C   UNL     1      -9.820   9.869  66.945  1.00  0.00    -0.252 A  
HETATM    5  C   UNL     1     -10.172   8.512  67.119  1.00  0.00    -0.355 A  
HETATM    6  C   UNL     1     -10.623   8.026  68.346  1.00  0.00    -0.150 A  
HETATM    7  C   UNL     1     -10.726   8.885  69.429  1.00  0.00    -0.192 A  
HETATM    8  C   UNL     1     -10.378  10.231  69.285  1.00  0.00    -0.250 A  
HETATM    9  C   UNL     1      -9.943  10.742  68.044  1.00  0.00    -0.183 A  
ENDROOT
BRANCH   9  10
HETATM   10  C   UNL     1      -9.561  12.177  67.985  1.00  0.00    -0.204 C  
HETATM   11  O   UNL     1      -8.530  12.500  68.565  1.00  0.00    -0.146 OA 
HETATM   12  N   UNL     1     -10.436  13.032  67.327  1.00  0.00    -0.238 N  
HETATM   13  H   UNL     1     -11.260  12.605  66.903  1.00  0.00     0.000 HD 
BRANCH  12  14
HETATM   14  C   UNL     1     -10.304  14.435  67.184  1.00  0.00    -0.262 A  
HETATM   15  C   UNL     1      -9.599  15.046  66.144  1.00  0.00    -0.345 A  
HETATM   16  C   UNL     1      -9.484  16.441  66.070  1.00  0.00    -0.345 A  
HETATM   17  C   UNL     1     -10.089  17.240  67.041  1.00  0.00    -0.303 A  
HETATM   18  C   UNL     1     -10.909  15.253  68.152  1.00  0.00    -0.273 A  
HETATM   19  C   UNL     1     -10.796  16.650  68.091  1.00  0.00    -0.348 A  
BRANCH  17  20
HETATM   20  S   UNL     1      -9.844  19.011  67.005  1.00  0.00    -0.343 S  
HETATM   21  O   UNL     1     -11.144  19.639  66.874  1.00  0.00    -0.396 OA 
HETATM   22  O   UNL     1      -8.802  19.259  66.033  1.00  0.00    -0.432 OA 
BRANCH  20  23
HETATM   23  N   UNL     1      -9.175  19.366  68.517  1.00  0.00    -0.364 N  
HETATM   24  H   UNL     1      -9.721  19.711  69.307  1.00  0.00     0.000 HD 
BRANCH  23  25
HETATM   25  C   UNL     1      -7.785  19.136  68.573  1.00  0.00    -0.341 A  
HETATM   26  N   UNL     1      -6.993  20.177  68.592  1.00  0.00    -0.274 NA 
HETATM   27  C   UNL     1      -5.683  19.743  68.662  1.00  0.00    -0.220 A  
HETATM   28  C   UNL     1      -5.515  18.380  68.796  1.00  0.00    -0.186 A  
HETATM   29  S   UNL     1      -7.049  17.608  68.759  1.00  0.00    -0.264 SA 
ENDBRANCH  23  25
ENDBRANCH  20  23
ENDBRANCH  17  20
ENDBRANCH  12  14
ENDBRANCH   9  10
TORSDOF 5
ENDMDL
MODEL       69
REMARK 921   NORMALIZED FREE ENERGY PREDICTED BY IDOCK:   -5.35 KCAL/MOL
REMARK 922        TOTAL FREE ENERGY PREDICTED BY IDOCK:   -7.88 KCAL/MOL
REMARK 923 INTER-LIGAND FREE ENERGY PREDICTED BY IDOCK:   -6.99 KCAL/MOL
REMARK 924 INTRA-LIGAND FREE ENERGY PREDICTED BY IDOCK:   -0.89 KCAL/MOL
REMARK 927      BINDING AFFINITY PREDICTED BY RF-SCORE:    0.00 PKD
ROOT
HETATM    1  O   UNL     1     -12.445   7.484  70.833  1.00  0.00    -0.244 OA 
HETATM    2  C   UNL     1     -11.835   6.541  71.568  1.00  0.00    -0.333 C  
HETATM    3  O   UNL     1     -12.450   5.892  72.403  1.00  0.00    -0.152 OA 
HETATM    4  C   UNL     1     -10.418   6.201  71.243  1.00  0.00    -0.274 A  
HETATM    5  C   UNL     1     -10.117   4.827  71.376  1.00  0.00    -0.259 A  
HETATM    6  C   UNL     1      -8.827   4.339  71.174  1.00  0.00    -0.151 A  
HETATM    7  C   UNL     1      -7.808   5.214  70.826  1.00  0.00    -0.088 A  
HETATM    8  C   UNL     1      -8.080   6.576  70.682  1.00  0.00    -0.113 A  
HETATM    9  C   UNL     1      -9.376   7.088  70.907  1.00  0.00    -0.157 A  
ENDROOT
BRANCH   9  10
HETATM   10  C   UNL     1      -9.587   8.544  70.699  1.00  0.00    -0.173 C  
HETATM   11  O   UNL     1      -9.250   9.289  71.612  1.00  0.00    -0.313 OA 
HETATM   12  N   UNL     1     -10.201   8.925  69.512  1.00  0.00    -0.199 N  
HETATM   13  H   UNL     1     -10.429   8.179  68.855  1.00  0.00     0.000 HD 
BRANCH  12  14
HETATM   14  C   UNL     1     -10.542  10.243  69.118  1.00  0.00    -0.230 A  
HETATM   15  C   UNL     1     -11.550  10.997  69.724  1.00  0.00    -0.401 A  
HETATM   16  C   UNL     1     -11.856  12.288  69.274  1.00  0.00    -0.363 A  
HETATM   17  C   UNL     1     -11.142  12.841  68.211  1.00  0.00    -0.257 A  
HETATM   18  C   UNL     1      -9.830  10.813  68.051  1.00  0.00    -0.180 A  
HETATM   19  C   UNL     1     -10.133  12.103  67.589  1.00  0.00    -0.205 A  
BRANCH  17  20
HETATM   20  S   UNL     1     -11.612  14.441  67.568  1.00  0.00    -0.388 S  
HETATM   21  O   UNL     1     -12.015  15.272  68.687  1.00  0.00    -0.320 OA 
HETATM   22  O   UNL     1     -12.520  14.190  66.470  1.00  0.00    -0.447 OA 
BRANCH  20  23
HETATM   23  N   UNL     1     -10.190  15.043  66.878  1.00  0.00    -0.255 N  
HETATM   24  H   UNL     1      -9.574  14.488  66.284  1.00  0.00     0.000 HD 
BRANCH  23  25
HETATM   25  C   UNL     1      -9.944  16.392  67.209  1.00  0.00    -0.258 A  
HETATM   26  N   UNL     1     -10.500  17.315  66.466  1.00  0.00    -0.297 NA 
HETATM   27  C   UNL     1     -10.151  18.558  66.960  1.00  0.00    -0.360 A  
HETATM   28  C   UNL     1      -9.420  18.548  68.129  1.00  0.00    -0.317 A  
HETATM   29  S   UNL     1      -9.093  16.926  68.587  1.00  0.00    -0.260 SA 
ENDBRANCH  23  25
ENDBRANCH  20  23
ENDBRANCH  17  20
ENDBRANCH  12  14
ENDBRANCH   9  10
TORSDOF 5
ENDMDL
MODEL       70
REMARK 921   NORMALIZED FREE ENERGY PREDICTED BY IDOCK:   -5.35 KCAL/MOL
REMARK 922        TOTAL FREE ENERGY PREDICTED BY IDOCK:   -7.87 KCAL/MOL
REMARK 923 INTER-LIGAND FREE ENERGY PREDICTED BY IDOCK:   -7.00 KCAL/MOL
REMARK 924 INTRA-LIGAND FREE ENERGY PREDICTED BY IDOCK:   -0.88 KCAL/MOL
REMARK 927      BINDING AFFINITY PREDICTED BY RF-SCORE:    0.00 PKD
ROOT
HETATM    1  O   UNL     1     -10.235  13.051  68.411  1.00  0.00    -0.242 OA 
HETATM    2  C   UNL     1     -11.048  13.163  67.350  1.00  0.00    -0.275 C  
HETATM    3  O   UNL     1     -11.955  13.985  67.330  1.00  0.00    -0.390 OA 
HETATM    4  C   UNL     1     -10.734  12.359  66.131  1.00  0.00    -0.292 A  
HETATM    5  C   UNL     1     -10.997  13.035  64.919  1.00  0.00    -0.329 A  
HETATM    6  C   UNL     1     -10.822  12.413  63.684  1.00  0.00    -0.509 A  
HETATM    7  C   UNL     1     -10.371  11.103  63.632  1.00  0.00    -0.449 A  
HETATM    8  C   UNL     1     -10.097  10.414  64.816  1.00  0.00    -0.387 A  
HETATM    9  C   UNL     1     -10.292  11.022  66.074  1.00  0.00    -0.311 A  
ENDROOT
BRANCH   9  10
HETATM   10  C   UNL     1      -9.945  10.231  67.283  1.00  0.00    -0.190 C  
HETATM   11  O   UNL     1      -8.768   9.912  67.418  1.00  0.00    -0.128 OA 
HETATM   12  N   UNL     1     -10.993   9.876  68.123  1.00  0.00    -0.427 N  
HETATM   13  H   UNL     1     -11.920  10.214  67.865  1.00  0.00     0.000 HD 
BRANCH  12  14
HETATM   14  C   UNL     1     -10.909   9.093  69.301  1.00  0.00    -0.132 A  
HETATM   15  C   UNL     1     -10.971   9.623  70.591  1.00  0.00    -0.386 A  
HETATM   16  C   UNL     1     -10.859   8.797  71.718  1.00  0.00    -0.416 A  
HETATM   17  C   UNL     1     -10.691   7.422  71.557  1.00  0.00    -0.222 A  
HETATM   18  C   UNL     1     -10.742   7.706  69.155  1.00  0.00    -0.153 A  
HETATM   19  C   UNL     1     -10.623   6.871  70.276  1.00  0.00    -0.246 A  
BRANCH  17  20
HETATM   20  S   UNL     1     -10.435   6.389  72.994  1.00  0.00    -0.246 S  
HETATM   21  O   UNL     1     -11.610   5.557  73.162  1.00  0.00    -0.239 OA 
HETATM   22  O   UNL     1      -9.993   7.268  74.055  1.00  0.00    -0.300 OA 
BRANCH  20  23
HETATM   23  N   UNL     1      -9.099   5.435  72.584  1.00  0.00    -0.135 N  
HETATM   24  H   UNL     1      -8.177   5.818  72.374  1.00  0.00     0.000 HD 
BRANCH  23  25
HETATM   25  C   UNL     1      -9.393   4.056  72.563  1.00  0.00    -0.120 A  
HETATM   26  N   UNL     1      -9.653   3.504  71.405  1.00  0.00    -0.159 NA 
HETATM   27  C   UNL     1      -9.898   2.157  71.596  1.00  0.00    -0.147 A  
HETATM   28  C   UNL     1      -9.717   1.698  72.884  1.00  0.00    -0.084 A  
HETATM   29  S   UNL     1      -9.299   3.011  73.908  1.00  0.00    -0.084 SA 
ENDBRANCH  23  25
ENDBRANCH  20  23
ENDBRANCH  17  20
ENDBRANCH  12  14
ENDBRANCH   9  10
TORSDOF 5
ENDMDL
MODEL       71
REMARK 921   NORMALIZED FREE ENERGY PREDICTED BY IDOCK:   -5.34 KCAL/MOL
REMARK 922        TOTAL FREE ENERGY PREDICTED BY IDOCK:   -7.86 KCAL/MOL
REMARK 923 INTER-LIGAND FREE ENERGY PREDICTED BY IDOCK:   -7.18 KCAL/MOL
REMARK 924 INTRA-LIGAND FREE ENERGY PREDICTED BY IDOCK:   -0.69 KCAL/MOL
REMARK 927      BINDING AFFINITY PREDICTED BY RF-SCORE:    0.00 PKD
ROOT
HETATM    1  O   UNL     1      -9.888  13.959  68.073  1.00  0.00    -0.220 OA 
HETATM    2  C   UNL     1     -10.958  14.390  67.388  1.00  0.00    -0.299 C  
HETATM    3  O   UNL     1     -11.597  15.367  67.758  1.00  0.00    -0.322 OA 
HETATM    4  C   UNL     1     -11.271  13.736  66.082  1.00  0.00    -0.301 A  
HETATM    5  C   UNL     1     -11.756  14.628  65.101  1.00  0.00    -0.364 A  
HETATM    6  C   UNL     1     -12.158  14.181  63.842  1.00  0.00    -0.301 A  
HETATM    7  C   UNL     1     -12.076  12.832  63.534  1.00  0.00    -0.642 A  
HETATM    8  C   UNL     1     -11.592  11.930  64.485  1.00  0.00    -0.344 A  
HETATM    9  C   UNL     1     -11.205  12.364  65.771  1.00  0.00    -0.370 A  
ENDROOT
BRANCH   9  10
HETATM   10  C   UNL     1     -10.671  11.344  66.711  1.00  0.00    -0.271 C  
HETATM   11  O   UNL     1      -9.619  10.798  66.397  1.00  0.00    -0.180 OA 
HETATM   12  N   UNL     1     -11.441  11.061  67.832  1.00  0.00    -0.303 N  
HETATM   13  H   UNL     1     -12.300  11.600  67.945  1.00  0.00     0.000 HD 
BRANCH  12  14
HETATM   14  C   UNL     1     -11.157  10.102  68.836  1.00  0.00    -0.207 A  
HETATM   15  C   UNL     1     -10.738   8.797  68.566  1.00  0.00    -0.108 A  
HETATM   16  C   UNL     1     -10.495   7.887  69.603  1.00  0.00    -0.226 A  
HETATM   17  C   UNL     1     -10.662   8.284  70.930  1.00  0.00    -0.218 A  
HETATM   18  C   UNL     1     -11.318  10.489  70.176  1.00  0.00    -0.400 A  
HETATM   19  C   UNL     1     -11.082   9.584  71.222  1.00  0.00    -0.449 A  
BRANCH  17  20
HETATM   20  S   UNL     1     -10.460   7.088  72.242  1.00  0.00    -0.214 S  
HETATM   21  O   UNL     1     -11.580   6.170  72.187  1.00  0.00    -0.299 OA 
HETATM   22  O   UNL     1     -10.183   7.844  73.444  1.00  0.00    -0.321 OA 
BRANCH  20  23
HETATM   23  N   UNL     1      -9.026   6.281  71.849  1.00  0.00    -0.140 N  
HETATM   24  H   UNL     1      -8.116   6.740  71.806  1.00  0.00     0.000 HD 
BRANCH  23  25
HETATM   25  C   UNL     1      -9.219   4.909  71.588  1.00  0.00    -0.142 A  
HETATM   26  N   UNL     1      -9.288   4.528  70.338  1.00  0.00    -0.132 NA 
HETATM   27  C   UNL     1      -9.463   3.158  70.296  1.00  0.00    -0.154 A  
HETATM   28  C   UNL     1      -9.421   2.516  71.516  1.00  0.00    -0.141 A  
HETATM   29  S   UNL     1      -9.230   3.677  72.767  1.00  0.00    -0.108 SA 
ENDBRANCH  23  25
ENDBRANCH  20  23
ENDBRANCH  17  20
ENDBRANCH  12  14
ENDBRANCH   9  10
TORSDOF 5
ENDMDL
MODEL       72
REMARK 921   NORMALIZED FREE ENERGY PREDICTED BY IDOCK:   -5.30 KCAL/MOL
REMARK 922        TOTAL FREE ENERGY PREDICTED BY IDOCK:   -7.82 KCAL/MOL
REMARK 923 INTER-LIGAND FREE ENERGY PREDICTED BY IDOCK:   -7.24 KCAL/MOL
REMARK 924 INTRA-LIGAND FREE ENERGY PREDICTED BY IDOCK:   -0.58 KCAL/MOL
REMARK 927      BINDING AFFINITY PREDICTED BY RF-SCORE:    0.00 PKD
ROOT
HETATM    1  O   UNL     1     -11.693  14.212  67.798  1.00  0.00    -0.332 OA 
HETATM    2  C   UNL     1     -11.511  14.888  68.942  1.00  0.00    -0.299 C  
HETATM    3  O   UNL     1     -10.858  15.923  68.970  1.00  0.00    -0.233 OA 
HETATM    4  C   UNL     1     -12.243  14.426  70.159  1.00  0.00    -0.401 A  
HETATM    5  C   UNL     1     -12.695  15.479  70.986  1.00  0.00    -0.526 A  
HETATM    6  C   UNL     1     -13.342  15.231  72.196  1.00  0.00    -0.519 A  
HETATM    7  C   UNL     1     -13.560  13.924  72.603  1.00  0.00    -0.626 A  
HETATM    8  C   UNL     1     -13.130  12.864  71.800  1.00  0.00    -0.458 A  
HETATM    9  C   UNL     1     -12.452  13.099  70.585  1.00  0.00    -0.363 A  
ENDROOT
BRANCH   9  10
HETATM   10  C   UNL     1     -12.058  11.917  69.776  1.00  0.00    -0.252 C  
HETATM   11  O   UNL     1     -12.884  11.017  69.670  1.00  0.00    -0.168 OA 
HETATM   12  N   UNL     1     -10.768  11.914  69.258  1.00  0.00    -0.438 N  
HETATM   13  H   UNL     1     -10.199  12.739  69.444  1.00  0.00     0.000 HD 
BRANCH  12  14
HETATM   14  C   UNL     1     -10.162  10.882  68.499  1.00  0.00    -0.185 A  
HETATM   15  C   UNL     1     -10.565  10.528  67.210  1.00  0.00    -0.317 A  
HETATM   16  C   UNL     1      -9.939   9.481  66.519  1.00  0.00    -0.329 A  
HETATM   17  C   UNL     1      -8.890   8.783  67.117  1.00  0.00    -0.127 A  
HETATM   18  C   UNL     1      -9.103  10.172  69.088  1.00  0.00    -0.189 A  
HETATM   19  C   UNL     1      -8.473   9.119  68.407  1.00  0.00    -0.128 A  
BRANCH  17  20
HETATM   20  S   UNL     1      -8.172   7.378  66.277  1.00  0.00    -0.133 S  
HETATM   21  O   UNL     1      -7.241   6.741  67.188  1.00  0.00    -0.080 OA 
HETATM   22  O   UNL     1      -7.732   7.856  64.985  1.00  0.00    -0.092 OA 
BRANCH  20  23
HETATM   23  N   UNL     1      -9.488   6.357  65.981  1.00  0.00    -0.365 N  
HETATM   24  H   UNL     1     -10.460   6.651  66.075  1.00  0.00     0.000 HD 
BRANCH  23  25
HETATM   25  C   UNL     1      -9.101   5.058  65.591  1.00  0.00    -0.156 A  
HETATM   26  N   UNL     1      -9.224   4.094  66.467  1.00  0.00    -0.144 NA 
HETATM   27  C   UNL     1      -8.810   2.909  65.889  1.00  0.00    -0.141 A  
HETATM   28  C   UNL     1      -8.477   2.983  64.553  1.00  0.00    -0.094 A  
HETATM   29  S   UNL     1      -8.616   4.609  64.018  1.00  0.00    -0.137 SA 
ENDBRANCH  23  25
ENDBRANCH  20  23
ENDBRANCH  17  20
ENDBRANCH  12  14
ENDBRANCH   9  10
TORSDOF 5
ENDMDL
MODEL       73
REMARK 921   NORMALIZED FREE ENERGY PREDICTED BY IDOCK:   -5.28 KCAL/MOL
REMARK 922        TOTAL FREE ENERGY PREDICTED BY IDOCK:   -7.79 KCAL/MOL
REMARK 923 INTER-LIGAND FREE ENERGY PREDICTED BY IDOCK:   -7.01 KCAL/MOL
REMARK 924 INTRA-LIGAND FREE ENERGY PREDICTED BY IDOCK:   -0.78 KCAL/MOL
REMARK 927      BINDING AFFINITY PREDICTED BY RF-SCORE:    0.00 PKD
ROOT
HETATM    1  O   UNL     1      -7.563   9.521  70.718  1.00  0.00    -0.217 OA 
HETATM    2  C   UNL     1      -7.709   8.248  70.321  1.00  0.00    -0.084 C  
HETATM    3  O   UNL     1      -6.755   7.598  69.912  1.00  0.00    -0.044 OA 
HETATM    4  C   UNL     1      -9.036   7.594  70.523  1.00  0.00    -0.151 A  
HETATM    5  C   UNL     1      -8.949   6.232  70.889  1.00  0.00    -0.147 A  
HETATM    6  C   UNL     1     -10.090   5.447  71.056  1.00  0.00    -0.281 A  
HETATM    7  C   UNL     1     -11.344   6.009  70.870  1.00  0.00    -0.299 A  
HETATM    8  C   UNL     1     -11.457   7.355  70.514  1.00  0.00    -0.281 A  
HETATM    9  C   UNL     1     -10.312   8.155  70.317  1.00  0.00    -0.209 A  
ENDROOT
BRANCH   9  10
HETATM   10  C   UNL     1     -10.521   9.586  69.973  1.00  0.00    -0.247 C  
HETATM   11  O   UNL     1     -11.099  10.277  70.805  1.00  0.00    -0.326 OA 
HETATM   12  N   UNL     1     -10.093   9.998  68.717  1.00  0.00    -0.176 N  
HETATM   13  H   UNL     1      -9.636   9.295  68.137  1.00  0.00     0.000 HD 
BRANCH  12  14
HETATM   14  C   UNL     1     -10.227  11.293  68.158  1.00  0.00    -0.180 A  
HETATM   15  C   UNL     1     -11.251  11.657  67.281  1.00  0.00    -0.365 A  
HETATM   16  C   UNL     1     -11.316  12.949  66.742  1.00  0.00    -0.367 A  
HETATM   17  C   UNL     1     -10.353  13.896  67.091  1.00  0.00    -0.265 A  
HETATM   18  C   UNL     1      -9.266  12.257  68.501  1.00  0.00    -0.089 A  
HETATM   19  C   UNL     1      -9.318  13.553  67.964  1.00  0.00    -0.213 A  
BRANCH  17  20
HETATM   20  S   UNL     1     -10.375  15.507  66.315  1.00  0.00    -0.317 S  
HETATM   21  O   UNL     1     -11.275  15.443  65.180  1.00  0.00    -0.369 OA 
HETATM   22  O   UNL     1      -8.993  15.896  66.141  1.00  0.00    -0.317 OA 
BRANCH  20  23
HETATM   23  N   UNL     1     -11.009  16.529  67.504  1.00  0.00    -0.229 N  
HETATM   24  H   UNL     1     -11.779  16.267  68.120  1.00  0.00     0.000 HD 
BRANCH  23  25
HETATM   25  C   UNL     1     -10.362  17.782  67.556  1.00  0.00    -0.369 A  
HETATM   26  N   UNL     1      -9.540  18.005  68.550  1.00  0.00    -0.323 NA 
HETATM   27  C   UNL     1      -9.003  19.271  68.412  1.00  0.00    -0.352 A  
HETATM   28  C   UNL     1      -9.353  19.941  67.259  1.00  0.00    -0.356 A  
HETATM   29  S   UNL     1     -10.452  18.985  66.351  1.00  0.00    -0.437 SA 
ENDBRANCH  23  25
ENDBRANCH  20  23
ENDBRANCH  17  20
ENDBRANCH  12  14
ENDBRANCH   9  10
TORSDOF 5
ENDMDL
MODEL       74
REMARK 921   NORMALIZED FREE ENERGY PREDICTED BY IDOCK:   -5.27 KCAL/MOL
REMARK 922        TOTAL FREE ENERGY PREDICTED BY IDOCK:   -7.77 KCAL/MOL
REMARK 923 INTER-LIGAND FREE ENERGY PREDICTED BY IDOCK:   -7.71 KCAL/MOL
REMARK 924 INTRA-LIGAND FREE ENERGY PREDICTED BY IDOCK:   -0.06 KCAL/MOL
REMARK 927      BINDING AFFINITY PREDICTED BY RF-SCORE:    0.00 PKD
ROOT
HETATM    1  O   UNL     1      -8.620   6.644  69.311  1.00  0.00    -0.130 OA 
HETATM    2  C   UNL     1      -9.311   5.546  69.654  1.00  0.00    -0.134 C  
HETATM    3  O   UNL     1      -9.577   4.681  68.829  1.00  0.00    -0.144 OA 
HETATM    4  C   UNL     1      -9.626   5.332  71.098  1.00  0.00    -0.218 A  
HETATM    5  C   UNL     1      -9.558   3.980  71.501  1.00  0.00    -0.237 A  
HETATM    6  C   UNL     1      -9.883   3.588  72.799  1.00  0.00    -0.206 A  
HETATM    7  C   UNL     1     -10.275   4.541  73.726  1.00  0.00    -0.233 A  
HETATM    8  C   UNL     1     -10.344   5.886  73.355  1.00  0.00    -0.246 A  
HETATM    9  C   UNL     1     -10.042   6.295  72.039  1.00  0.00    -0.205 A  
ENDROOT
BRANCH   9  10
HETATM   10  C   UNL     1     -10.107   7.748  71.736  1.00  0.00    -0.179 C  
HETATM   11  O   UNL     1      -9.553   8.504  72.526  1.00  0.00    -0.282 OA 
HETATM   12  N   UNL     1     -10.838   8.122  70.615  1.00  0.00    -0.229 N  
HETATM   13  H   UNL     1     -11.247   7.369  70.063  1.00  0.00     0.000 HD 
BRANCH  12  14
HETATM   14  C   UNL     1     -11.074   9.443  70.159  1.00  0.00    -0.242 A  
HETATM   15  C   UNL     1     -10.329  10.061  69.152  1.00  0.00    -0.233 A  
HETATM   16  C   UNL     1     -10.597  11.380  68.761  1.00  0.00    -0.235 A  
HETATM   17  C   UNL     1     -11.629  12.090  69.374  1.00  0.00    -0.330 A  
HETATM   18  C   UNL     1     -12.111  10.170  70.765  1.00  0.00    -0.438 A  
HETATM   19  C   UNL     1     -12.385  11.493  70.385  1.00  0.00    -0.390 A  
BRANCH  17  20
HETATM   20  S   UNL     1     -11.893  13.807  68.950  1.00  0.00    -0.371 S  
HETATM   21  O   UNL     1     -12.209  13.875  67.537  1.00  0.00    -0.366 OA 
HETATM   22  O   UNL     1     -10.769  14.539  69.492  1.00  0.00    -0.223 OA 
BRANCH  20  23
HETATM   23  N   UNL     1     -13.239  14.257  69.871  1.00  0.00    -0.130 N  
HETATM   24  H   UNL     1     -14.201  14.155  69.548  1.00  0.00     0.000 HD 
BRANCH  23  25
HETATM   25  C   UNL     1     -12.892  14.790  71.130  1.00  0.00    -0.341 A  
HETATM   26  N   UNL     1     -12.316  15.964  71.160  1.00  0.00    -0.425 NA 
HETATM   27  C   UNL     1     -12.074  16.310  72.476  1.00  0.00    -0.525 A  
HETATM   28  C   UNL     1     -12.564  15.434  73.421  1.00  0.00    -0.523 A  
HETATM   29  S   UNL     1     -13.290  14.091  72.635  1.00  0.00    -0.495 SA 
ENDBRANCH  23  25
ENDBRANCH  20  23
ENDBRANCH  17  20
ENDBRANCH  12  14
ENDBRANCH   9  10
TORSDOF 5
ENDMDL
MODEL       75
REMARK 921   NORMALIZED FREE ENERGY PREDICTED BY IDOCK:   -5.24 KCAL/MOL
REMARK 922        TOTAL FREE ENERGY PREDICTED BY IDOCK:   -7.74 KCAL/MOL
REMARK 923 INTER-LIGAND FREE ENERGY PREDICTED BY IDOCK:   -7.54 KCAL/MOL
REMARK 924 INTRA-LIGAND FREE ENERGY PREDICTED BY IDOCK:   -0.20 KCAL/MOL
REMARK 927      BINDING AFFINITY PREDICTED BY RF-SCORE:    0.00 PKD
ROOT
HETATM    1  O   UNL     1     -12.875  15.799  71.113  1.00  0.00    -0.486 OA 
HETATM    2  C   UNL     1     -12.680  14.713  71.876  1.00  0.00    -0.332 C  
HETATM    3  O   UNL     1     -12.743  14.776  73.097  1.00  0.00    -0.445 OA 
HETATM    4  C   UNL     1     -12.528  13.391  71.197  1.00  0.00    -0.414 A  
HETATM    5  C   UNL     1     -13.133  12.321  71.893  1.00  0.00    -0.469 A  
HETATM    6  C   UNL     1     -13.036  11.007  71.438  1.00  0.00    -0.517 A  
HETATM    7  C   UNL     1     -12.337  10.734  70.271  1.00  0.00    -0.423 A  
HETATM    8  C   UNL     1     -11.735  11.775  69.561  1.00  0.00    -0.408 A  
HETATM    9  C   UNL     1     -11.804  13.107  70.022  1.00  0.00    -0.360 A  
ENDROOT
BRANCH   9  10
HETATM   10  C   UNL     1     -11.166  14.159  69.190  1.00  0.00    -0.272 C  
HETATM   11  O   UNL     1     -11.876  14.718  68.361  1.00  0.00    -0.316 OA 
HETATM   12  N   UNL     1      -9.807  14.375  69.386  1.00  0.00    -0.417 N  
HETATM   13  H   UNL     1      -9.356  13.819  70.113  1.00  0.00     0.000 HD 
BRANCH  12  14
HETATM   14  C   UNL     1      -8.983  15.288  68.683  1.00  0.00    -0.193 A  
HETATM   15  C   UNL     1      -8.663  15.160  67.329  1.00  0.00    -0.221 A  
HETATM   16  C   UNL     1      -7.823  16.085  66.694  1.00  0.00    -0.266 A  
HETATM   17  C   UNL     1      -7.301  17.159  67.416  1.00  0.00    -0.153 A  
HETATM   18  C   UNL     1      -8.452  16.376  69.395  1.00  0.00     0.030 A  
HETATM   19  C   UNL     1      -7.606  17.304  68.771  1.00  0.00    -0.256 A  
BRANCH  17  20
HETATM   20  S   UNL     1      -6.141  18.270  66.631  1.00  0.00    -0.167 S  
HETATM   21  O   UNL     1      -5.159  17.467  65.929  1.00  0.00    -0.224 OA 
HETATM   22  O   UNL     1      -5.732  19.217  67.646  1.00  0.00    -0.183 OA 
BRANCH  20  23
HETATM   23  N   UNL     1      -7.083  19.137  65.526  1.00  0.00    -0.229 N  
HETATM   24  H   UNL     1      -8.090  19.264  65.623  1.00  0.00     0.000 HD 
BRANCH  23  25
HETATM   25  C   UNL     1      -6.331  19.667  64.457  1.00  0.00    -0.128 A  
HETATM   26  N   UNL     1      -5.814  18.827  63.597  1.00  0.00    -0.142 NA 
HETATM   27  C   UNL     1      -5.134  19.540  62.627  1.00  0.00    -0.281 A  
HETATM   28  C   UNL     1      -5.236  20.912  62.718  1.00  0.00    -0.191 A  
HETATM   29  S   UNL     1      -6.153  21.327  64.109  1.00  0.00    -0.074 SA 
ENDBRANCH  23  25
ENDBRANCH  20  23
ENDBRANCH  17  20
ENDBRANCH  12  14
ENDBRANCH   9  10
TORSDOF 5
ENDMDL
MODEL       76
REMARK 921   NORMALIZED FREE ENERGY PREDICTED BY IDOCK:   -5.24 KCAL/MOL
REMARK 922        TOTAL FREE ENERGY PREDICTED BY IDOCK:   -7.74 KCAL/MOL
REMARK 923 INTER-LIGAND FREE ENERGY PREDICTED BY IDOCK:   -7.14 KCAL/MOL
REMARK 924 INTRA-LIGAND FREE ENERGY PREDICTED BY IDOCK:   -0.60 KCAL/MOL
REMARK 927      BINDING AFFINITY PREDICTED BY RF-SCORE:    0.00 PKD
ROOT
HETATM    1  O   UNL     1      -8.762  14.397  68.228  1.00  0.00    -0.166 OA 
HETATM    2  C   UNL     1      -9.388  15.362  67.536  1.00  0.00    -0.203 C  
HETATM    3  O   UNL     1      -9.013  16.526  67.590  1.00  0.00    -0.196 OA 
HETATM    4  C   UNL     1     -10.464  14.961  66.582  1.00  0.00    -0.292 A  
HETATM    5  C   UNL     1     -10.489  15.727  65.396  1.00  0.00    -0.438 A  
HETATM    6  C   UNL     1     -11.467  15.533  64.421  1.00  0.00    -0.264 A  
HETATM    7  C   UNL     1     -12.439  14.561  64.607  1.00  0.00    -0.339 A  
HETATM    8  C   UNL     1     -12.433  13.785  65.769  1.00  0.00    -0.527 A  
HETATM    9  C   UNL     1     -11.464  13.986  66.774  1.00  0.00    -0.379 A  
ENDROOT
BRANCH   9  10
HETATM   10  C   UNL     1     -11.508  13.095  67.963  1.00  0.00    -0.311 C  
HETATM   11  O   UNL     1     -12.160  13.486  68.925  1.00  0.00    -0.341 OA 
HETATM   12  N   UNL     1     -10.760  11.926  67.898  1.00  0.00    -0.197 N  
HETATM   13  H   UNL     1     -10.263  11.749  67.025  1.00  0.00     0.000 HD 
BRANCH  12  14
HETATM   14  C   UNL     1     -10.615  10.954  68.918  1.00  0.00    -0.210 A  
HETATM   15  C   UNL     1      -9.384  10.438  69.329  1.00  0.00    -0.202 A  
HETATM   16  C   UNL     1      -9.308   9.459  70.330  1.00  0.00    -0.294 A  
HETATM   17  C   UNL     1     -10.475   8.994  70.937  1.00  0.00    -0.254 A  
HETATM   18  C   UNL     1     -11.781  10.478  69.540  1.00  0.00    -0.313 A  
HETATM   19  C   UNL     1     -11.717   9.494  70.539  1.00  0.00    -0.285 A  
BRANCH  17  20
HETATM   20  S   UNL     1     -10.381   7.667  72.130  1.00  0.00    -0.235 S  
HETATM   21  O   UNL     1     -11.095   8.084  73.320  1.00  0.00    -0.251 OA 
HETATM   22  O   UNL     1      -8.989   7.279  72.201  1.00  0.00    -0.131 OA 
BRANCH  20  23
HETATM   23  N   UNL     1     -11.192   6.383  71.384  1.00  0.00    -0.276 N  
HETATM   24  H   UNL     1     -12.078   6.006  71.720  1.00  0.00     0.000 HD 
BRANCH  23  25
HETATM   25  C   UNL     1     -10.515   5.888  70.250  1.00  0.00    -0.261 A  
HETATM   26  N   UNL     1      -9.595   4.976  70.437  1.00  0.00    -0.178 NA 
HETATM   27  C   UNL     1      -9.067   4.615  69.212  1.00  0.00    -0.109 A  
HETATM   28  C   UNL     1      -9.670   5.190  68.113  1.00  0.00    -0.144 A  
HETATM   29  S   UNL     1     -10.893   6.277  68.633  1.00  0.00    -0.345 SA 
ENDBRANCH  23  25
ENDBRANCH  20  23
ENDBRANCH  17  20
ENDBRANCH  12  14
ENDBRANCH   9  10
TORSDOF 5
ENDMDL
MODEL       77
REMARK 921   NORMALIZED FREE ENERGY PREDICTED BY IDOCK:   -5.24 KCAL/MOL
REMARK 922        TOTAL FREE ENERGY PREDICTED BY IDOCK:   -7.74 KCAL/MOL
REMARK 923 INTER-LIGAND FREE ENERGY PREDICTED BY IDOCK:   -6.88 KCAL/MOL
REMARK 924 INTRA-LIGAND FREE ENERGY PREDICTED BY IDOCK:   -0.86 KCAL/MOL
REMARK 927      BINDING AFFINITY PREDICTED BY RF-SCORE:    0.00 PKD
ROOT
HETATM    1  O   UNL     1      -8.145  13.836  67.110  1.00  0.00    -0.157 OA 
HETATM    2  C   UNL     1      -8.913  14.777  66.541  1.00  0.00    -0.233 C  
HETATM    3  O   UNL     1      -8.464  15.883  66.268  1.00  0.00    -0.311 OA 
HETATM    4  C   UNL     1     -10.293  14.399  66.115  1.00  0.00    -0.305 A  
HETATM    5  C   UNL     1     -10.704  15.009  64.908  1.00  0.00    -0.420 A  
HETATM    6  C   UNL     1     -11.986  14.819  64.394  1.00  0.00    -0.433 A  
HETATM    7  C   UNL     1     -12.884  14.008  65.070  1.00  0.00    -0.292 A  
HETATM    8  C   UNL     1     -12.501  13.387  66.262  1.00  0.00    -0.338 A  
HETATM    9  C   UNL     1     -11.216  13.590  66.807  1.00  0.00    -0.327 A  
ENDROOT
BRANCH   9  10
HETATM   10  C   UNL     1     -10.877  12.866  68.061  1.00  0.00    -0.241 C  
HETATM   11  O   UNL     1     -11.231  13.386  69.113  1.00  0.00    -0.255 OA 
HETATM   12  N   UNL     1     -10.140  11.696  67.929  1.00  0.00    -0.183 N  
HETATM   13  H   UNL     1      -9.916  11.401  66.979  1.00  0.00     0.000 HD 
BRANCH  12  14
HETATM   14  C   UNL     1      -9.667  10.869  68.978  1.00  0.00    -0.166 A  
HETATM   15  C   UNL     1      -8.314  10.619  69.219  1.00  0.00    -0.112 A  
HETATM   16  C   UNL     1      -7.910   9.771  70.260  1.00  0.00    -0.190 A  
HETATM   17  C   UNL     1      -8.867   9.172  71.079  1.00  0.00    -0.202 A  
HETATM   18  C   UNL     1     -10.619  10.260  69.812  1.00  0.00    -0.312 A  
HETATM   19  C   UNL     1     -10.226   9.406  70.854  1.00  0.00    -0.373 A  
BRANCH  17  20
HETATM   20  S   UNL     1      -8.352   8.005  72.331  1.00  0.00    -0.167 S  
HETATM   21  O   UNL     1      -7.197   8.559  73.010  1.00  0.00    -0.262 OA 
HETATM   22  O   UNL     1      -8.280   6.714  71.682  1.00  0.00    -0.110 OA 
BRANCH  20  23
HETATM   23  N   UNL     1      -9.669   7.928  73.391  1.00  0.00    -0.290 N  
HETATM   24  H   UNL     1      -9.977   8.714  73.963  1.00  0.00     0.000 HD 
BRANCH  23  25
HETATM   25  C   UNL     1     -10.296   6.665  73.400  1.00  0.00    -0.275 A  
HETATM   26  N   UNL     1      -9.994   5.839  74.370  1.00  0.00    -0.232 NA 
HETATM   27  C   UNL     1     -10.719   4.674  74.208  1.00  0.00    -0.221 A  
HETATM   28  C   UNL     1     -11.631   4.681  73.174  1.00  0.00    -0.165 A  
HETATM   29  S   UNL     1     -11.527   6.171  72.328  1.00  0.00    -0.308 SA 
ENDBRANCH  23  25
ENDBRANCH  20  23
ENDBRANCH  17  20
ENDBRANCH  12  14
ENDBRANCH   9  10
TORSDOF 5
ENDMDL
MODEL       78
REMARK 921   NORMALIZED FREE ENERGY PREDICTED BY IDOCK:   -5.18 KCAL/MOL
REMARK 922        TOTAL FREE ENERGY PREDICTED BY IDOCK:   -7.66 KCAL/MOL
REMARK 923 INTER-LIGAND FREE ENERGY PREDICTED BY IDOCK:   -6.75 KCAL/MOL
REMARK 924 INTRA-LIGAND FREE ENERGY PREDICTED BY IDOCK:   -0.91 KCAL/MOL
REMARK 927      BINDING AFFINITY PREDICTED BY RF-SCORE:    0.00 PKD
ROOT
HETATM    1  O   UNL     1     -11.566  15.006  65.409  1.00  0.00    -0.318 OA 
HETATM    2  C   UNL     1     -11.041  16.220  65.187  1.00  0.00    -0.212 C  
HETATM    3  O   UNL     1     -11.231  16.809  64.131  1.00  0.00    -1.155 OA 
HETATM    4  C   UNL     1     -10.335  16.902  66.313  1.00  0.00    -0.312 A  
HETATM    5  C   UNL     1     -10.545  18.298  66.354  1.00  0.00    -0.318 A  
HETATM    6  C   UNL     1      -9.913  19.104  67.301  1.00  0.00    -0.436 A  
HETATM    7  C   UNL     1      -9.062  18.529  68.233  1.00  0.00    -0.338 A  
HETATM    8  C   UNL     1      -8.843  17.150  68.218  1.00  0.00    -0.245 A  
HETATM    9  C   UNL     1      -9.456  16.325  67.251  1.00  0.00    -0.231 A  
ENDROOT
BRANCH   9  10
HETATM   10  C   UNL     1      -9.196  14.864  67.325  1.00  0.00    -0.204 C  
HETATM   11  O   UNL     1      -8.141  14.464  66.845  1.00  0.00    -0.131 OA 
HETATM   12  N   UNL     1     -10.196  14.077  67.882  1.00  0.00    -0.236 N  
HETATM   13  H   UNL     1     -11.022  14.565  68.230  1.00  0.00     0.000 HD 
BRANCH  12  14
HETATM   14  C   UNL     1     -10.190  12.666  68.016  1.00  0.00    -0.230 A  
HETATM   15  C   UNL     1      -9.261  11.965  68.789  1.00  0.00     0.025 A  
HETATM   16  C   UNL     1      -9.293  10.566  68.863  1.00  0.00    -0.192 A  
HETATM   17  C   UNL     1     -10.270   9.855  68.166  1.00  0.00    -0.179 A  
HETATM   18  C   UNL     1     -11.169  11.937  67.322  1.00  0.00    -0.376 A  
HETATM   19  C   UNL     1     -11.206  10.536  67.386  1.00  0.00    -0.249 A  
BRANCH  17  20
HETATM   20  S   UNL     1     -10.236   8.068  68.174  1.00  0.00    -0.205 S  
HETATM   21  O   UNL     1     -10.866   7.603  66.954  1.00  0.00    -0.328 OA 
HETATM   22  O   UNL     1     -10.736   7.655  69.468  1.00  0.00    -0.238 OA 
BRANCH  20  23
HETATM   23  N   UNL     1      -8.588   7.686  68.160  1.00  0.00    -0.124 N  
HETATM   24  H   UNL     1      -7.905   8.118  68.782  1.00  0.00     0.000 HD 
BRANCH  23  25
HETATM   25  C   UNL     1      -8.257   6.707  67.199  1.00  0.00    -0.113 A  
HETATM   26  N   UNL     1      -8.468   5.453  67.506  1.00  0.00    -0.106 NA 
HETATM   27  C   UNL     1      -8.095   4.662  66.436  1.00  0.00    -0.103 A  
HETATM   28  C   UNL     1      -7.704   5.342  65.302  1.00  0.00    -0.084 A  
HETATM   29  S   UNL     1      -7.732   7.031  65.609  1.00  0.00    -0.109 SA 
ENDBRANCH  23  25
ENDBRANCH  20  23
ENDBRANCH  17  20
ENDBRANCH  12  14
ENDBRANCH   9  10
TORSDOF 5
ENDMDL
MODEL       79
REMARK 921   NORMALIZED FREE ENERGY PREDICTED BY IDOCK:   -5.16 KCAL/MOL
REMARK 922        TOTAL FREE ENERGY PREDICTED BY IDOCK:   -7.63 KCAL/MOL
REMARK 923 INTER-LIGAND FREE ENERGY PREDICTED BY IDOCK:   -7.81 KCAL/MOL
REMARK 924 INTRA-LIGAND FREE ENERGY PREDICTED BY IDOCK:    0.18 KCAL/MOL
REMARK 927      BINDING AFFINITY PREDICTED BY RF-SCORE:    0.00 PKD
ROOT
HETATM    1  O   UNL     1      -8.916  10.041  69.875  1.00  0.00    -0.206 OA 
HETATM    2  C   UNL     1      -9.583   8.942  70.259  1.00  0.00    -0.186 C  
HETATM    3  O   UNL     1      -9.077   7.830  70.169  1.00  0.00    -0.152 OA 
HETATM    4  C   UNL     1     -10.904   9.116  70.933  1.00  0.00    -0.345 A  
HETATM    5  C   UNL     1     -11.140   8.189  71.972  1.00  0.00    -0.370 A  
HETATM    6  C   UNL     1     -12.348   8.164  72.668  1.00  0.00    -0.222 A  
HETATM    7  C   UNL     1     -13.345   9.073  72.346  1.00  0.00    -0.516 A  
HETATM    8  C   UNL     1     -13.134  10.005  71.327  1.00  0.00    -0.493 A  
HETATM    9  C   UNL     1     -11.926  10.026  70.598  1.00  0.00    -0.401 A  
ENDROOT
BRANCH   9  10
HETATM   10  C   UNL     1     -11.769  11.071  69.553  1.00  0.00    -0.329 C  
HETATM   11  O   UNL     1     -12.058  10.755  68.404  1.00  0.00    -0.501 OA 
HETATM   12  N   UNL     1     -11.256  12.295  69.963  1.00  0.00    -0.460 N  
HETATM   13  H   UNL     1     -11.056  12.397  70.958  1.00  0.00     0.000 HD 
BRANCH  12  14
HETATM   14  C   UNL     1     -10.980  13.417  69.142  1.00  0.00    -0.168 A  
HETATM   15  C   UNL     1      -9.783  13.591  68.443  1.00  0.00    -0.207 A  
HETATM   16  C   UNL     1      -9.560  14.736  67.665  1.00  0.00    -0.208 A  
HETATM   17  C   UNL     1     -10.548  15.717  67.574  1.00  0.00    -0.297 A  
HETATM   18  C   UNL     1     -11.965  14.412  69.039  1.00  0.00    -0.342 A  
HETATM   19  C   UNL     1     -11.751  15.564  68.267  1.00  0.00    -0.287 A  
BRANCH  17  20
HETATM   20  S   UNL     1     -10.215  17.224  66.673  1.00  0.00    -0.310 S  
HETATM   21  O   UNL     1      -8.788  17.472  66.729  1.00  0.00    -0.239 OA 
HETATM   22  O   UNL     1     -11.155  18.209  67.163  1.00  0.00    -0.151 OA 
BRANCH  20  23
HETATM   23  N   UNL     1     -10.684  16.870  65.087  1.00  0.00    -0.222 N  
HETATM   24  H   UNL     1     -10.677  17.555  64.332  1.00  0.00     0.000 HD 
BRANCH  23  25
HETATM   25  C   UNL     1     -11.085  15.528  64.917  1.00  0.00    -0.416 A  
HETATM   26  N   UNL     1     -10.164  14.646  64.626  1.00  0.00    -0.181 NA 
HETATM   27  C   UNL     1     -10.754  13.401  64.517  1.00  0.00    -0.419 A  
HETATM   28  C   UNL     1     -12.097  13.351  64.829  1.00  0.00    -0.406 A  
HETATM   29  S   UNL     1     -12.658  14.931  65.200  1.00  0.00     0.223 SA 
ENDBRANCH  23  25
ENDBRANCH  20  23
ENDBRANCH  17  20
ENDBRANCH  12  14
ENDBRANCH   9  10
TORSDOF 5
ENDMDL
MODEL       80
REMARK 921   NORMALIZED FREE ENERGY PREDICTED BY IDOCK:   -5.15 KCAL/MOL
REMARK 922        TOTAL FREE ENERGY PREDICTED BY IDOCK:   -7.62 KCAL/MOL
REMARK 923 INTER-LIGAND FREE ENERGY PREDICTED BY IDOCK:   -6.95 KCAL/MOL
REMARK 924 INTRA-LIGAND FREE ENERGY PREDICTED BY IDOCK:   -0.67 KCAL/MOL
REMARK 927      BINDING AFFINITY PREDICTED BY RF-SCORE:    0.00 PKD
ROOT
HETATM    1  O   UNL     1      -7.322   7.868  69.148  1.00  0.00    -0.079 OA 
HETATM    2  C   UNL     1      -7.271   7.162  68.008  1.00  0.00    -0.091 C  
HETATM    3  O   UNL     1      -6.205   6.938  67.449  1.00  0.00    -0.034 OA 
HETATM    4  C   UNL     1      -8.530   6.533  67.510  1.00  0.00    -0.120 A  
HETATM    5  C   UNL     1      -8.338   5.262  66.923  1.00  0.00    -0.107 A  
HETATM    6  C   UNL     1      -9.394   4.556  66.348  1.00  0.00    -0.152 A  
HETATM    7  C   UNL     1     -10.669   5.102  66.354  1.00  0.00    -0.275 A  
HETATM    8  C   UNL     1     -10.887   6.353  66.935  1.00  0.00    -0.428 A  
HETATM    9  C   UNL     1      -9.824   7.090  67.499  1.00  0.00    -0.186 A  
ENDROOT
BRANCH   9  10
HETATM   10  C   UNL     1     -10.148   8.398  68.126  1.00  0.00    -0.200 C  
HETATM   11  O   UNL     1     -10.561   8.372  69.280  1.00  0.00    -0.223 OA 
HETATM   12  N   UNL     1     -10.007   9.527  67.328  1.00  0.00    -0.177 N  
HETATM   13  H   UNL     1      -9.659   9.378  66.381  1.00  0.00     0.000 HD 
BRANCH  12  14
HETATM   14  C   UNL     1     -10.298  10.865  67.694  1.00  0.00    -0.197 A  
HETATM   15  C   UNL     1     -11.558  11.451  67.555  1.00  0.00    -0.298 A  
HETATM   16  C   UNL     1     -11.777  12.788  67.913  1.00  0.00    -0.408 A  
HETATM   17  C   UNL     1     -10.728  13.550  68.427  1.00  0.00    -0.259 A  
HETATM   18  C   UNL     1      -9.252  11.644  68.215  1.00  0.00    -0.187 A  
HETATM   19  C   UNL     1      -9.459  12.985  68.573  1.00  0.00    -0.098 A  
BRANCH  17  20
HETATM   20  S   UNL     1     -10.985  15.285  68.776  1.00  0.00    -0.277 S  
HETATM   21  O   UNL     1     -10.859  16.014  67.530  1.00  0.00    -0.317 OA 
HETATM   22  O   UNL     1     -10.141  15.603  69.907  1.00  0.00    -0.283 OA 
BRANCH  20  23
HETATM   23  N   UNL     1     -12.578  15.361  69.339  1.00  0.00    -0.596 N  
HETATM   24  H   UNL     1     -13.381  15.531  68.733  1.00  0.00     0.000 HD 
BRANCH  23  25
HETATM   25  C   UNL     1     -12.681  15.166  70.732  1.00  0.00    -0.405 A  
HETATM   26  N   UNL     1     -12.554  16.212  71.508  1.00  0.00    -0.257 NA 
HETATM   27  C   UNL     1     -12.701  15.815  72.823  1.00  0.00    -0.454 A  
HETATM   28  C   UNL     1     -13.037  14.490  73.010  1.00  0.00    -0.510 A  
HETATM   29  S   UNL     1     -13.100  13.695  71.489  1.00  0.00    -0.330 SA 
ENDBRANCH  23  25
ENDBRANCH  20  23
ENDBRANCH  17  20
ENDBRANCH  12  14
ENDBRANCH   9  10
TORSDOF 5
ENDMDL
MODEL       81
REMARK 921   NORMALIZED FREE ENERGY PREDICTED BY IDOCK:   -5.14 KCAL/MOL
REMARK 922        TOTAL FREE ENERGY PREDICTED BY IDOCK:   -7.61 KCAL/MOL
REMARK 923 INTER-LIGAND FREE ENERGY PREDICTED BY IDOCK:   -6.84 KCAL/MOL
REMARK 924 INTRA-LIGAND FREE ENERGY PREDICTED BY IDOCK:   -0.76 KCAL/MOL
REMARK 927      BINDING AFFINITY PREDICTED BY RF-SCORE:    0.00 PKD
ROOT
HETATM    1  O   UNL     1     -12.641  12.483  65.358  1.00  0.00    -0.656 OA 
HETATM    2  C   UNL     1     -12.160  13.503  64.630  1.00  0.00    -0.409 C  
HETATM    3  O   UNL     1     -12.653  13.798  63.549  1.00  0.00    -0.814 OA 
HETATM    4  C   UNL     1     -11.100  14.363  65.235  1.00  0.00    -0.344 A  
HETATM    5  C   UNL     1     -11.222  15.732  64.907  1.00  0.00    -0.358 A  
HETATM    6  C   UNL     1     -10.284  16.671  65.333  1.00  0.00    -0.138 A  
HETATM    7  C   UNL     1      -9.205  16.264  66.103  1.00  0.00    -0.376 A  
HETATM    8  C   UNL     1      -9.065  14.917  66.447  1.00  0.00    -0.293 A  
HETATM    9  C   UNL     1      -9.994  13.952  66.004  1.00  0.00    -0.325 A  
ENDROOT
BRANCH   9  10
HETATM   10  C   UNL     1      -9.790  12.546  66.442  1.00  0.00    -0.253 C  
HETATM   11  O   UNL     1      -8.944  11.895  65.839  1.00  0.00    -0.138 OA 
HETATM   12  N   UNL     1     -10.615  12.081  67.458  1.00  0.00    -0.217 N  
HETATM   13  H   UNL     1     -11.277  12.749  67.852  1.00  0.00     0.000 HD 
BRANCH  12  14
HETATM   14  C   UNL     1     -10.633  10.773  68.004  1.00  0.00    -0.207 A  
HETATM   15  C   UNL     1     -10.500  10.500  69.367  1.00  0.00    -0.264 A  
HETATM   16  C   UNL     1     -10.503   9.182  69.844  1.00  0.00    -0.239 A  
HETATM   17  C   UNL     1     -10.651   8.121  68.951  1.00  0.00    -0.140 A  
HETATM   18  C   UNL     1     -10.783   9.695  67.117  1.00  0.00    -0.258 A  
HETATM   19  C   UNL     1     -10.782   8.371  67.583  1.00  0.00    -0.191 A  
BRANCH  17  20
HETATM   20  S   UNL     1     -10.540   6.440  69.550  1.00  0.00    -0.286 S  
HETATM   21  O   UNL     1     -11.100   5.567  68.538  1.00  0.00    -0.012 OA 
HETATM   22  O   UNL     1     -11.073   6.450  70.895  1.00  0.00    -0.265 OA 
BRANCH  20  23
HETATM   23  N   UNL     1      -8.878   6.165  69.703  1.00  0.00    -0.134 N  
HETATM   24  H   UNL     1      -8.257   6.015  68.908  1.00  0.00     0.000 HD 
BRANCH  23  25
HETATM   25  C   UNL     1      -8.440   6.164  71.044  1.00  0.00    -0.128 A  
HETATM   26  N   UNL     1      -8.356   5.012  71.659  1.00  0.00    -0.114 NA 
HETATM   27  C   UNL     1      -7.898   5.225  72.946  1.00  0.00    -0.098 A  
HETATM   28  C   UNL     1      -7.548   6.524  73.245  1.00  0.00    -0.092 A  
HETATM   29  S   UNL     1      -7.873   7.531  71.892  1.00  0.00    -0.093 SA 
ENDBRANCH  23  25
ENDBRANCH  20  23
ENDBRANCH  17  20
ENDBRANCH  12  14
ENDBRANCH   9  10
TORSDOF 5
ENDMDL
MODEL       82
REMARK 921   NORMALIZED FREE ENERGY PREDICTED BY IDOCK:   -5.12 KCAL/MOL
REMARK 922        TOTAL FREE ENERGY PREDICTED BY IDOCK:   -7.58 KCAL/MOL
REMARK 923 INTER-LIGAND FREE ENERGY PREDICTED BY IDOCK:   -7.17 KCAL/MOL
REMARK 924 INTRA-LIGAND FREE ENERGY PREDICTED BY IDOCK:   -0.41 KCAL/MOL
REMARK 927      BINDING AFFINITY PREDICTED BY RF-SCORE:    0.00 PKD
ROOT
HETATM    1  O   UNL     1     -10.880  13.546  64.034  1.00  0.00    -0.308 OA 
HETATM    2  C   UNL     1     -11.098  12.225  64.121  1.00  0.00    -0.366 C  
HETATM    3  O   UNL     1     -11.952  11.677  63.435  1.00  0.00    -0.424 OA 
HETATM    4  C   UNL     1     -10.177  11.412  64.969  1.00  0.00    -0.333 A  
HETATM    5  C   UNL     1      -9.889  10.136  64.435  1.00  0.00    -0.307 A  
HETATM    6  C   UNL     1      -9.096   9.218  65.124  1.00  0.00    -0.263 A  
HETATM    7  C   UNL     1      -8.568   9.559  66.360  1.00  0.00    -0.143 A  
HETATM    8  C   UNL     1      -8.832  10.817  66.907  1.00  0.00    -0.144 A  
HETATM    9  C   UNL     1      -9.652  11.746  66.233  1.00  0.00    -0.242 A  
ENDROOT
BRANCH   9  10
HETATM   10  C   UNL     1      -9.856  13.074  66.869  1.00  0.00    -0.240 C  
HETATM   11  O   UNL     1     -10.747  13.156  67.707  1.00  0.00    -0.233 OA 
HETATM   12  N   UNL     1      -9.056  14.116  66.415  1.00  0.00    -0.473 N  
HETATM   13  H   UNL     1      -8.364  13.884  65.702  1.00  0.00     0.000 HD 
BRANCH  12  14
HETATM   14  C   UNL     1      -9.102  15.467  66.839  1.00  0.00    -0.241 A  
HETATM   15  C   UNL     1      -9.289  16.546  65.971  1.00  0.00    -0.302 A  
HETATM   16  C   UNL     1      -9.302  17.864  66.449  1.00  0.00    -0.268 A  
HETATM   17  C   UNL     1      -9.137  18.110  67.812  1.00  0.00    -0.263 A  
HETATM   18  C   UNL     1      -8.940  15.730  68.208  1.00  0.00    -0.182 A  
HETATM   19  C   UNL     1      -8.946  17.046  68.697  1.00  0.00    -0.267 A  
BRANCH  17  20
HETATM   20  S   UNL     1      -9.042  19.795  68.400  1.00  0.00    -0.221 S  
HETATM   21  O   UNL     1      -9.467  19.810  69.786  1.00  0.00     0.037 OA 
HETATM   22  O   UNL     1      -9.713  20.611  67.412  1.00  0.00    -0.457 OA 
BRANCH  20  23
HETATM   23  N   UNL     1      -7.397  20.178  68.291  1.00  0.00    -0.260 N  
HETATM   24  H   UNL     1      -6.995  20.720  67.526  1.00  0.00     0.000 HD 
BRANCH  23  25
HETATM   25  C   UNL     1      -6.640  19.671  69.368  1.00  0.00    -0.348 A  
HETATM   26  N   UNL     1      -6.662  20.333  70.496  1.00  0.00    -0.258 NA 
HETATM   27  C   UNL     1      -5.876  19.669  71.419  1.00  0.00    -0.178 A  
HETATM   28  C   UNL     1      -5.356  18.463  70.999  1.00  0.00    -0.240 A  
HETATM   29  S   UNL     1      -5.806  18.183  69.366  1.00  0.00    -0.244 SA 
ENDBRANCH  23  25
ENDBRANCH  20  23
ENDBRANCH  17  20
ENDBRANCH  12  14
ENDBRANCH   9  10
TORSDOF 5
ENDMDL
MODEL       83
REMARK 921   NORMALIZED FREE ENERGY PREDICTED BY IDOCK:   -5.11 KCAL/MOL
REMARK 922        TOTAL FREE ENERGY PREDICTED BY IDOCK:   -7.57 KCAL/MOL
REMARK 923 INTER-LIGAND FREE ENERGY PREDICTED BY IDOCK:   -6.87 KCAL/MOL
REMARK 924 INTRA-LIGAND FREE ENERGY PREDICTED BY IDOCK:   -0.70 KCAL/MOL
REMARK 927      BINDING AFFINITY PREDICTED BY RF-SCORE:    0.00 PKD
ROOT
HETATM    1  O   UNL     1      -8.160   9.283  71.296  1.00  0.00    -0.320 OA 
HETATM    2  C   UNL     1      -8.401   7.985  71.534  1.00  0.00    -0.116 C  
HETATM    3  O   UNL     1      -7.494   7.214  71.818  1.00  0.00    -0.084 OA 
HETATM    4  C   UNL     1      -9.822   7.529  71.586  1.00  0.00    -0.185 A  
HETATM    5  C   UNL     1     -10.067   6.541  72.565  1.00  0.00    -0.189 A  
HETATM    6  C   UNL     1     -11.323   5.954  72.711  1.00  0.00    -0.305 A  
HETATM    7  C   UNL     1     -12.366   6.349  71.887  1.00  0.00    -0.279 A  
HETATM    8  C   UNL     1     -12.152   7.330  70.915  1.00  0.00    -0.326 A  
HETATM    9  C   UNL     1     -10.880   7.915  70.739  1.00  0.00    -0.238 A  
ENDROOT
BRANCH   9  10
HETATM   10  C   UNL     1     -10.745   8.974  69.706  1.00  0.00    -0.225 C  
HETATM   11  O   UNL     1     -10.538   8.604  68.556  1.00  0.00    -0.196 OA 
HETATM   12  N   UNL     1     -10.810  10.291  70.146  1.00  0.00    -0.303 N  
HETATM   13  H   UNL     1     -10.979  10.432  71.142  1.00  0.00     0.000 HD 
BRANCH  12  14
HETATM   14  C   UNL     1     -10.664  11.457  69.355  1.00  0.00    -0.104 A  
HETATM   15  C   UNL     1     -11.703  12.354  69.097  1.00  0.00    -0.376 A  
HETATM   16  C   UNL     1     -11.502  13.480  68.287  1.00  0.00    -0.345 A  
HETATM   17  C   UNL     1     -10.244  13.722  67.734  1.00  0.00    -0.241 A  
HETATM   18  C   UNL     1      -9.403  11.715  68.794  1.00  0.00    -0.056 A  
HETATM   19  C   UNL     1      -9.191  12.837  67.977  1.00  0.00    -0.208 A  
BRANCH  17  20
HETATM   20  S   UNL     1     -10.022  15.095  66.611  1.00  0.00    -0.262 S  
HETATM   21  O   UNL     1      -8.945  15.920  67.122  1.00  0.00    -0.195 OA 
HETATM   22  O   UNL     1     -11.337  15.654  66.384  1.00  0.00    -0.128 OA 
BRANCH  20  23
HETATM   23  N   UNL     1      -9.559  14.368  65.156  1.00  0.00    -0.446 N  
HETATM   24  H   UNL     1      -8.661  14.539  64.702  1.00  0.00     0.000 HD 
BRANCH  23  25
HETATM   25  C   UNL     1     -10.542  13.502  64.635  1.00  0.00    -0.427 A  
HETATM   26  N   UNL     1     -11.629  14.037  64.140  1.00  0.00    -0.317 NA 
HETATM   27  C   UNL     1     -12.451  13.030  63.672  1.00  0.00    -0.315 A  
HETATM   28  C   UNL     1     -11.924  11.757  63.731  1.00  0.00    -0.363 A  
HETATM   29  S   UNL     1     -10.373  11.813  64.466  1.00  0.00    -0.314 SA 
ENDBRANCH  23  25
ENDBRANCH  20  23
ENDBRANCH  17  20
ENDBRANCH  12  14
ENDBRANCH   9  10
TORSDOF 5
ENDMDL
MODEL       84
REMARK 921   NORMALIZED FREE ENERGY PREDICTED BY IDOCK:   -5.10 KCAL/MOL
REMARK 922        TOTAL FREE ENERGY PREDICTED BY IDOCK:   -7.56 KCAL/MOL
REMARK 923 INTER-LIGAND FREE ENERGY PREDICTED BY IDOCK:   -6.53 KCAL/MOL
REMARK 924 INTRA-LIGAND FREE ENERGY PREDICTED BY IDOCK:   -1.03 KCAL/MOL
REMARK 927      BINDING AFFINITY PREDICTED BY RF-SCORE:    0.00 PKD
ROOT
HETATM    1  O   UNL     1      -9.223   9.504  64.598  1.00  0.00    -0.239 OA 
HETATM    2  C   UNL     1      -9.514  10.601  63.883  1.00  0.00    -0.282 C  
HETATM    3  O   UNL     1      -9.097  10.742  62.740  1.00  0.00    -0.245 OA 
HETATM    4  C   UNL     1     -10.478  11.585  64.459  1.00  0.00    -0.369 A  
HETATM    5  C   UNL     1     -11.337  12.169  63.501  1.00  0.00    -0.535 A  
HETATM    6  C   UNL     1     -12.258  13.155  63.852  1.00  0.00    -0.503 A  
HETATM    7  C   UNL     1     -12.347  13.575  65.170  1.00  0.00    -0.488 A  
HETATM    8  C   UNL     1     -11.514  13.008  66.138  1.00  0.00    -0.381 A  
HETATM    9  C   UNL     1     -10.561  12.027  65.795  1.00  0.00    -0.301 A  
ENDROOT
BRANCH   9  10
HETATM   10  C   UNL     1      -9.737  11.451  66.890  1.00  0.00    -0.192 C  
HETATM   11  O   UNL     1      -8.692  12.032  67.161  1.00  0.00    -0.169 OA 
HETATM   12  N   UNL     1     -10.198  10.276  67.469  1.00  0.00    -0.198 N  
HETATM   13  H   UNL     1     -11.086   9.913  67.123  1.00  0.00     0.000 HD 
BRANCH  12  14
HETATM   14  C   UNL     1      -9.563   9.528  68.492  1.00  0.00    -0.142 A  
HETATM   15  C   UNL     1      -8.724   8.438  68.248  1.00  0.00    -0.143 A  
HETATM   16  C   UNL     1      -8.143   7.723  69.304  1.00  0.00    -0.127 A  
HETATM   17  C   UNL     1      -8.392   8.106  70.622  1.00  0.00    -0.123 A  
HETATM   18  C   UNL     1      -9.803   9.903  69.823  1.00  0.00    -0.268 A  
HETATM   19  C   UNL     1      -9.230   9.191  70.889  1.00  0.00    -0.326 A  
BRANCH  17  20
HETATM   20  S   UNL     1      -7.740   7.123  71.966  1.00  0.00    -0.091 S  
HETATM   21  O   UNL     1      -6.452   7.673  72.338  1.00  0.00    -0.053 OA 
HETATM   22  O   UNL     1      -7.864   5.741  71.558  1.00  0.00    -0.107 OA 
BRANCH  20  23
HETATM   23  N   UNL     1      -8.853   7.348  73.220  1.00  0.00    -0.143 N  
HETATM   24  H   UNL     1      -8.872   8.177  73.814  1.00  0.00     0.000 HD 
BRANCH  23  25
HETATM   25  C   UNL     1      -9.753   6.270  73.359  1.00  0.00    -0.162 A  
HETATM   26  N   UNL     1      -9.562   5.438  74.350  1.00  0.00    -0.142 NA 
HETATM   27  C   UNL     1     -10.549   4.472  74.320  1.00  0.00    -0.262 A  
HETATM   28  C   UNL     1     -11.527   4.651  73.364  1.00  0.00    -0.245 A  
HETATM   29  S   UNL     1     -11.159   6.038  72.421  1.00  0.00    -0.291 SA 
ENDBRANCH  23  25
ENDBRANCH  20  23
ENDBRANCH  17  20
ENDBRANCH  12  14
ENDBRANCH   9  10
TORSDOF 5
ENDMDL
MODEL       85
REMARK 921   NORMALIZED FREE ENERGY PREDICTED BY IDOCK:   -5.10 KCAL/MOL
REMARK 922        TOTAL FREE ENERGY PREDICTED BY IDOCK:   -7.55 KCAL/MOL
REMARK 923 INTER-LIGAND FREE ENERGY PREDICTED BY IDOCK:   -6.55 KCAL/MOL
REMARK 924 INTRA-LIGAND FREE ENERGY PREDICTED BY IDOCK:   -1.00 KCAL/MOL
REMARK 927      BINDING AFFINITY PREDICTED BY RF-SCORE:    0.00 PKD
ROOT
HETATM    1  O   UNL     1     -11.311  13.917  69.636  1.00  0.00    -0.252 OA 
HETATM    2  C   UNL     1     -11.706  15.153  69.293  1.00  0.00    -0.329 C  
HETATM    3  O   UNL     1     -12.408  15.824  70.037  1.00  0.00    -0.354 OA 
HETATM    4  C   UNL     1     -11.149  15.750  68.042  1.00  0.00    -0.337 A  
HETATM    5  C   UNL     1     -10.889  17.135  68.138  1.00  0.00    -0.316 A  
HETATM    6  C   UNL     1     -10.427  17.869  67.047  1.00  0.00    -0.345 A  
HETATM    7  C   UNL     1     -10.206  17.232  65.835  1.00  0.00    -0.273 A  
HETATM    8  C   UNL     1     -10.449  15.862  65.715  1.00  0.00    -0.386 A  
HETATM    9  C   UNL     1     -10.940  15.111  66.804  1.00  0.00    -0.321 A  
ENDROOT
BRANCH   9  10
HETATM   10  C   UNL     1     -11.139  13.652  66.601  1.00  0.00    -0.306 C  
HETATM   11  O   UNL     1     -12.224  13.298  66.152  1.00  0.00    -0.420 OA 
HETATM   12  N   UNL     1     -10.100  12.817  66.993  1.00  0.00    -0.237 N  
HETATM   13  H   UNL     1      -9.263  13.270  67.359  1.00  0.00     0.000 HD 
BRANCH  12  14
HETATM   14  C   UNL     1     -10.083  11.401  66.938  1.00  0.00    -0.214 A  
HETATM   15  C   UNL     1     -10.730  10.580  67.864  1.00  0.00    -0.305 A  
HETATM   16  C   UNL     1     -10.656   9.184  67.769  1.00  0.00    -0.289 A  
HETATM   17  C   UNL     1      -9.935   8.596  66.729  1.00  0.00    -0.273 A  
HETATM   18  C   UNL     1      -9.363  10.795  65.896  1.00  0.00    -0.220 A  
HETATM   19  C   UNL     1      -9.278   9.398  65.793  1.00  0.00    -0.276 A  
BRANCH  17  20
HETATM   20  S   UNL     1      -9.750   6.819  66.677  1.00  0.00    -0.129 S  
HETATM   21  O   UNL     1      -8.855   6.495  65.584  1.00  0.00    -0.133 OA 
HETATM   22  O   UNL     1     -11.087   6.268  66.725  1.00  0.00    -0.343 OA 
BRANCH  20  23
HETATM   23  N   UNL     1      -9.026   6.436  68.157  1.00  0.00    -0.117 N  
HETATM   24  H   UNL     1      -9.138   6.999  69.000  1.00  0.00     0.000 HD 
BRANCH  23  25
HETATM   25  C   UNL     1      -8.254   5.257  68.104  1.00  0.00    -0.098 A  
HETATM   26  N   UNL     1      -8.885   4.116  67.987  1.00  0.00    -0.107 NA 
HETATM   27  C   UNL     1      -7.957   3.094  67.938  1.00  0.00    -0.074 A  
HETATM   28  C   UNL     1      -6.636   3.491  67.917  1.00  0.00    -0.041 A  
HETATM   29  S   UNL     1      -6.550   5.202  68.038  1.00  0.00    -0.051 SA 
ENDBRANCH  23  25
ENDBRANCH  20  23
ENDBRANCH  17  20
ENDBRANCH  12  14
ENDBRANCH   9  10
TORSDOF 5
ENDMDL
MODEL       86
REMARK 921   NORMALIZED FREE ENERGY PREDICTED BY IDOCK:   -5.09 KCAL/MOL
REMARK 922        TOTAL FREE ENERGY PREDICTED BY IDOCK:   -7.55 KCAL/MOL
REMARK 923 INTER-LIGAND FREE ENERGY PREDICTED BY IDOCK:   -6.60 KCAL/MOL
REMARK 924 INTRA-LIGAND FREE ENERGY PREDICTED BY IDOCK:   -0.94 KCAL/MOL
REMARK 927      BINDING AFFINITY PREDICTED BY RF-SCORE:    0.00 PKD
ROOT
HETATM    1  O   UNL     1     -10.664   5.853  68.606  1.00  0.00    -0.248 OA 
HETATM    2  C   UNL     1      -9.889   4.781  68.384  1.00  0.00    -0.121 C  
HETATM    3  O   UNL     1      -9.744   3.915  69.238  1.00  0.00    -0.185 OA 
HETATM    4  C   UNL     1      -9.318   4.593  67.017  1.00  0.00    -0.153 A  
HETATM    5  C   UNL     1      -9.271   3.244  66.600  1.00  0.00    -0.178 A  
HETATM    6  C   UNL     1      -8.711   2.876  65.377  1.00  0.00    -0.124 A  
HETATM    7  C   UNL     1      -8.192   3.852  64.539  1.00  0.00    -0.094 A  
HETATM    8  C   UNL     1      -8.233   5.194  64.924  1.00  0.00    -0.136 A  
HETATM    9  C   UNL     1      -8.774   5.578  66.169  1.00  0.00    -0.133 A  
ENDROOT
BRANCH   9  10
HETATM   10  C   UNL     1      -8.810   7.029  66.488  1.00  0.00    -0.141 C  
HETATM   11  O   UNL     1      -7.910   7.463  67.199  1.00  0.00    -0.112 OA 
HETATM   12  N   UNL     1      -9.889   7.753  65.997  1.00  0.00    -0.431 N  
HETATM   13  H   UNL     1     -10.561   7.240  65.425  1.00  0.00     0.000 HD 
BRANCH  12  14
HETATM   14  C   UNL     1     -10.156   9.128  66.209  1.00  0.00    -0.249 A  
HETATM   15  C   UNL     1      -9.721  10.143  65.353  1.00  0.00    -0.355 A  
HETATM   16  C   UNL     1      -9.997  11.489  65.630  1.00  0.00    -0.275 A  
HETATM   17  C   UNL     1     -10.725  11.829  66.770  1.00  0.00    -0.253 A  
HETATM   18  C   UNL     1     -10.890   9.485  67.351  1.00  0.00    -0.215 A  
HETATM   19  C   UNL     1     -11.167  10.830  67.640  1.00  0.00    -0.370 A  
BRANCH  17  20
HETATM   20  S   UNL     1     -10.977  13.551  67.177  1.00  0.00    -0.296 S  
HETATM   21  O   UNL     1     -12.402  13.812  67.157  1.00  0.00    -0.357 OA 
HETATM   22  O   UNL     1     -10.075  14.306  66.333  1.00  0.00    -0.271 OA 
BRANCH  20  23
HETATM   23  N   UNL     1     -10.380  13.694  68.753  1.00  0.00    -0.346 N  
HETATM   24  H   UNL     1      -9.412  13.500  69.008  1.00  0.00     0.000 HD 
BRANCH  23  25
HETATM   25  C   UNL     1     -11.360  14.111  69.678  1.00  0.00    -0.236 A  
HETATM   26  N   UNL     1     -11.617  15.391  69.763  1.00  0.00    -0.298 NA 
HETATM   27  C   UNL     1     -12.608  15.587  70.706  1.00  0.00    -0.452 A  
HETATM   28  C   UNL     1     -13.152  14.440  71.244  1.00  0.00    -0.351 A  
HETATM   29  S   UNL     1     -12.345  13.068  70.602  1.00  0.00    -0.223 SA 
ENDBRANCH  23  25
ENDBRANCH  20  23
ENDBRANCH  17  20
ENDBRANCH  12  14
ENDBRANCH   9  10
TORSDOF 5
ENDMDL
MODEL       87
REMARK 921   NORMALIZED FREE ENERGY PREDICTED BY IDOCK:   -5.08 KCAL/MOL
REMARK 922        TOTAL FREE ENERGY PREDICTED BY IDOCK:   -7.52 KCAL/MOL
REMARK 923 INTER-LIGAND FREE ENERGY PREDICTED BY IDOCK:   -7.12 KCAL/MOL
REMARK 924 INTRA-LIGAND FREE ENERGY PREDICTED BY IDOCK:   -0.41 KCAL/MOL
REMARK 927      BINDING AFFINITY PREDICTED BY RF-SCORE:    0.00 PKD
ROOT
HETATM    1  O   UNL     1     -11.127   6.922  69.718  1.00  0.00    -0.263 OA 
HETATM    2  C   UNL     1     -10.450   5.821  69.359  1.00  0.00    -0.290 C  
HETATM    3  O   UNL     1     -10.384   4.848  70.098  1.00  0.00    -0.265 OA 
HETATM    4  C   UNL     1      -9.897   5.753  67.973  1.00  0.00    -0.155 A  
HETATM    5  C   UNL     1      -9.969   4.467  67.394  1.00  0.00    -0.171 A  
HETATM    6  C   UNL     1      -9.443   4.205  66.129  1.00  0.00    -0.187 A  
HETATM    7  C   UNL     1      -8.839   5.226  65.412  1.00  0.00    -0.152 A  
HETATM    8  C   UNL     1      -8.761   6.509  65.960  1.00  0.00    -0.155 A  
HETATM    9  C   UNL     1      -9.267   6.784  67.248  1.00  0.00    -0.140 A  
ENDROOT
BRANCH   9  10
HETATM   10  C   UNL     1      -9.173   8.182  67.742  1.00  0.00    -0.134 C  
HETATM   11  O   UNL     1      -8.138   8.498  68.318  1.00  0.00    -0.116 OA 
HETATM   12  N   UNL     1     -10.290   8.988  67.557  1.00  0.00    -0.248 N  
HETATM   13  H   UNL     1     -11.079   8.570  67.064  1.00  0.00     0.000 HD 
BRANCH  12  14
HETATM   14  C   UNL     1     -10.446  10.331  67.982  1.00  0.00    -0.196 A  
HETATM   15  C   UNL     1     -11.287  10.721  69.027  1.00  0.00    -0.349 A  
HETATM   16  C   UNL     1     -11.417  12.069  69.386  1.00  0.00    -0.361 A  
HETATM   17  C   UNL     1     -10.691  13.043  68.700  1.00  0.00    -0.248 A  
HETATM   18  C   UNL     1      -9.720  11.322  67.303  1.00  0.00    -0.192 A  
HETATM   19  C   UNL     1      -9.846  12.676  67.650  1.00  0.00    -0.210 A  
BRANCH  17  20
HETATM   20  S   UNL     1     -10.945  14.770  69.086  1.00  0.00    -0.277 S  
HETATM   21  O   UNL     1     -12.340  15.081  68.843  1.00  0.00    -0.139 OA 
HETATM   22  O   UNL     1      -9.896  15.499  68.408  1.00  0.00    -0.205 OA 
BRANCH  20  23
HETATM   23  N   UNL     1     -10.604  14.878  70.740  1.00  0.00    -0.500 N  
HETATM   24  H   UNL     1      -9.659  14.843  71.122  1.00  0.00     0.000 HD 
BRANCH  23  25
HETATM   25  C   UNL     1     -11.761  15.022  71.533  1.00  0.00    -0.370 A  
HETATM   26  N   UNL     1     -11.917  16.143  72.189  1.00  0.00    -0.519 NA 
HETATM   27  C   UNL     1     -13.109  16.091  72.888  1.00  0.00    -0.458 A  
HETATM   28  C   UNL     1     -13.879  14.969  72.665  1.00  0.00    -0.437 A  
HETATM   29  S   UNL     1     -13.050  13.907  71.601  1.00  0.00    -0.380 SA 
ENDBRANCH  23  25
ENDBRANCH  20  23
ENDBRANCH  17  20
ENDBRANCH  12  14
ENDBRANCH   9  10
TORSDOF 5
ENDMDL
MODEL       88
REMARK 921   NORMALIZED FREE ENERGY PREDICTED BY IDOCK:   -5.05 KCAL/MOL
REMARK 922        TOTAL FREE ENERGY PREDICTED BY IDOCK:   -7.50 KCAL/MOL
REMARK 923 INTER-LIGAND FREE ENERGY PREDICTED BY IDOCK:   -6.74 KCAL/MOL
REMARK 924 INTRA-LIGAND FREE ENERGY PREDICTED BY IDOCK:   -0.76 KCAL/MOL
REMARK 927      BINDING AFFINITY PREDICTED BY RF-SCORE:    0.00 PKD
ROOT
HETATM    1  O   UNL     1     -11.713   7.090  70.033  1.00  0.00    -0.233 OA 
HETATM    2  C   UNL     1     -11.103   6.558  71.103  1.00  0.00    -0.282 C  
HETATM    3  O   UNL     1     -11.728   6.286  72.120  1.00  0.00    -0.304 OA 
HETATM    4  C   UNL     1      -9.667   6.169  70.975  1.00  0.00    -0.202 A  
HETATM    5  C   UNL     1      -9.334   4.984  71.669  1.00  0.00    -0.188 A  
HETATM    6  C   UNL     1      -8.024   4.507  71.712  1.00  0.00    -0.097 A  
HETATM    7  C   UNL     1      -7.019   5.200  71.055  1.00  0.00    -0.051 A  
HETATM    8  C   UNL     1      -7.323   6.370  70.355  1.00  0.00    -0.089 A  
HETATM    9  C   UNL     1      -8.639   6.879  70.323  1.00  0.00    -0.140 A  
ENDROOT
BRANCH   9  10
HETATM   10  C   UNL     1      -8.883   8.111  69.529  1.00  0.00    -0.143 C  
HETATM   11  O   UNL     1      -8.422   9.157  69.973  1.00  0.00    -0.127 OA 
HETATM   12  N   UNL     1      -9.660   7.975  68.386  1.00  0.00    -0.149 N  
HETATM   13  H   UNL     1      -9.978   7.033  68.157  1.00  0.00     0.000 HD 
BRANCH  12  14
HETATM   14  C   UNL     1     -10.059   9.010  67.504  1.00  0.00    -0.228 A  
HETATM   15  C   UNL     1      -9.707   9.057  66.153  1.00  0.00    -0.354 A  
HETATM   16  C   UNL     1     -10.114  10.121  65.336  1.00  0.00    -0.342 A  
HETATM   17  C   UNL     1     -10.891  11.148  65.870  1.00  0.00    -0.157 A  
HETATM   18  C   UNL     1     -10.844  10.051  68.026  1.00  0.00    -0.311 A  
HETATM   19  C   UNL     1     -11.252  11.123  67.219  1.00  0.00    -0.347 A  
BRANCH  17  20
HETATM   20  S   UNL     1     -11.311  12.558  64.854  1.00  0.00    -0.323 S  
HETATM   21  O   UNL     1     -12.308  13.338  65.560  1.00  0.00    -0.435 OA 
HETATM   22  O   UNL     1     -11.580  12.040  63.530  1.00  0.00    -0.439 OA 
BRANCH  20  23
HETATM   23  N   UNL     1      -9.865  13.428  64.737  1.00  0.00    -0.605 N  
HETATM   24  H   UNL     1      -9.222  13.348  63.949  1.00  0.00     0.000 HD 
BRANCH  23  25
HETATM   25  C   UNL     1      -9.642  14.276  65.841  1.00  0.00    -0.196 A  
HETATM   26  N   UNL     1      -8.996  13.786  66.868  1.00  0.00    -0.239 NA 
HETATM   27  C   UNL     1      -8.869  14.771  67.829  1.00  0.00    -0.175 A  
HETATM   28  C   UNL     1      -9.332  16.018  67.467  1.00  0.00    -0.217 A  
HETATM   29  S   UNL     1     -10.020  15.939  65.896  1.00  0.00    -0.369 SA 
ENDBRANCH  23  25
ENDBRANCH  20  23
ENDBRANCH  17  20
ENDBRANCH  12  14
ENDBRANCH   9  10
TORSDOF 5
ENDMDL
MODEL       89
REMARK 921   NORMALIZED FREE ENERGY PREDICTED BY IDOCK:   -5.05 KCAL/MOL
REMARK 922        TOTAL FREE ENERGY PREDICTED BY IDOCK:   -7.49 KCAL/MOL
REMARK 923 INTER-LIGAND FREE ENERGY PREDICTED BY IDOCK:   -6.68 KCAL/MOL
REMARK 924 INTRA-LIGAND FREE ENERGY PREDICTED BY IDOCK:   -0.80 KCAL/MOL
REMARK 927      BINDING AFFINITY PREDICTED BY RF-SCORE:    0.00 PKD
ROOT
HETATM    1  O   UNL     1      -6.888  16.672  67.527  1.00  0.00    -0.130 OA 
HETATM    2  C   UNL     1      -7.482  17.729  68.101  1.00  0.00    -0.237 C  
HETATM    3  O   UNL     1      -7.079  18.183  69.164  1.00  0.00    -0.256 OA 
HETATM    4  C   UNL     1      -8.559  18.431  67.342  1.00  0.00    -0.261 A  
HETATM    5  C   UNL     1      -8.553  19.834  67.511  1.00  0.00    -0.377 A  
HETATM    6  C   UNL     1      -9.526  20.644  66.927  1.00  0.00    -0.405 A  
HETATM    7  C   UNL     1     -10.524  20.070  66.154  1.00  0.00    -0.526 A  
HETATM    8  C   UNL     1     -10.548  18.686  65.965  1.00  0.00    -0.410 A  
HETATM    9  C   UNL     1      -9.585  17.851  66.570  1.00  0.00    -0.318 A  
ENDROOT
BRANCH   9  10
HETATM   10  C   UNL     1      -9.663  16.394  66.291  1.00  0.00    -0.308 C  
HETATM   11  O   UNL     1      -9.622  16.052  65.114  1.00  0.00    -0.281 OA 
HETATM   12  N   UNL     1      -9.833  15.555  67.385  1.00  0.00    -0.223 N  
HETATM   13  H   UNL     1      -9.857  15.999  68.303  1.00  0.00     0.000 HD 
BRANCH  12  14
HETATM   14  C   UNL     1      -9.977  14.145  67.359  1.00  0.00    -0.240 A  
HETATM   15  C   UNL     1     -11.211  13.491  67.390  1.00  0.00    -0.317 A  
HETATM   16  C   UNL     1     -11.287  12.092  67.385  1.00  0.00    -0.393 A  
HETATM   17  C   UNL     1     -10.118  11.332  67.338  1.00  0.00    -0.188 A  
HETATM   18  C   UNL     1      -8.809  13.368  67.309  1.00  0.00    -0.220 A  
HETATM   19  C   UNL     1      -8.874  11.966  67.309  1.00  0.00    -0.179 A  
BRANCH  17  20
HETATM   20  S   UNL     1     -10.216   9.551  67.446  1.00  0.00    -0.244 S  
HETATM   21  O   UNL     1     -10.242   9.022  66.096  1.00  0.00    -0.267 OA 
HETATM   22  O   UNL     1     -11.285   9.256  68.375  1.00  0.00     0.043 OA 
BRANCH  20  23
HETATM   23  N   UNL     1      -8.780   9.104  68.220  1.00  0.00    -0.129 N  
HETATM   24  H   UNL     1      -7.855   9.395  67.902  1.00  0.00     0.000 HD 
BRANCH  23  25
HETATM   25  C   UNL     1      -8.993   8.287  69.350  1.00  0.00    -0.147 A  
HETATM   26  N   UNL     1      -9.063   6.993  69.165  1.00  0.00    -0.137 NA 
HETATM   27  C   UNL     1      -9.259   6.376  70.386  1.00  0.00    -0.155 A  
HETATM   28  C   UNL     1      -9.232   7.210  71.484  1.00  0.00    -0.145 A  
HETATM   29  S   UNL     1      -9.029   8.834  70.965  1.00  0.00    -0.236 SA 
ENDBRANCH  23  25
ENDBRANCH  20  23
ENDBRANCH  17  20
ENDBRANCH  12  14
ENDBRANCH   9  10
TORSDOF 5
ENDMDL
MODEL       90
REMARK 921   NORMALIZED FREE ENERGY PREDICTED BY IDOCK:   -5.05 KCAL/MOL
REMARK 922        TOTAL FREE ENERGY PREDICTED BY IDOCK:   -7.49 KCAL/MOL
REMARK 923 INTER-LIGAND FREE ENERGY PREDICTED BY IDOCK:   -6.58 KCAL/MOL
REMARK 924 INTRA-LIGAND FREE ENERGY PREDICTED BY IDOCK:   -0.91 KCAL/MOL
REMARK 927      BINDING AFFINITY PREDICTED BY RF-SCORE:    0.00 PKD
ROOT
HETATM    1  O   UNL     1      -6.754   8.777  67.537  1.00  0.00    -0.065 OA 
HETATM    2  C   UNL     1      -6.887   7.567  66.973  1.00  0.00    -0.071 C  
HETATM    3  O   UNL     1      -5.921   6.975  66.508  1.00  0.00    -0.032 OA 
HETATM    4  C   UNL     1      -8.217   6.893  67.052  1.00  0.00    -0.120 A  
HETATM    5  C   UNL     1      -8.136   5.495  67.238  1.00  0.00    -0.101 A  
HETATM    6  C   UNL     1      -9.278   4.696  67.271  1.00  0.00    -0.143 A  
HETATM    7  C   UNL     1     -10.529   5.278  67.127  1.00  0.00    -0.261 A  
HETATM    8  C   UNL     1     -10.636   6.660  66.948  1.00  0.00    -0.376 A  
HETATM    9  C   UNL     1      -9.488   7.478  66.888  1.00  0.00    -0.219 A  
ENDROOT
BRANCH   9  10
HETATM   10  C   UNL     1      -9.692   8.941  66.730  1.00  0.00    -0.219 C  
HETATM   11  O   UNL     1      -9.829   9.361  65.586  1.00  0.00    -0.296 OA 
HETATM   12  N   UNL     1      -9.652   9.708  67.887  1.00  0.00    -0.138 N  
HETATM   13  H   UNL     1      -9.520   9.206  68.765  1.00  0.00     0.000 HD 
BRANCH  12  14
HETATM   14  C   UNL     1      -9.775  11.117  67.976  1.00  0.00    -0.176 A  
HETATM   15  C   UNL     1      -8.739  12.007  67.680  1.00  0.00    -0.166 A  
HETATM   16  C   UNL     1      -8.917  13.391  67.809  1.00  0.00    -0.205 A  
HETATM   17  C   UNL     1     -10.146  13.898  68.230  1.00  0.00    -0.241 A  
HETATM   18  C   UNL     1     -11.008  11.642  68.396  1.00  0.00    -0.265 A  
HETATM   19  C   UNL     1     -11.194  13.026  68.534  1.00  0.00    -0.309 A  
BRANCH  17  20
HETATM   20  S   UNL     1     -10.331  15.655  68.501  1.00  0.00    -0.225 S  
HETATM   21  O   UNL     1      -9.713  15.979  69.771  1.00  0.00    -0.221 OA 
HETATM   22  O   UNL     1     -11.724  15.961  68.257  1.00  0.00    -0.327 OA 
BRANCH  20  23
HETATM   23  N   UNL     1      -9.463  16.362  67.233  1.00  0.00    -0.225 N  
HETATM   24  H   UNL     1      -8.791  15.853  66.658  1.00  0.00     0.000 HD 
BRANCH  23  25
HETATM   25  C   UNL     1      -9.763  17.729  67.054  1.00  0.00    -0.290 A  
HETATM   26  N   UNL     1     -10.342  18.086  65.936  1.00  0.00    -0.591 NA 
HETATM   27  C   UNL     1     -10.563  19.450  65.962  1.00  0.00    -0.480 A  
HETATM   28  C   UNL     1     -10.237  20.082  67.144  1.00  0.00    -0.441 A  
HETATM   29  S   UNL     1      -9.561  18.942  68.236  1.00  0.00    -0.374 SA 
ENDBRANCH  23  25
ENDBRANCH  20  23
ENDBRANCH  17  20
ENDBRANCH  12  14
ENDBRANCH   9  10
TORSDOF 5
ENDMDL
MODEL       91
REMARK 921   NORMALIZED FREE ENERGY PREDICTED BY IDOCK:   -5.04 KCAL/MOL
REMARK 922        TOTAL FREE ENERGY PREDICTED BY IDOCK:   -7.48 KCAL/MOL
REMARK 923 INTER-LIGAND FREE ENERGY PREDICTED BY IDOCK:   -6.53 KCAL/MOL
REMARK 924 INTRA-LIGAND FREE ENERGY PREDICTED BY IDOCK:   -0.95 KCAL/MOL
REMARK 927      BINDING AFFINITY PREDICTED BY RF-SCORE:    0.00 PKD
ROOT
HETATM    1  O   UNL     1      -9.663   8.420  72.606  1.00  0.00    -0.278 OA 
HETATM    2  C   UNL     1      -9.431   7.367  73.403  1.00  0.00    -0.227 C  
HETATM    3  O   UNL     1      -9.041   7.516  74.554  1.00  0.00    -0.139 OA 
HETATM    4  C   UNL     1      -9.798   6.008  72.903  1.00  0.00    -0.177 A  
HETATM    5  C   UNL     1     -10.317   5.155  73.902  1.00  0.00    -0.289 A  
HETATM    6  C   UNL     1     -10.653   3.829  73.627  1.00  0.00    -0.285 A  
HETATM    7  C   UNL     1     -10.485   3.330  72.345  1.00  0.00    -0.086 A  
HETATM    8  C   UNL     1      -9.980   4.156  71.337  1.00  0.00    -0.223 A  
HETATM    9  C   UNL     1      -9.613   5.491  71.606  1.00  0.00    -0.187 A  
ENDROOT
BRANCH   9  10
HETATM   10  C   UNL     1      -9.116   6.311  70.470  1.00  0.00    -0.154 C  
HETATM   11  O   UNL     1      -7.903   6.338  70.295  1.00  0.00    -0.099 OA 
HETATM   12  N   UNL     1     -10.066   7.019  69.745  1.00  0.00    -0.186 N  
HETATM   13  H   UNL     1     -11.039   6.897  70.025  1.00  0.00     0.000 HD 
BRANCH  12  14
HETATM   14  C   UNL     1      -9.824   7.895  68.658  1.00  0.00    -0.170 A  
HETATM   15  C   UNL     1      -9.271   9.170  68.797  1.00  0.00    -0.136 A  
HETATM   16  C   UNL     1      -9.077   9.999  67.683  1.00  0.00    -0.142 A  
HETATM   17  C   UNL     1      -9.430   9.548  66.411  1.00  0.00    -0.195 A  
HETATM   18  C   UNL     1     -10.173   7.454  67.371  1.00  0.00    -0.315 A  
HETATM   19  C   UNL     1      -9.988   8.277  66.250  1.00  0.00    -0.179 A  
BRANCH  17  20
HETATM   20  S   UNL     1      -9.286  10.650  65.012  1.00  0.00    -0.235 S  
HETATM   21  O   UNL     1     -10.530  10.594  64.269  1.00  0.00    -0.349 OA 
HETATM   22  O   UNL     1      -8.028  10.335  64.372  1.00  0.00    -0.160 OA 
BRANCH  20  23
HETATM   23  N   UNL     1      -9.093  12.180  65.709  1.00  0.00    -0.436 N  
HETATM   24  H   UNL     1      -8.198  12.536  66.045  1.00  0.00     0.000 HD 
BRANCH  23  25
HETATM   25  C   UNL     1     -10.297  12.911  65.776  1.00  0.00    -0.284 A  
HETATM   26  N   UNL     1     -10.600  13.686  64.766  1.00  0.00    -0.402 NA 
HETATM   27  C   UNL     1     -11.813  14.297  65.018  1.00  0.00    -0.396 A  
HETATM   28  C   UNL     1     -12.453  13.893  66.171  1.00  0.00    -0.436 A  
HETATM   29  S   UNL     1     -11.468  12.763  67.008  1.00  0.00    -0.360 SA 
ENDBRANCH  23  25
ENDBRANCH  20  23
ENDBRANCH  17  20
ENDBRANCH  12  14
ENDBRANCH   9  10
TORSDOF 5
ENDMDL
MODEL       92
REMARK 921   NORMALIZED FREE ENERGY PREDICTED BY IDOCK:   -5.04 KCAL/MOL
REMARK 922        TOTAL FREE ENERGY PREDICTED BY IDOCK:   -7.47 KCAL/MOL
REMARK 923 INTER-LIGAND FREE ENERGY PREDICTED BY IDOCK:   -6.82 KCAL/MOL
REMARK 924 INTRA-LIGAND FREE ENERGY PREDICTED BY IDOCK:   -0.65 KCAL/MOL
REMARK 927      BINDING AFFINITY PREDICTED BY RF-SCORE:    0.00 PKD
ROOT
HETATM    1  O   UNL     1      -7.152  16.809  68.921  1.00  0.00    -0.190 OA 
HETATM    2  C   UNL     1      -7.319  18.139  68.861  1.00  0.00    -0.242 C  
HETATM    3  O   UNL     1      -6.499  18.904  69.354  1.00  0.00    -0.272 OA 
HETATM    4  C   UNL     1      -8.456  18.673  68.053  1.00  0.00    -0.314 A  
HETATM    5  C   UNL     1      -8.151  19.865  67.359  1.00  0.00    -0.348 A  
HETATM    6  C   UNL     1      -9.112  20.537  66.605  1.00  0.00    -0.245 A  
HETATM    7  C   UNL     1     -10.399  20.027  66.522  1.00  0.00    -0.572 A  
HETATM    8  C   UNL     1     -10.725  18.846  67.194  1.00  0.00    -0.506 A  
HETATM    9  C   UNL     1      -9.769  18.169  67.980  1.00  0.00    -0.316 A  
ENDROOT
BRANCH   9  10
HETATM   10  C   UNL     1     -10.188  16.902  68.634  1.00  0.00    -0.301 C  
HETATM   11  O   UNL     1     -10.656  16.989  69.764  1.00  0.00    -0.237 OA 
HETATM   12  N   UNL     1      -9.959  15.727  67.929  1.00  0.00    -0.225 N  
HETATM   13  H   UNL     1      -9.551  15.824  66.999  1.00  0.00     0.000 HD 
BRANCH  12  14
HETATM   14  C   UNL     1     -10.232  14.407  68.367  1.00  0.00    -0.243 A  
HETATM   15  C   UNL     1      -9.384  13.321  68.136  1.00  0.00    -0.220 A  
HETATM   16  C   UNL     1      -9.721  12.034  68.576  1.00  0.00    -0.165 A  
HETATM   17  C   UNL     1     -10.917  11.827  69.264  1.00  0.00    -0.175 A  
HETATM   18  C   UNL     1     -11.430  14.183  69.064  1.00  0.00    -0.322 A  
HETATM   19  C   UNL     1     -11.781  12.897  69.504  1.00  0.00    -0.387 A  
BRANCH  17  20
HETATM   20  S   UNL     1     -11.395  10.166  69.723  1.00  0.00    -0.240 S  
HETATM   21  O   UNL     1     -11.122   9.295  68.597  1.00  0.00    -0.054 OA 
HETATM   22  O   UNL     1     -12.728  10.263  70.276  1.00  0.00    -0.236 OA 
BRANCH  20  23
HETATM   23  N   UNL     1     -10.373   9.784  71.016  1.00  0.00    -0.318 N  
HETATM   24  H   UNL     1     -10.513  10.131  71.965  1.00  0.00     0.000 HD 
BRANCH  23  25
HETATM   25  C   UNL     1      -9.308   8.936  70.646  1.00  0.00    -0.212 A  
HETATM   26  N   UNL     1      -8.195   9.493  70.244  1.00  0.00    -0.176 NA 
HETATM   27  C   UNL     1      -7.280   8.501  69.944  1.00  0.00    -0.051 A  
HETATM   28  C   UNL     1      -7.688   7.214  70.223  1.00  0.00    -0.095 A  
HETATM   29  S   UNL     1      -9.302   7.239  70.811  1.00  0.00    -0.159 SA 
ENDBRANCH  23  25
ENDBRANCH  20  23
ENDBRANCH  17  20
ENDBRANCH  12  14
ENDBRANCH   9  10
TORSDOF 5
ENDMDL
MODEL       93
REMARK 921   NORMALIZED FREE ENERGY PREDICTED BY IDOCK:   -4.96 KCAL/MOL
REMARK 922        TOTAL FREE ENERGY PREDICTED BY IDOCK:   -7.37 KCAL/MOL
REMARK 923 INTER-LIGAND FREE ENERGY PREDICTED BY IDOCK:   -6.79 KCAL/MOL
REMARK 924 INTRA-LIGAND FREE ENERGY PREDICTED BY IDOCK:   -0.58 KCAL/MOL
REMARK 927      BINDING AFFINITY PREDICTED BY RF-SCORE:    0.00 PKD
ROOT
HETATM    1  O   UNL     1     -11.666  13.771  67.704  1.00  0.00    -0.325 OA 
HETATM    2  C   UNL     1     -11.478  14.565  68.769  1.00  0.00    -0.294 C  
HETATM    3  O   UNL     1     -10.827  15.598  68.683  1.00  0.00    -0.249 OA 
HETATM    4  C   UNL     1     -12.201  14.233  70.033  1.00  0.00    -0.417 A  
HETATM    5  C   UNL     1     -12.649  15.367  70.747  1.00  0.00    -0.497 A  
HETATM    6  C   UNL     1     -13.288  15.248  71.980  1.00  0.00    -0.522 A  
HETATM    7  C   UNL     1     -13.501  13.991  72.525  1.00  0.00    -0.661 A  
HETATM    8  C   UNL     1     -13.074  12.853  71.836  1.00  0.00    -0.474 A  
HETATM    9  C   UNL     1     -12.404  12.959  70.598  1.00  0.00    -0.385 A  
ENDROOT
BRANCH   9  10
HETATM   10  C   UNL     1     -12.013  11.698  69.915  1.00  0.00    -0.340 C  
HETATM   11  O   UNL     1     -12.905  10.883  69.704  1.00  0.00    -0.197 OA 
HETATM   12  N   UNL     1     -10.664  11.533  69.630  1.00  0.00    -0.456 N  
HETATM   13  H   UNL     1     -10.046  12.305  69.879  1.00  0.00     0.000 HD 
BRANCH  12  14
HETATM   14  C   UNL     1     -10.057  10.403  69.028  1.00  0.00    -0.213 A  
HETATM   15  C   UNL     1      -9.411   9.394  69.747  1.00  0.00    -0.217 A  
HETATM   16  C   UNL     1      -8.809   8.312  69.092  1.00  0.00    -0.143 A  
HETATM   17  C   UNL     1      -8.859   8.227  67.700  1.00  0.00    -0.136 A  
HETATM   18  C   UNL     1     -10.101  10.302  67.628  1.00  0.00    -0.229 A  
HETATM   19  C   UNL     1      -9.497   9.225  66.961  1.00  0.00    -0.205 A  
BRANCH  17  20
HETATM   20  S   UNL     1      -7.993   6.905  66.864  1.00  0.00    -0.110 S  
HETATM   21  O   UNL     1      -8.591   6.737  65.555  1.00  0.00    -0.147 OA 
HETATM   22  O   UNL     1      -7.933   5.801  67.797  1.00  0.00    -0.097 OA 
BRANCH  20  23
HETATM   23  N   UNL     1      -6.409   7.481  66.711  1.00  0.00    -0.047 N  
HETATM   24  H   UNL     1      -5.614   7.078  67.207  1.00  0.00     0.000 HD 
BRANCH  23  25
HETATM   25  C   UNL     1      -6.304   8.575  65.827  1.00  0.00    -0.052 A  
HETATM   26  N   UNL     1      -5.944   9.731  66.325  1.00  0.00    -0.061 NA 
HETATM   27  C   UNL     1      -5.886  10.660  65.304  1.00  0.00    -0.107 A  
HETATM   28  C   UNL     1      -6.104  10.163  64.036  1.00  0.00    -0.137 A  
HETATM   29  S   UNL     1      -6.469   8.488  64.132  1.00  0.00    -0.071 SA 
ENDBRANCH  23  25
ENDBRANCH  20  23
ENDBRANCH  17  20
ENDBRANCH  12  14
ENDBRANCH   9  10
TORSDOF 5
ENDMDL
MODEL       94
REMARK 921   NORMALIZED FREE ENERGY PREDICTED BY IDOCK:   -4.95 KCAL/MOL
REMARK 922        TOTAL FREE ENERGY PREDICTED BY IDOCK:   -7.36 KCAL/MOL
REMARK 923 INTER-LIGAND FREE ENERGY PREDICTED BY IDOCK:   -6.72 KCAL/MOL
REMARK 924 INTRA-LIGAND FREE ENERGY PREDICTED BY IDOCK:   -0.65 KCAL/MOL
REMARK 927      BINDING AFFINITY PREDICTED BY RF-SCORE:    0.00 PKD
ROOT
HETATM    1  O   UNL     1     -10.857  12.594  67.829  1.00  0.00    -0.212 OA 
HETATM    2  C   UNL     1     -11.461  12.475  66.636  1.00  0.00    -0.359 C  
HETATM    3  O   UNL     1     -12.514  13.052  66.398  1.00  0.00    -0.401 OA 
HETATM    4  C   UNL     1     -10.745  11.737  65.553  1.00  0.00    -0.329 A  
HETATM    5  C   UNL     1     -10.926  12.294  64.268  1.00  0.00    -0.392 A  
HETATM    6  C   UNL     1     -10.382  11.699  63.131  1.00  0.00    -0.383 A  
HETATM    7  C   UNL     1      -9.637  10.535  63.254  1.00  0.00    -0.373 A  
HETATM    8  C   UNL     1      -9.437   9.968  64.515  1.00  0.00    -0.359 A  
HETATM    9  C   UNL     1     -10.002  10.545  65.671  1.00  0.00    -0.332 A  
ENDROOT
BRANCH   9  10
HETATM   10  C   UNL     1      -9.713   9.897  66.977  1.00  0.00    -0.182 C  
HETATM   11  O   UNL     1      -8.533   9.796  67.297  1.00  0.00    -0.124 OA 
HETATM   12  N   UNL     1     -10.802   9.413  67.691  1.00  0.00    -0.459 N  
HETATM   13  H   UNL     1     -11.723   9.569  67.282  1.00  0.00     0.000 HD 
BRANCH  12  14
HETATM   14  C   UNL     1     -10.766   8.724  68.929  1.00  0.00    -0.087 A  
HETATM   15  C   UNL     1     -10.828   9.358  70.172  1.00  0.00    -0.287 A  
HETATM   16  C   UNL     1     -10.765   8.622  71.363  1.00  0.00    -0.338 A  
HETATM   17  C   UNL     1     -10.648   7.233  71.315  1.00  0.00    -0.220 A  
HETATM   18  C   UNL     1     -10.651   7.325  68.897  1.00  0.00    -0.207 A  
HETATM   19  C   UNL     1     -10.582   6.578  70.083  1.00  0.00    -0.277 A  
BRANCH  17  20
HETATM   20  S   UNL     1     -10.454   6.310  72.834  1.00  0.00    -0.231 S  
HETATM   21  O   UNL     1     -11.280   5.122  72.744  1.00  0.00    -0.263 OA 
HETATM   22  O   UNL     1     -10.636   7.257  73.913  1.00  0.00    -0.344 OA 
BRANCH  20  23
HETATM   23  N   UNL     1      -8.818   5.882  72.851  1.00  0.00    -0.124 N  
HETATM   24  H   UNL     1      -8.485   4.927  72.724  1.00  0.00     0.000 HD 
BRANCH  23  25
HETATM   25  C   UNL     1      -7.962   6.984  73.060  1.00  0.00    -0.101 A  
HETATM   26  N   UNL     1      -7.837   7.439  74.281  1.00  0.00    -0.133 NA 
HETATM   27  C   UNL     1      -6.951   8.500  74.274  1.00  0.00    -0.130 A  
HETATM   28  C   UNL     1      -6.346   8.762  73.063  1.00  0.00    -0.004 A  
HETATM   29  S   UNL     1      -6.962   7.690  71.871  1.00  0.00    -0.066 SA 
ENDBRANCH  23  25
ENDBRANCH  20  23
ENDBRANCH  17  20
ENDBRANCH  12  14
ENDBRANCH   9  10
TORSDOF 5
ENDMDL
MODEL       95
REMARK 921   NORMALIZED FREE ENERGY PREDICTED BY IDOCK:   -4.94 KCAL/MOL
REMARK 922        TOTAL FREE ENERGY PREDICTED BY IDOCK:   -7.34 KCAL/MOL
REMARK 923 INTER-LIGAND FREE ENERGY PREDICTED BY IDOCK:   -6.57 KCAL/MOL
REMARK 924 INTRA-LIGAND FREE ENERGY PREDICTED BY IDOCK:   -0.77 KCAL/MOL
REMARK 927      BINDING AFFINITY PREDICTED BY RF-SCORE:    0.00 PKD
ROOT
HETATM    1  O   UNL     1     -12.140  13.907  70.802  1.00  0.00    -0.334 OA 
HETATM    2  C   UNL     1     -12.276  15.116  70.236  1.00  0.00    -0.350 C  
HETATM    3  O   UNL     1     -13.103  15.919  70.647  1.00  0.00    -0.467 OA 
HETATM    4  C   UNL     1     -11.296  15.516  69.183  1.00  0.00    -0.333 A  
HETATM    5  C   UNL     1     -10.937  16.882  69.229  1.00  0.00    -0.112 A  
HETATM    6  C   UNL     1     -10.081  17.444  68.282  1.00  0.00    -0.339 A  
HETATM    7  C   UNL     1      -9.558  16.651  67.272  1.00  0.00    -0.243 A  
HETATM    8  C   UNL     1      -9.892  15.296  67.208  1.00  0.00    -0.220 A  
HETATM    9  C   UNL     1     -10.776  14.718  68.145  1.00  0.00    -0.247 A  
ENDROOT
BRANCH   9  10
HETATM   10  C   UNL     1     -11.052  13.263  68.026  1.00  0.00    -0.256 C  
HETATM   11  O   UNL     1     -12.012  12.936  67.336  1.00  0.00    -0.363 OA 
HETATM   12  N   UNL     1     -10.233  12.408  68.752  1.00  0.00    -0.393 N  
HETATM   13  H   UNL     1      -9.479  12.841  69.286  1.00  0.00     0.000 HD 
BRANCH  12  14
HETATM   14  C   UNL     1     -10.335  10.997  68.827  1.00  0.00    -0.199 A  
HETATM   15  C   UNL     1     -10.772  10.310  69.963  1.00  0.00    -0.345 A  
HETATM   16  C   UNL     1     -10.828   8.910  69.983  1.00  0.00    -0.239 A  
HETATM   17  C   UNL     1     -10.454   8.183  68.853  1.00  0.00    -0.185 A  
HETATM   18  C   UNL     1      -9.963  10.251  67.697  1.00  0.00    -0.212 A  
HETATM   19  C   UNL     1     -10.012   8.849  67.708  1.00  0.00    -0.241 A  
BRANCH  17  20
HETATM   20  S   UNL     1     -10.421   6.397  68.924  1.00  0.00    -0.250 S  
HETATM   21  O   UNL     1     -10.309   5.898  67.567  1.00  0.00    -0.168 OA 
HETATM   22  O   UNL     1     -11.527   6.001  69.768  1.00  0.00    -0.395 OA 
BRANCH  20  23
HETATM   23  N   UNL     1      -9.013   6.044  69.792  1.00  0.00    -0.132 N  
HETATM   24  H   UNL     1      -8.188   6.644  69.794  1.00  0.00     0.000 HD 
BRANCH  23  25
HETATM   25  C   UNL     1      -9.098   4.834  70.513  1.00  0.00    -0.120 A  
HETATM   26  N   UNL     1      -8.563   3.766  69.980  1.00  0.00    -0.063 NA 
HETATM   27  C   UNL     1      -8.739   2.700  70.841  1.00  0.00    -0.068 A  
HETATM   28  C   UNL     1      -9.315   3.006  72.056  1.00  0.00    -0.123 A  
HETATM   29  S   UNL     1      -9.720   4.675  72.093  1.00  0.00    -0.172 SA 
ENDBRANCH  23  25
ENDBRANCH  20  23
ENDBRANCH  17  20
ENDBRANCH  12  14
ENDBRANCH   9  10
TORSDOF 5
ENDMDL
MODEL       96
REMARK 921   NORMALIZED FREE ENERGY PREDICTED BY IDOCK:   -4.91 KCAL/MOL
REMARK 922        TOTAL FREE ENERGY PREDICTED BY IDOCK:   -7.31 KCAL/MOL
REMARK 923 INTER-LIGAND FREE ENERGY PREDICTED BY IDOCK:   -6.96 KCAL/MOL
REMARK 924 INTRA-LIGAND FREE ENERGY PREDICTED BY IDOCK:   -0.35 KCAL/MOL
REMARK 927      BINDING AFFINITY PREDICTED BY RF-SCORE:    0.00 PKD
ROOT
HETATM    1  O   UNL     1     -12.109  13.845  65.852  1.00  0.00    -0.384 OA 
HETATM    2  C   UNL     1     -11.147  14.780  65.854  1.00  0.00    -0.340 C  
HETATM    3  O   UNL     1     -10.578  15.107  64.820  1.00  0.00    -0.398 OA 
HETATM    4  C   UNL     1     -10.885  15.520  67.124  1.00  0.00    -0.316 A  
HETATM    5  C   UNL     1     -10.574  16.885  66.934  1.00  0.00    -0.214 A  
HETATM    6  C   UNL     1     -10.239  17.713  68.005  1.00  0.00    -0.362 A  
HETATM    7  C   UNL     1     -10.215  17.197  69.291  1.00  0.00    -0.231 A  
HETATM    8  C   UNL     1     -10.526  15.852  69.507  1.00  0.00    -0.281 A  
HETATM    9  C   UNL     1     -10.843  14.996  68.431  1.00  0.00    -0.256 A  
ENDROOT
BRANCH   9  10
HETATM   10  C   UNL     1     -11.193  13.588  68.751  1.00  0.00    -0.274 C  
HETATM   11  O   UNL     1     -12.150  13.410  69.497  1.00  0.00    -0.311 OA 
HETATM   12  N   UNL     1     -10.371  12.601  68.221  1.00  0.00    -0.236 N  
HETATM   13  H   UNL     1      -9.607  12.916  67.623  1.00  0.00     0.000 HD 
BRANCH  12  14
HETATM   14  C   UNL     1     -10.483  11.204  68.425  1.00  0.00    -0.188 A  
HETATM   15  C   UNL     1     -10.660  10.614  69.679  1.00  0.00    -0.260 A  
HETATM   16  C   UNL     1     -10.741   9.222  69.819  1.00  0.00    -0.245 A  
HETATM   17  C   UNL     1     -10.654   8.405  68.692  1.00  0.00    -0.113 A  
HETATM   18  C   UNL     1     -10.400  10.368  67.300  1.00  0.00    -0.278 A  
HETATM   19  C   UNL     1     -10.474   8.973  67.429  1.00  0.00    -0.338 A  
BRANCH  17  20
HETATM   20  S   UNL     1     -10.644   6.628  68.888  1.00  0.00    -0.252 S  
HETATM   21  O   UNL     1     -11.650   6.281  69.872  1.00  0.00    -0.435 OA 
HETATM   22  O   UNL     1      -9.262   6.246  69.078  1.00  0.00    -0.128 OA 
BRANCH  20  23
HETATM   23  N   UNL     1     -11.091   6.042  67.365  1.00  0.00    -0.482 N  
HETATM   24  H   UNL     1     -11.986   6.252  66.922  1.00  0.00     0.000 HD 
BRANCH  23  25
HETATM   25  C   UNL     1     -10.099   5.233  66.772  1.00  0.00    -0.224 A  
HETATM   26  N   UNL     1      -9.469   5.706  65.727  1.00  0.00    -0.076 NA 
HETATM   27  C   UNL     1      -8.536   4.776  65.309  1.00  0.00    -0.137 A  
HETATM   28  C   UNL     1      -8.410   3.660  66.109  1.00  0.00    -0.102 A  
HETATM   29  S   UNL     1      -9.550   3.741  67.390  1.00  0.00    -0.093 SA 
ENDBRANCH  23  25
ENDBRANCH  20  23
ENDBRANCH  17  20
ENDBRANCH  12  14
ENDBRANCH   9  10
TORSDOF 5
ENDMDL
MODEL       97
REMARK 921   NORMALIZED FREE ENERGY PREDICTED BY IDOCK:   -4.91 KCAL/MOL
REMARK 922        TOTAL FREE ENERGY PREDICTED BY IDOCK:   -7.31 KCAL/MOL
REMARK 923 INTER-LIGAND FREE ENERGY PREDICTED BY IDOCK:   -7.06 KCAL/MOL
REMARK 924 INTRA-LIGAND FREE ENERGY PREDICTED BY IDOCK:   -0.25 KCAL/MOL
REMARK 927      BINDING AFFINITY PREDICTED BY RF-SCORE:    0.00 PKD
ROOT
HETATM    1  O   UNL     1      -7.938   7.473  69.722  1.00  0.00    -0.118 OA 
HETATM    2  C   UNL     1      -7.362   6.606  68.876  1.00  0.00    -0.094 C  
HETATM    3  O   UNL     1      -6.148   6.447  68.859  1.00  0.00    -0.026 OA 
HETATM    4  C   UNL     1      -8.248   5.733  68.049  1.00  0.00    -0.104 A  
HETATM    5  C   UNL     1      -7.748   4.424  67.868  1.00  0.00    -0.080 A  
HETATM    6  C   UNL     1      -8.412   3.492  67.072  1.00  0.00    -0.107 A  
HETATM    7  C   UNL     1      -9.598   3.845  66.445  1.00  0.00    -0.204 A  
HETATM    8  C   UNL     1     -10.117   5.131  66.614  1.00  0.00    -0.267 A  
HETATM    9  C   UNL     1      -9.443   6.092  67.396  1.00  0.00    -0.118 A  
ENDROOT
BRANCH   9  10
HETATM   10  C   UNL     1     -10.081   7.426  67.552  1.00  0.00    -0.192 C  
HETATM   11  O   UNL     1     -10.899   7.547  68.457  1.00  0.00    -0.117 OA 
HETATM   12  N   UNL     1      -9.735   8.398  66.621  1.00  0.00    -0.229 N  
HETATM   13  H   UNL     1      -9.042   8.135  65.921  1.00  0.00     0.000 HD 
BRANCH  12  14
HETATM   14  C   UNL     1     -10.245   9.718  66.544  1.00  0.00    -0.219 A  
HETATM   15  C   UNL     1     -10.999  10.318  67.555  1.00  0.00    -0.344 A  
HETATM   16  C   UNL     1     -11.496  11.620  67.410  1.00  0.00    -0.357 A  
HETATM   17  C   UNL     1     -11.230  12.340  66.244  1.00  0.00    -0.323 A  
HETATM   18  C   UNL     1      -9.983  10.454  65.378  1.00  0.00    -0.362 A  
HETATM   19  C   UNL     1     -10.480  11.757  65.220  1.00  0.00    -0.320 A  
BRANCH  17  20
HETATM   20  S   UNL     1     -11.960  13.955  66.017  1.00  0.00    -0.436 S  
HETATM   21  O   UNL     1     -13.226  13.782  65.333  1.00  0.00    -0.722 OA 
HETATM   22  O   UNL     1     -10.925  14.796  65.455  1.00  0.00    -0.321 OA 
BRANCH  20  23
HETATM   23  N   UNL     1     -12.220  14.516  67.592  1.00  0.00    -0.614 N  
HETATM   24  H   UNL     1     -13.070  14.327  68.123  1.00  0.00     0.000 HD 
BRANCH  23  25
HETATM   25  C   UNL     1     -11.140  15.272  68.094  1.00  0.00    -0.308 A  
HETATM   26  N   UNL     1     -11.336  16.548  68.311  1.00  0.00    -0.272 NA 
HETATM   27  C   UNL     1     -10.172  17.100  68.811  1.00  0.00    -0.332 A  
HETATM   28  C   UNL     1      -9.149  16.208  69.057  1.00  0.00    -0.250 A  
HETATM   29  S   UNL     1      -9.634  14.633  68.576  1.00  0.00    -0.223 SA 
ENDBRANCH  23  25
ENDBRANCH  20  23
ENDBRANCH  17  20
ENDBRANCH  12  14
ENDBRANCH   9  10
TORSDOF 5
ENDMDL
MODEL       98
REMARK 921   NORMALIZED FREE ENERGY PREDICTED BY IDOCK:   -4.88 KCAL/MOL
REMARK 922        TOTAL FREE ENERGY PREDICTED BY IDOCK:   -7.28 KCAL/MOL
REMARK 923 INTER-LIGAND FREE ENERGY PREDICTED BY IDOCK:   -6.51 KCAL/MOL
REMARK 924 INTRA-LIGAND FREE ENERGY PREDICTED BY IDOCK:   -0.77 KCAL/MOL
REMARK 927      BINDING AFFINITY PREDICTED BY RF-SCORE:    0.00 PKD
ROOT
HETATM    1  O   UNL     1      -9.778  13.822  68.557  1.00  0.00    -0.225 OA 
HETATM    2  C   UNL     1     -10.629  14.574  67.843  1.00  0.00    -0.243 C  
HETATM    3  O   UNL     1     -10.892  15.723  68.175  1.00  0.00    -0.283 OA 
HETATM    4  C   UNL     1     -11.139  14.029  66.550  1.00  0.00    -0.315 A  
HETATM    5  C   UNL     1     -11.278  15.002  65.536  1.00  0.00    -0.344 A  
HETATM    6  C   UNL     1     -11.801  14.683  64.283  1.00  0.00    -0.355 A  
HETATM    7  C   UNL     1     -12.189  13.380  64.013  1.00  0.00    -0.466 A  
HETATM    8  C   UNL     1     -12.055  12.396  64.996  1.00  0.00    -0.468 A  
HETATM    9  C   UNL     1     -11.551  12.709  66.276  1.00  0.00    -0.440 A  
ENDROOT
BRANCH   9  10
HETATM   10  C   UNL     1     -11.409  11.598  67.252  1.00  0.00    -0.305 C  
HETATM   11  O   UNL     1     -12.321  11.448  68.058  1.00  0.00    -0.444 OA 
HETATM   12  N   UNL     1     -10.230  10.865  67.201  1.00  0.00    -0.201 N  
HETATM   13  H   UNL     1      -9.563  11.122  66.474  1.00  0.00     0.000 HD 
BRANCH  12  14
HETATM   14  C   UNL     1      -9.857   9.797  68.055  1.00  0.00    -0.148 A  
HETATM   15  C   UNL     1      -9.848   8.456  67.662  1.00  0.00    -0.222 A  
HETATM   16  C   UNL     1      -9.491   7.442  68.560  1.00  0.00    -0.144 A  
HETATM   17  C   UNL     1      -9.129   7.768  69.867  1.00  0.00    -0.147 A  
HETATM   18  C   UNL     1      -9.488  10.110  69.373  1.00  0.00    -0.240 A  
HETATM   19  C   UNL     1      -9.134   9.101  70.283  1.00  0.00    -0.247 A  
BRANCH  17  20
HETATM   20  S   UNL     1      -8.785   6.463  71.040  1.00  0.00    -0.135 S  
HETATM   21  O   UNL     1      -8.708   7.057  72.360  1.00  0.00    -0.124 OA 
HETATM   22  O   UNL     1      -7.671   5.713  70.501  1.00  0.00    -0.089 OA 
BRANCH  20  23
HETATM   23  N   UNL     1     -10.134   5.448  70.936  1.00  0.00    -0.207 N  
HETATM   24  H   UNL     1     -11.094   5.774  71.052  1.00  0.00     0.000 HD 
BRANCH  23  25
HETATM   25  C   UNL     1      -9.794   4.105  70.672  1.00  0.00    -0.179 A  
HETATM   26  N   UNL     1      -9.591   3.759  69.427  1.00  0.00    -0.184 NA 
HETATM   27  C   UNL     1      -9.258   2.418  69.383  1.00  0.00    -0.123 A  
HETATM   28  C   UNL     1      -9.118   1.801  70.608  1.00  0.00    -0.084 A  
HETATM   29  S   UNL     1      -9.487   2.918  71.858  1.00  0.00    -0.145 SA 
ENDBRANCH  23  25
ENDBRANCH  20  23
ENDBRANCH  17  20
ENDBRANCH  12  14
ENDBRANCH   9  10
TORSDOF 5
ENDMDL
MODEL       99
REMARK 921   NORMALIZED FREE ENERGY PREDICTED BY IDOCK:   -4.88 KCAL/MOL
REMARK 922        TOTAL FREE ENERGY PREDICTED BY IDOCK:   -7.27 KCAL/MOL
REMARK 923 INTER-LIGAND FREE ENERGY PREDICTED BY IDOCK:   -6.30 KCAL/MOL
REMARK 924 INTRA-LIGAND FREE ENERGY PREDICTED BY IDOCK:   -0.97 KCAL/MOL
REMARK 927      BINDING AFFINITY PREDICTED BY RF-SCORE:    0.00 PKD
ROOT
HETATM    1  O   UNL     1      -8.824  13.626  67.854  1.00  0.00    -0.168 OA 
HETATM    2  C   UNL     1      -9.452  14.717  67.390  1.00  0.00    -0.201 C  
HETATM    3  O   UNL     1      -9.108  15.841  67.732  1.00  0.00    -0.187 OA 
HETATM    4  C   UNL     1     -10.491  14.537  66.332  1.00  0.00    -0.295 A  
HETATM    5  C   UNL     1     -10.499  15.564  65.362  1.00  0.00    -0.429 A  
HETATM    6  C   UNL     1     -11.444  15.592  64.336  1.00  0.00    -0.264 A  
HETATM    7  C   UNL     1     -12.397  14.588  64.253  1.00  0.00    -0.396 A  
HETATM    8  C   UNL     1     -12.406  13.557  65.196  1.00  0.00    -0.488 A  
HETATM    9  C   UNL     1     -11.472  13.529  66.253  1.00  0.00    -0.350 A  
ENDROOT
BRANCH   9  10
HETATM   10  C   UNL     1     -11.529  12.379  67.193  1.00  0.00    -0.357 C  
HETATM   11  O   UNL     1     -12.363  12.438  68.090  1.00  0.00    -0.200 OA 
HETATM   12  N   UNL     1     -10.595  11.369  67.005  1.00  0.00    -0.236 N  
HETATM   13  H   UNL     1      -9.960  11.474  66.214  1.00  0.00     0.000 HD 
BRANCH  12  14
HETATM   14  C   UNL     1     -10.431  10.206  67.799  1.00  0.00    -0.232 A  
HETATM   15  C   UNL     1     -10.077  10.233  69.150  1.00  0.00    -0.232 A  
HETATM   16  C   UNL     1      -9.907   9.046  69.876  1.00  0.00    -0.194 A  
HETATM   17  C   UNL     1     -10.104   7.815  69.251  1.00  0.00    -0.199 A  
HETATM   18  C   UNL     1     -10.628   8.960  67.184  1.00  0.00    -0.301 A  
HETATM   19  C   UNL     1     -10.456   7.765  67.900  1.00  0.00    -0.263 A  
BRANCH  17  20
HETATM   20  S   UNL     1      -9.777   6.305  70.150  1.00  0.00    -0.164 S  
HETATM   21  O   UNL     1      -8.392   5.941  69.924  1.00  0.00    -0.117 OA 
HETATM   22  O   UNL     1     -10.846   5.390  69.814  1.00  0.00    -0.297 OA 
BRANCH  20  23
HETATM   23  N   UNL     1     -10.011   6.731  71.771  1.00  0.00    -0.175 N  
HETATM   24  H   UNL     1     -10.727   7.387  72.082  1.00  0.00     0.000 HD 
BRANCH  23  25
HETATM   25  C   UNL     1      -9.113   6.085  72.646  1.00  0.00    -0.137 A  
HETATM   26  N   UNL     1      -8.209   6.817  73.245  1.00  0.00    -0.110 NA 
HETATM   27  C   UNL     1      -7.445   6.005  74.062  1.00  0.00    -0.091 A  
HETATM   28  C   UNL     1      -7.853   4.691  74.142  1.00  0.00    -0.100 A  
HETATM   29  S   UNL     1      -9.195   4.443  73.100  1.00  0.00    -0.117 SA 
ENDBRANCH  23  25
ENDBRANCH  20  23
ENDBRANCH  17  20
ENDBRANCH  12  14
ENDBRANCH   9  10
TORSDOF 5
ENDMDL
MODEL      100
REMARK 921   NORMALIZED FREE ENERGY PREDICTED BY IDOCK:   -4.87 KCAL/MOL
REMARK 922        TOTAL FREE ENERGY PREDICTED BY IDOCK:   -7.26 KCAL/MOL
REMARK 923 INTER-LIGAND FREE ENERGY PREDICTED BY IDOCK:   -6.33 KCAL/MOL
REMARK 924 INTRA-LIGAND FREE ENERGY PREDICTED BY IDOCK:   -0.93 KCAL/MOL
REMARK 927      BINDING AFFINITY PREDICTED BY RF-SCORE:    0.00 PKD
ROOT
HETATM    1  O   UNL     1     -12.060  11.515  67.229  1.00  0.00    -0.548 OA 
HETATM    2  C   UNL     1     -11.858  12.417  66.257  1.00  0.00    -0.364 C  
HETATM    3  O   UNL     1     -12.612  12.492  65.295  1.00  0.00    -0.645 OA 
HETATM    4  C   UNL     1     -10.774  13.427  66.445  1.00  0.00    -0.289 A  
HETATM    5  C   UNL     1     -11.098  14.709  65.946  1.00  0.00    -0.338 A  
HETATM    6  C   UNL     1     -10.180  15.758  65.980  1.00  0.00    -0.352 A  
HETATM    7  C   UNL     1      -8.920  15.551  66.520  1.00  0.00    -0.348 A  
HETATM    8  C   UNL     1      -8.578  14.295  67.026  1.00  0.00    -0.213 A  
HETATM    9  C   UNL     1      -9.487  13.217  66.977  1.00  0.00    -0.243 A  
ENDROOT
BRANCH   9  10
HETATM   10  C   UNL     1      -9.056  11.924  67.568  1.00  0.00    -0.178 C  
HETATM   11  O   UNL     1      -8.288  11.239  66.901  1.00  0.00    -0.142 OA 
HETATM   12  N   UNL     1      -9.606  11.581  68.797  1.00  0.00    -0.354 N  
HETATM   13  H   UNL     1     -10.239  12.260  69.219  1.00  0.00     0.000 HD 
BRANCH  12  14
HETATM   14  C   UNL     1      -9.379  10.387  69.524  1.00  0.00    -0.127 A  
HETATM   15  C   UNL     1      -8.168  10.076  70.147  1.00  0.00    -0.083 A  
HETATM   16  C   UNL     1      -7.997   8.866  70.834  1.00  0.00    -0.173 A  
HETATM   17  C   UNL     1      -9.052   7.956  70.910  1.00  0.00    -0.151 A  
HETATM   18  C   UNL     1     -10.432   9.462  69.611  1.00  0.00    -0.236 A  
HETATM   19  C   UNL     1     -10.271   8.245  70.292  1.00  0.00    -0.199 A  
BRANCH  17  20
HETATM   20  S   UNL     1      -8.794   6.368  71.688  1.00  0.00    -0.135 S  
HETATM   21  O   UNL     1      -8.837   6.562  73.124  1.00  0.00    -0.128 OA 
HETATM   22  O   UNL     1      -7.630   5.787  71.055  1.00  0.00    -0.091 OA 
BRANCH  20  23
HETATM   23  N   UNL     1     -10.118   5.442  71.186  1.00  0.00    -0.202 N  
HETATM   24  H   UNL     1     -11.073   5.606  71.504  1.00  0.00     0.000 HD 
BRANCH  23  25
HETATM   25  C   UNL     1      -9.763   4.419  70.282  1.00  0.00    -0.211 A  
HETATM   26  N   UNL     1      -9.690   3.195  70.740  1.00  0.00    -0.148 NA 
HETATM   27  C   UNL     1      -9.347   2.348  69.704  1.00  0.00    -0.097 A  
HETATM   28  C   UNL     1      -9.267   2.936  68.459  1.00  0.00    -0.181 A  
HETATM   29  S   UNL     1      -9.558   4.622  68.601  1.00  0.00    -0.153 SA 
ENDBRANCH  23  25
ENDBRANCH  20  23
ENDBRANCH  17  20
ENDBRANCH  12  14
ENDBRANCH   9  10
TORSDOF 5
ENDMDL
MODEL      101
REMARK 921   NORMALIZED FREE ENERGY PREDICTED BY IDOCK:   -4.87 KCAL/MOL
REMARK 922        TOTAL FREE ENERGY PREDICTED BY IDOCK:   -7.25 KCAL/MOL
REMARK 923 INTER-LIGAND FREE ENERGY PREDICTED BY IDOCK:   -7.11 KCAL/MOL
REMARK 924 INTRA-LIGAND FREE ENERGY PREDICTED BY IDOCK:   -0.15 KCAL/MOL
REMARK 927      BINDING AFFINITY PREDICTED BY RF-SCORE:    0.00 PKD
ROOT
HETATM    1  O   UNL     1      -9.869   9.742  65.196  1.00  0.00    -0.315 OA 
HETATM    2  C   UNL     1      -9.899  10.899  64.517  1.00  0.00    -0.300 C  
HETATM    3  O   UNL     1      -9.240  11.053  63.497  1.00  0.00    -0.222 OA 
HETATM    4  C   UNL     1     -10.866  11.949  64.955  1.00  0.00    -0.356 A  
HETATM    5  C   UNL     1     -11.446  12.670  63.887  1.00  0.00    -0.509 A  
HETATM    6  C   UNL     1     -12.324  13.729  64.113  1.00  0.00    -0.382 A  
HETATM    7  C   UNL     1     -12.649  14.087  65.412  1.00  0.00    -0.529 A  
HETATM    8  C   UNL     1     -12.094  13.386  66.486  1.00  0.00    -0.444 A  
HETATM    9  C   UNL     1     -11.186  12.328  66.274  1.00  0.00    -0.367 A  
ENDROOT
BRANCH   9  10
HETATM   10  C   UNL     1     -10.668  11.613  67.469  1.00  0.00    -0.215 C  
HETATM   11  O   UNL     1      -9.676  12.086  68.012  1.00  0.00    -0.185 OA 
HETATM   12  N   UNL     1     -11.322  10.441  67.831  1.00  0.00    -0.461 N  
HETATM   13  H   UNL     1     -12.131  10.177  67.268  1.00  0.00     0.000 HD 
BRANCH  12  14
HETATM   14  C   UNL     1     -10.982   9.575  68.899  1.00  0.00    -0.086 A  
HETATM   15  C   UNL     1     -10.518   8.269  68.722  1.00  0.00    -0.200 A  
HETATM   16  C   UNL     1     -10.220   7.452  69.821  1.00  0.00    -0.210 A  
HETATM   17  C   UNL     1     -10.376   7.947  71.116  1.00  0.00    -0.200 A  
HETATM   18  C   UNL     1     -11.131  10.059  70.208  1.00  0.00    -0.381 A  
HETATM   19  C   UNL     1     -10.840   9.249  71.316  1.00  0.00    -0.417 A  
BRANCH  17  20
HETATM   20  S   UNL     1     -10.102   6.865  72.513  1.00  0.00    -0.176 S  
HETATM   21  O   UNL     1     -10.851   5.645  72.287  1.00  0.00    -0.223 OA 
HETATM   22  O   UNL     1     -10.330   7.663  73.698  1.00  0.00    -0.324 OA 
BRANCH  20  23
HETATM   23  N   UNL     1      -8.441   6.546  72.469  1.00  0.00    -0.122 N  
HETATM   24  H   UNL     1      -8.002   5.781  72.980  1.00  0.00     0.000 HD 
BRANCH  23  25
HETATM   25  C   UNL     1      -7.728   7.449  71.654  1.00  0.00    -0.086 A  
HETATM   26  N   UNL     1      -7.586   8.678  72.080  1.00  0.00    -0.273 NA 
HETATM   27  C   UNL     1      -6.852   9.392  71.152  1.00  0.00    -0.026 A  
HETATM   28  C   UNL     1      -6.365   8.660  70.089  1.00  0.00    -0.038 A  
HETATM   29  S   UNL     1      -6.908   7.036  70.216  1.00  0.00    -0.058 SA 
ENDBRANCH  23  25
ENDBRANCH  20  23
ENDBRANCH  17  20
ENDBRANCH  12  14
ENDBRANCH   9  10
TORSDOF 5
ENDMDL
MODEL      102
REMARK 921   NORMALIZED FREE ENERGY PREDICTED BY IDOCK:   -4.85 KCAL/MOL
REMARK 922        TOTAL FREE ENERGY PREDICTED BY IDOCK:   -7.23 KCAL/MOL
REMARK 923 INTER-LIGAND FREE ENERGY PREDICTED BY IDOCK:   -7.07 KCAL/MOL
REMARK 924 INTRA-LIGAND FREE ENERGY PREDICTED BY IDOCK:   -0.16 KCAL/MOL
REMARK 927      BINDING AFFINITY PREDICTED BY RF-SCORE:    0.00 PKD
ROOT
HETATM    1  O   UNL     1      -9.168  11.742  67.026  1.00  0.00    -0.178 OA 
HETATM    2  C   UNL     1      -9.321  11.439  65.728  1.00  0.00    -0.228 C  
HETATM    3  O   UNL     1      -8.634  10.578  65.193  1.00  0.00    -0.175 OA 
HETATM    4  C   UNL     1     -10.447  12.075  64.982  1.00  0.00    -0.327 A  
HETATM    5  C   UNL     1     -11.061  11.221  64.040  1.00  0.00    -0.316 A  
HETATM    6  C   UNL     1     -12.088  11.667  63.209  1.00  0.00    -0.255 A  
HETATM    7  C   UNL     1     -12.530  12.978  63.308  1.00  0.00    -0.283 A  
HETATM    8  C   UNL     1     -11.944  13.842  64.237  1.00  0.00    -0.481 A  
HETATM    9  C   UNL     1     -10.888  13.411  65.066  1.00  0.00    -0.337 A  
ENDROOT
BRANCH   9  10
HETATM   10  C   UNL     1     -10.343  14.383  66.050  1.00  0.00    -0.309 C  
HETATM   11  O   UNL     1     -11.131  14.842  66.870  1.00  0.00    -0.324 OA 
HETATM   12  N   UNL     1      -9.004  14.727  65.915  1.00  0.00    -0.412 N  
HETATM   13  H   UNL     1      -8.484  14.261  65.172  1.00  0.00     0.000 HD 
BRANCH  12  14
HETATM   14  C   UNL     1      -8.284  15.660  66.703  1.00  0.00    -0.249 A  
HETATM   15  C   UNL     1      -7.994  15.471  68.056  1.00  0.00    -0.138 A  
HETATM   16  C   UNL     1      -7.297  16.442  68.788  1.00  0.00    -0.203 A  
HETATM   17  C   UNL     1      -6.875  17.615  68.161  1.00  0.00    -0.207 A  
HETATM   18  C   UNL     1      -7.851  16.844  66.085  1.00  0.00    -0.277 A  
HETATM   19  C   UNL     1      -7.158  17.825  66.809  1.00  0.00    -0.236 A  
BRANCH  17  20
HETATM   20  S   UNL     1      -6.088  18.898  69.125  1.00  0.00    -0.254 S  
HETATM   21  O   UNL     1      -5.218  19.650  68.242  1.00  0.00    -0.188 OA 
HETATM   22  O   UNL     1      -5.562  18.254  70.309  1.00  0.00    -0.232 OA 
BRANCH  20  23
HETATM   23  N   UNL     1      -7.371  19.869  69.645  1.00  0.00    -0.108 N  
HETATM   24  H   UNL     1      -7.346  20.423  70.501  1.00  0.00     0.000 HD 
BRANCH  23  25
HETATM   25  C   UNL     1      -8.479  19.834  68.772  1.00  0.00    -0.151 A  
HETATM   26  N   UNL     1      -9.545  19.184  69.163  1.00  0.00    -0.316 NA 
HETATM   27  C   UNL     1     -10.513  19.281  68.181  1.00  0.00    -0.349 A  
HETATM   28  C   UNL     1     -10.194  20.089  67.110  1.00  0.00    -0.441 A  
HETATM   29  S   UNL     1      -8.597  20.691  67.302  1.00  0.00    -0.102 SA 
ENDBRANCH  23  25
ENDBRANCH  20  23
ENDBRANCH  17  20
ENDBRANCH  12  14
ENDBRANCH   9  10
TORSDOF 5
ENDMDL
MODEL      103
REMARK 921   NORMALIZED FREE ENERGY PREDICTED BY IDOCK:   -4.85 KCAL/MOL
REMARK 922        TOTAL FREE ENERGY PREDICTED BY IDOCK:   -7.23 KCAL/MOL
REMARK 923 INTER-LIGAND FREE ENERGY PREDICTED BY IDOCK:   -7.07 KCAL/MOL
REMARK 924 INTRA-LIGAND FREE ENERGY PREDICTED BY IDOCK:   -0.16 KCAL/MOL
REMARK 927      BINDING AFFINITY PREDICTED BY RF-SCORE:    0.00 PKD
ROOT
HETATM    1  O   UNL     1      -9.583   9.551  65.089  1.00  0.00    -0.280 OA 
HETATM    2  C   UNL     1      -9.659  10.582  64.234  1.00  0.00    -0.307 C  
HETATM    3  O   UNL     1      -8.965  10.623  63.226  1.00  0.00    -0.187 OA 
HETATM    4  C   UNL     1     -10.714  11.613  64.463  1.00  0.00    -0.378 A  
HETATM    5  C   UNL     1     -11.291  12.113  63.274  1.00  0.00    -0.410 A  
HETATM    6  C   UNL     1     -12.248  13.127  63.296  1.00  0.00    -0.438 A  
HETATM    7  C   UNL     1     -12.656  13.659  64.510  1.00  0.00    -0.248 A  
HETATM    8  C   UNL     1     -12.107  13.177  65.701  1.00  0.00    -0.501 A  
HETATM    9  C   UNL     1     -11.120  12.169  65.693  1.00  0.00    -0.360 A  
ENDROOT
BRANCH   9  10
HETATM   10  C   UNL     1     -10.613  11.690  67.005  1.00  0.00    -0.237 C  
HETATM   11  O   UNL     1      -9.667  12.302  67.490  1.00  0.00    -0.185 OA 
HETATM   12  N   UNL     1     -11.219  10.558  67.536  1.00  0.00    -0.296 N  
HETATM   13  H   UNL     1     -11.991  10.160  67.002  1.00  0.00     0.000 HD 
BRANCH  12  14
HETATM   14  C   UNL     1     -10.875   9.900  68.743  1.00  0.00    -0.208 A  
HETATM   15  C   UNL     1     -11.001  10.481  70.007  1.00  0.00    -0.351 A  
HETATM   16  C   UNL     1     -10.622   9.785  71.163  1.00  0.00    -0.215 A  
HETATM   17  C   UNL     1     -10.120   8.488  71.060  1.00  0.00    -0.205 A  
HETATM   18  C   UNL     1     -10.371   8.592  68.655  1.00  0.00    -0.219 A  
HETATM   19  C   UNL     1      -9.984   7.889  69.805  1.00  0.00    -0.186 A  
BRANCH  17  20
HETATM   20  S   UNL     1      -9.534   7.649  72.525  1.00  0.00    -0.187 S  
HETATM   21  O   UNL     1      -8.659   8.557  73.241  1.00  0.00    -0.359 OA 
HETATM   22  O   UNL     1      -9.058   6.353  72.091  1.00  0.00    -0.141 OA 
BRANCH  20  23
HETATM   23  N   UNL     1     -10.937   7.360  73.425  1.00  0.00    -0.548 N  
HETATM   24  H   UNL     1     -10.930   7.131  74.419  1.00  0.00     0.000 HD 
BRANCH  23  25
HETATM   25  C   UNL     1     -12.116   7.469  72.659  1.00  0.00    -0.037 A  
HETATM   26  N   UNL     1     -12.437   6.464  71.885  1.00  0.00    -0.278 NA 
HETATM   27  C   UNL     1     -13.622   6.759  71.237  1.00  0.00     0.095 A  
HETATM   28  C   UNL     1     -14.225   7.941  71.611  1.00  0.00    -0.459 A  
HETATM   29  S   UNL     1     -13.239   8.749  72.761  1.00  0.00     0.059 SA 
ENDBRANCH  23  25
ENDBRANCH  20  23
ENDBRANCH  17  20
ENDBRANCH  12  14
ENDBRANCH   9  10
TORSDOF 5
ENDMDL
MODEL      104
REMARK 921   NORMALIZED FREE ENERGY PREDICTED BY IDOCK:   -4.82 KCAL/MOL
REMARK 922        TOTAL FREE ENERGY PREDICTED BY IDOCK:   -7.19 KCAL/MOL
REMARK 923 INTER-LIGAND FREE ENERGY PREDICTED BY IDOCK:   -6.43 KCAL/MOL
REMARK 924 INTRA-LIGAND FREE ENERGY PREDICTED BY IDOCK:   -0.76 KCAL/MOL
REMARK 927      BINDING AFFINITY PREDICTED BY RF-SCORE:    0.00 PKD
ROOT
HETATM    1  O   UNL     1      -7.958   7.782  67.564  1.00  0.00    -0.119 OA 
HETATM    2  C   UNL     1      -8.602   6.606  67.552  1.00  0.00    -0.120 C  
HETATM    3  O   UNL     1      -8.807   6.005  66.505  1.00  0.00    -0.123 OA 
HETATM    4  C   UNL     1      -8.939   5.972  68.862  1.00  0.00    -0.123 A  
HETATM    5  C   UNL     1      -8.814   4.565  68.862  1.00  0.00    -0.133 A  
HETATM    6  C   UNL     1      -9.149   3.803  69.981  1.00  0.00    -0.193 A  
HETATM    7  C   UNL     1      -9.608   4.432  71.129  1.00  0.00    -0.245 A  
HETATM    8  C   UNL     1      -9.733   5.824  71.156  1.00  0.00    -0.210 A  
HETATM    9  C   UNL     1      -9.422   6.606  70.024  1.00  0.00    -0.161 A  
ENDROOT
BRANCH   9  10
HETATM   10  C   UNL     1      -9.551   8.081  70.148  1.00  0.00    -0.175 C  
HETATM   11  O   UNL     1      -8.746   8.648  70.879  1.00  0.00    -0.148 OA 
HETATM   12  N   UNL     1     -10.607   8.677  69.471  1.00  0.00    -0.228 N  
HETATM   13  H   UNL     1     -11.196   8.062  68.909  1.00  0.00     0.000 HD 
BRANCH  12  14
HETATM   14  C   UNL     1     -10.951  10.052  69.478  1.00  0.00    -0.253 A  
HETATM   15  C   UNL     1     -10.365  11.003  68.640  1.00  0.00    -0.209 A  
HETATM   16  C   UNL     1     -10.733  12.353  68.711  1.00  0.00    -0.242 A  
HETATM   17  C   UNL     1     -11.706  12.761  69.623  1.00  0.00    -0.302 A  
HETATM   18  C   UNL     1     -11.932  10.476  70.389  1.00  0.00    -0.425 A  
HETATM   19  C   UNL     1     -12.304  11.827  70.473  1.00  0.00    -0.387 A  
BRANCH  17  20
HETATM   20  S   UNL     1     -12.090  14.499  69.788  1.00  0.00    -0.324 S  
HETATM   21  O   UNL     1     -13.180  14.629  70.734  1.00  0.00    -0.364 OA 
HETATM   22  O   UNL     1     -12.212  15.020  68.444  1.00  0.00    -0.166 OA 
BRANCH  20  23
HETATM   23  N   UNL     1     -10.678  15.174  70.431  1.00  0.00    -0.486 N  
HETATM   24  H   UNL     1     -10.337  14.977  71.372  1.00  0.00     0.000 HD 
BRANCH  23  25
HETATM   25  C   UNL     1     -10.021  16.039  69.530  1.00  0.00    -0.255 A  
HETATM   26  N   UNL     1     -10.457  17.269  69.434  1.00  0.00    -0.254 NA 
HETATM   27  C   UNL     1      -9.678  17.950  68.519  1.00  0.00    -0.351 A  
HETATM   28  C   UNL     1      -8.602  17.249  68.016  1.00  0.00    -0.234 A  
HETATM   29  S   UNL     1      -8.609  15.655  68.654  1.00  0.00    -0.203 SA 
ENDBRANCH  23  25
ENDBRANCH  20  23
ENDBRANCH  17  20
ENDBRANCH  12  14
ENDBRANCH   9  10
TORSDOF 5
ENDMDL
MODEL      105
REMARK 921   NORMALIZED FREE ENERGY PREDICTED BY IDOCK:   -4.82 KCAL/MOL
REMARK 922        TOTAL FREE ENERGY PREDICTED BY IDOCK:   -7.19 KCAL/MOL
REMARK 923 INTER-LIGAND FREE ENERGY PREDICTED BY IDOCK:   -6.46 KCAL/MOL
REMARK 924 INTRA-LIGAND FREE ENERGY PREDICTED BY IDOCK:   -0.73 KCAL/MOL
REMARK 927      BINDING AFFINITY PREDICTED BY RF-SCORE:    0.00 PKD
ROOT
HETATM    1  O   UNL     1      -7.729  12.107  67.256  1.00  0.00    -0.154 OA 
HETATM    2  C   UNL     1      -8.313  13.314  67.262  1.00  0.00    -0.177 C  
HETATM    3  O   UNL     1      -7.687  14.320  67.573  1.00  0.00    -0.166 OA 
HETATM    4  C   UNL     1      -9.708  13.427  66.741  1.00  0.00    -0.262 A  
HETATM    5  C   UNL     1      -9.952  14.617  66.020  1.00  0.00    -0.337 A  
HETATM    6  C   UNL     1     -11.217  14.918  65.515  1.00  0.00    -0.348 A  
HETATM    7  C   UNL     1     -12.264  14.031  65.713  1.00  0.00    -0.475 A  
HETATM    8  C   UNL     1     -12.047  12.844  66.416  1.00  0.00    -0.400 A  
HETATM    9  C   UNL     1     -10.779  12.537  66.954  1.00  0.00    -0.268 A  
ENDROOT
BRANCH   9  10
HETATM   10  C   UNL     1     -10.626  11.239  67.660  1.00  0.00    -0.213 C  
HETATM   11  O   UNL     1     -10.560  10.233  66.962  1.00  0.00    -0.248 OA 
HETATM   12  N   UNL     1     -10.628  11.276  69.049  1.00  0.00    -0.236 N  
HETATM   13  H   UNL     1     -10.700  12.197  69.481  1.00  0.00     0.000 HD 
BRANCH  12  14
HETATM   14  C   UNL     1     -10.540  10.167  69.927  1.00  0.00    -0.285 A  
HETATM   15  C   UNL     1     -11.632   9.636  70.617  1.00  0.00    -0.371 A  
HETATM   16  C   UNL     1     -11.477   8.552  71.491  1.00  0.00    -0.350 A  
HETATM   17  C   UNL     1     -10.217   7.981  71.673  1.00  0.00    -0.202 A  
HETATM   18  C   UNL     1      -9.278   9.581  70.118  1.00  0.00    -0.281 A  
HETATM   19  C   UNL     1      -9.111   8.498  70.995  1.00  0.00    -0.221 A  
BRANCH  17  20
HETATM   20  S   UNL     1     -10.004   6.673  72.872  1.00  0.00    -0.180 S  
HETATM   21  O   UNL     1     -10.504   7.149  74.147  1.00  0.00    -0.291 OA 
HETATM   22  O   UNL     1      -8.639   6.214  72.739  1.00  0.00    -0.124 OA 
BRANCH  20  23
HETATM   23  N   UNL     1     -10.983   5.420  72.295  1.00  0.00    -0.233 N  
HETATM   24  H   UNL     1     -11.926   5.564  71.933  1.00  0.00     0.000 HD 
BRANCH  23  25
HETATM   25  C   UNL     1     -10.361   4.156  72.365  1.00  0.00    -0.147 A  
HETATM   26  N   UNL     1     -10.450   3.492  73.488  1.00  0.00    -0.161 NA 
HETATM   27  C   UNL     1      -9.793   2.284  73.348  1.00  0.00    -0.096 A  
HETATM   28  C   UNL     1      -9.306   2.016  72.086  1.00  0.00    -0.089 A  
HETATM   29  S   UNL     1      -9.615   3.355  71.056  1.00  0.00    -0.148 SA 
ENDBRANCH  23  25
ENDBRANCH  20  23
ENDBRANCH  17  20
ENDBRANCH  12  14
ENDBRANCH   9  10
TORSDOF 5
ENDMDL
MODEL      106
REMARK 921   NORMALIZED FREE ENERGY PREDICTED BY IDOCK:   -4.80 KCAL/MOL
REMARK 922        TOTAL FREE ENERGY PREDICTED BY IDOCK:   -7.17 KCAL/MOL
REMARK 923 INTER-LIGAND FREE ENERGY PREDICTED BY IDOCK:   -6.43 KCAL/MOL
REMARK 924 INTRA-LIGAND FREE ENERGY PREDICTED BY IDOCK:   -0.74 KCAL/MOL
REMARK 927      BINDING AFFINITY PREDICTED BY RF-SCORE:    0.00 PKD
ROOT
HETATM    1  O   UNL     1     -12.655  12.128  65.434  1.00  0.00    -0.480 OA 
HETATM    2  C   UNL     1     -12.187  13.085  64.618  1.00  0.00    -0.421 C  
HETATM    3  O   UNL     1     -12.578  13.180  63.462  1.00  0.00    -0.722 OA 
HETATM    4  C   UNL     1     -11.281  14.123  65.195  1.00  0.00    -0.337 A  
HETATM    5  C   UNL     1     -11.485  15.415  64.662  1.00  0.00    -0.339 A  
HETATM    6  C   UNL     1     -10.687  16.495  65.039  1.00  0.00    -0.228 A  
HETATM    7  C   UNL     1      -9.671  16.308  65.964  1.00  0.00    -0.370 A  
HETATM    8  C   UNL     1      -9.453  15.041  66.512  1.00  0.00    -0.306 A  
HETATM    9  C   UNL     1     -10.237  13.934  66.122  1.00  0.00    -0.307 A  
ENDROOT
BRANCH   9  10
HETATM   10  C   UNL     1      -9.962  12.629  66.777  1.00  0.00    -0.234 C  
HETATM   11  O   UNL     1     -10.113  12.577  67.993  1.00  0.00    -0.207 OA 
HETATM   12  N   UNL     1      -9.504  11.602  65.961  1.00  0.00    -0.226 N  
HETATM   13  H   UNL     1      -9.423  11.811  64.966  1.00  0.00     0.000 HD 
BRANCH  12  14
HETATM   14  C   UNL     1      -9.137  10.296  66.368  1.00  0.00    -0.152 A  
HETATM   15  C   UNL     1      -7.887   9.971  66.902  1.00  0.00    -0.106 A  
HETATM   16  C   UNL     1      -7.576   8.654  67.265  1.00  0.00    -0.093 A  
HETATM   17  C   UNL     1      -8.526   7.646  67.102  1.00  0.00    -0.121 A  
HETATM   18  C   UNL     1     -10.084   9.270  66.212  1.00  0.00    -0.322 A  
HETATM   19  C   UNL     1      -9.781   7.947  66.567  1.00  0.00    -0.279 A  
BRANCH  17  20
HETATM   20  S   UNL     1      -8.085   5.951  67.459  1.00  0.00    -0.102 S  
HETATM   21  O   UNL     1      -7.570   5.899  68.813  1.00  0.00    -0.087 OA 
HETATM   22  O   UNL     1      -7.283   5.494  66.345  1.00  0.00    -0.074 OA 
BRANCH  20  23
HETATM   23  N   UNL     1      -9.552   5.113  67.361  1.00  0.00    -0.132 N  
HETATM   24  H   UNL     1     -10.348   5.298  67.972  1.00  0.00     0.000 HD 
BRANCH  23  25
HETATM   25  C   UNL     1      -9.560   4.132  66.348  1.00  0.00    -0.202 A  
HETATM   26  N   UNL     1     -10.063   4.459  65.185  1.00  0.00    -0.196 NA 
HETATM   27  C   UNL     1      -9.965   3.374  64.334  1.00  0.00    -0.167 A  
HETATM   28  C   UNL     1      -9.296   2.280  64.841  1.00  0.00    -0.097 A  
HETATM   29  S   UNL     1      -8.838   2.591  66.466  1.00  0.00    -0.122 SA 
ENDBRANCH  23  25
ENDBRANCH  20  23
ENDBRANCH  17  20
ENDBRANCH  12  14
ENDBRANCH   9  10
TORSDOF 5
ENDMDL
MODEL      107
REMARK 921   NORMALIZED FREE ENERGY PREDICTED BY IDOCK:   -4.79 KCAL/MOL
REMARK 922        TOTAL FREE ENERGY PREDICTED BY IDOCK:   -7.15 KCAL/MOL
REMARK 923 INTER-LIGAND FREE ENERGY PREDICTED BY IDOCK:   -6.23 KCAL/MOL
REMARK 924 INTRA-LIGAND FREE ENERGY PREDICTED BY IDOCK:   -0.92 KCAL/MOL
REMARK 927      BINDING AFFINITY PREDICTED BY RF-SCORE:    0.00 PKD
ROOT
HETATM    1  O   UNL     1      -6.222  16.720  69.087  1.00  0.00    -0.164 OA 
HETATM    2  C   UNL     1      -6.444  18.034  69.243  1.00  0.00    -0.246 C  
HETATM    3  O   UNL     1      -5.838  18.683  70.086  1.00  0.00    -0.246 OA 
HETATM    4  C   UNL     1      -7.345  18.718  68.269  1.00  0.00    -0.295 A  
HETATM    5  C   UNL     1      -6.932  20.027  67.935  1.00  0.00    -0.310 A  
HETATM    6  C   UNL     1      -7.688  20.837  67.088  1.00  0.00    -0.316 A  
HETATM    7  C   UNL     1      -8.870  20.353  66.549  1.00  0.00    -0.227 A  
HETATM    8  C   UNL     1      -9.297  19.059  66.858  1.00  0.00    -0.346 A  
HETATM    9  C   UNL     1      -8.556  18.237  67.733  1.00  0.00    -0.263 A  
ENDROOT
BRANCH   9  10
HETATM   10  C   UNL     1      -9.062  16.863  67.982  1.00  0.00    -0.234 C  
HETATM   11  O   UNL     1      -9.907  16.734  68.862  1.00  0.00    -0.245 OA 
HETATM   12  N   UNL     1      -8.491  15.839  67.236  1.00  0.00    -0.177 N  
HETATM   13  H   UNL     1      -7.790  16.112  66.547  1.00  0.00     0.000 HD 
BRANCH  12  14
HETATM   14  C   UNL     1      -8.781  14.455  67.333  1.00  0.00    -0.204 A  
HETATM   15  C   UNL     1      -8.214  13.609  68.288  1.00  0.00    -0.156 A  
HETATM   16  C   UNL     1      -8.523  12.242  68.318  1.00  0.00    -0.173 A  
HETATM   17  C   UNL     1      -9.419  11.713  67.389  1.00  0.00    -0.167 A  
HETATM   18  C   UNL     1      -9.683  13.908  66.406  1.00  0.00    -0.309 A  
HETATM   19  C   UNL     1      -9.996  12.541  66.424  1.00  0.00    -0.262 A  
BRANCH  17  20
HETATM   20  S   UNL     1      -9.723   9.951  67.360  1.00  0.00    -0.168 S  
HETATM   21  O   UNL     1      -8.942   9.345  68.420  1.00  0.00    -0.128 OA 
HETATM   22  O   UNL     1      -9.557   9.531  65.986  1.00  0.00    -0.209 OA 
BRANCH  20  23
HETATM   23  N   UNL     1     -11.374   9.812  67.701  1.00  0.00    -0.369 N  
HETATM   24  H   UNL     1     -12.051   9.408  67.053  1.00  0.00     0.000 HD 
BRANCH  23  25
HETATM   25  C   UNL     1     -11.719  10.311  68.974  1.00  0.00    -0.012 A  
HETATM   26  N   UNL     1     -12.086  11.564  69.061  1.00  0.00    -0.382 NA 
HETATM   27  C   UNL     1     -12.393  11.851  70.378  1.00  0.00    -0.251 A  
HETATM   28  C   UNL     1     -12.349  10.779  71.245  1.00  0.00    -0.365 A  
HETATM   29  S   UNL     1     -11.832   9.378  70.398  1.00  0.00    -0.009 SA 
ENDBRANCH  23  25
ENDBRANCH  20  23
ENDBRANCH  17  20
ENDBRANCH  12  14
ENDBRANCH   9  10
TORSDOF 5
ENDMDL
MODEL      108
REMARK 921   NORMALIZED FREE ENERGY PREDICTED BY IDOCK:   -4.78 KCAL/MOL
REMARK 922        TOTAL FREE ENERGY PREDICTED BY IDOCK:   -7.14 KCAL/MOL
REMARK 923 INTER-LIGAND FREE ENERGY PREDICTED BY IDOCK:   -6.47 KCAL/MOL
REMARK 924 INTRA-LIGAND FREE ENERGY PREDICTED BY IDOCK:   -0.67 KCAL/MOL
REMARK 927      BINDING AFFINITY PREDICTED BY RF-SCORE:    0.00 PKD
ROOT
HETATM    1  O   UNL     1     -11.985   6.597  72.300  1.00  0.00    -0.284 OA 
HETATM    2  C   UNL     1     -10.956   5.770  72.537  1.00  0.00    -0.263 C  
HETATM    3  O   UNL     1     -10.519   5.611  73.670  1.00  0.00    -0.226 OA 
HETATM    4  C   UNL     1     -10.445   4.936  71.409  1.00  0.00    -0.170 A  
HETATM    5  C   UNL     1     -10.047   3.637  71.796  1.00  0.00    -0.160 A  
HETATM    6  C   UNL     1      -9.487   2.743  70.884  1.00  0.00    -0.224 A  
HETATM    7  C   UNL     1      -9.319   3.126  69.562  1.00  0.00    -0.228 A  
HETATM    8  C   UNL     1      -9.711   4.402  69.152  1.00  0.00    -0.240 A  
HETATM    9  C   UNL     1     -10.257   5.326  70.068  1.00  0.00    -0.358 A  
ENDROOT
BRANCH   9  10
HETATM   10  C   UNL     1     -10.678   6.651  69.543  1.00  0.00    -0.260 C  
HETATM   11  O   UNL     1     -11.486   6.650  68.620  1.00  0.00    -0.146 OA 
HETATM   12  N   UNL     1     -10.077   7.769  70.107  1.00  0.00    -0.194 N  
HETATM   13  H   UNL     1      -9.415   7.599  70.865  1.00  0.00     0.000 HD 
BRANCH  12  14
HETATM   14  C   UNL     1     -10.287   9.121  69.740  1.00  0.00    -0.215 A  
HETATM   15  C   UNL     1     -11.401   9.868  70.131  1.00  0.00    -0.335 A  
HETATM   16  C   UNL     1     -11.563  11.196  69.715  1.00  0.00    -0.409 A  
HETATM   17  C   UNL     1     -10.597  11.794  68.906  1.00  0.00    -0.180 A  
HETATM   18  C   UNL     1      -9.321   9.737  68.927  1.00  0.00    -0.158 A  
HETATM   19  C   UNL     1      -9.476  11.065  68.501  1.00  0.00    -0.188 A  
BRANCH  17  20
HETATM   20  S   UNL     1     -10.864  13.449  68.287  1.00  0.00    -0.265 S  
HETATM   21  O   UNL     1     -12.281  13.603  68.020  1.00  0.00    -0.323 OA 
HETATM   22  O   UNL     1      -9.888  13.656  67.239  1.00  0.00    -0.233 OA 
BRANCH  20  23
HETATM   23  N   UNL     1     -10.401  14.450  69.570  1.00  0.00    -0.435 N  
HETATM   24  H   UNL     1     -10.867  14.454  70.477  1.00  0.00     0.000 HD 
BRANCH  23  25
HETATM   25  C   UNL     1      -9.303  15.277  69.255  1.00  0.00    -0.239 A  
HETATM   26  N   UNL     1      -8.101  14.801  69.455  1.00  0.00    -0.095 NA 
HETATM   27  C   UNL     1      -7.173  15.751  69.073  1.00  0.00    -0.168 A  
HETATM   28  C   UNL     1      -7.693  16.891  68.497  1.00  0.00    -0.227 A  
HETATM   29  S   UNL     1      -9.407  16.803  68.500  1.00  0.00    -0.252 SA 
ENDBRANCH  23  25
ENDBRANCH  20  23
ENDBRANCH  17  20
ENDBRANCH  12  14
ENDBRANCH   9  10
TORSDOF 5
ENDMDL
MODEL      109
REMARK 921   NORMALIZED FREE ENERGY PREDICTED BY IDOCK:   -4.78 KCAL/MOL
REMARK 922        TOTAL FREE ENERGY PREDICTED BY IDOCK:   -7.14 KCAL/MOL
REMARK 923 INTER-LIGAND FREE ENERGY PREDICTED BY IDOCK:   -6.63 KCAL/MOL
REMARK 924 INTRA-LIGAND FREE ENERGY PREDICTED BY IDOCK:   -0.51 KCAL/MOL
REMARK 927      BINDING AFFINITY PREDICTED BY RF-SCORE:    0.00 PKD
ROOT
HETATM    1  O   UNL     1      -9.787   9.949  64.548  1.00  0.00    -0.261 OA 
HETATM    2  C   UNL     1      -9.971  11.168  64.019  1.00  0.00    -0.323 C  
HETATM    3  O   UNL     1      -9.500  11.463  62.928  1.00  0.00    -0.368 OA 
HETATM    4  C   UNL     1     -10.884  12.114  64.726  1.00  0.00    -0.351 A  
HETATM    5  C   UNL     1     -11.660  12.912  63.857  1.00  0.00    -0.515 A  
HETATM    6  C   UNL     1     -12.522  13.895  64.342  1.00  0.00    -0.321 A  
HETATM    7  C   UNL     1     -12.633  14.097  65.710  1.00  0.00    -0.475 A  
HETATM    8  C   UNL     1     -11.881  13.316  66.591  1.00  0.00    -0.447 A  
HETATM    9  C   UNL     1     -10.987  12.334  66.114  1.00  0.00    -0.328 A  
ENDROOT
BRANCH   9  10
HETATM   10  C   UNL     1     -10.251  11.524  67.119  1.00  0.00    -0.204 C  
HETATM   11  O   UNL     1      -9.112  11.885  67.395  1.00  0.00    -0.170 OA 
HETATM   12  N   UNL     1     -10.898  10.399  67.613  1.00  0.00    -0.287 N  
HETATM   13  H   UNL     1     -11.846  10.230  67.274  1.00  0.00     0.000 HD 
BRANCH  12  14
HETATM   14  C   UNL     1     -10.379   9.459  68.538  1.00  0.00    -0.209 A  
HETATM   15  C   UNL     1     -10.161   8.113  68.237  1.00  0.00    -0.245 A  
HETATM   16  C   UNL     1      -9.667   7.227  69.204  1.00  0.00    -0.160 A  
HETATM   17  C   UNL     1      -9.375   7.691  70.487  1.00  0.00    -0.163 A  
HETATM   18  C   UNL     1     -10.079   9.912  69.833  1.00  0.00    -0.297 A  
HETATM   19  C   UNL     1      -9.589   9.033  70.810  1.00  0.00    -0.308 A  
BRANCH  17  20
HETATM   20  S   UNL     1      -8.853   6.535  71.746  1.00  0.00    -0.137 S  
HETATM   21  O   UNL     1      -8.714   7.263  72.992  1.00  0.00    -0.121 OA 
HETATM   22  O   UNL     1      -7.737   5.802  71.190  1.00  0.00    -0.103 OA 
BRANCH  20  23
HETATM   23  N   UNL     1     -10.134   5.435  71.855  1.00  0.00    -0.187 N  
HETATM   24  H   UNL     1     -11.032   5.658  72.285  1.00  0.00     0.000 HD 
BRANCH  23  25
HETATM   25  C   UNL     1      -9.832   4.179  71.289  1.00  0.00    -0.179 A  
HETATM   26  N   UNL     1      -9.830   4.081  69.984  1.00  0.00    -0.192 NA 
HETATM   27  C   UNL     1      -9.499   2.785  69.633  1.00  0.00    -0.078 A  
HETATM   28  C   UNL     1      -9.158   1.955  70.680  1.00  0.00    -0.089 A  
HETATM   29  S   UNL     1      -9.328   2.804  72.163  1.00  0.00    -0.113 SA 
ENDBRANCH  23  25
ENDBRANCH  20  23
ENDBRANCH  17  20
ENDBRANCH  12  14
ENDBRANCH   9  10
TORSDOF 5
ENDMDL
MODEL      110
REMARK 921   NORMALIZED FREE ENERGY PREDICTED BY IDOCK:   -4.76 KCAL/MOL
REMARK 922        TOTAL FREE ENERGY PREDICTED BY IDOCK:   -7.12 KCAL/MOL
REMARK 923 INTER-LIGAND FREE ENERGY PREDICTED BY IDOCK:   -6.74 KCAL/MOL
REMARK 924 INTRA-LIGAND FREE ENERGY PREDICTED BY IDOCK:   -0.38 KCAL/MOL
REMARK 927      BINDING AFFINITY PREDICTED BY RF-SCORE:    0.00 PKD
ROOT
HETATM    1  O   UNL     1     -10.251  13.486  64.747  1.00  0.00    -0.379 OA 
HETATM    2  C   UNL     1     -10.827  12.294  64.960  1.00  0.00    -0.298 C  
HETATM    3  O   UNL     1     -11.849  11.969  64.370  1.00  0.00    -0.350 OA 
HETATM    4  C   UNL     1     -10.112  11.310  65.827  1.00  0.00    -0.294 A  
HETATM    5  C   UNL     1     -10.237   9.971  65.392  1.00  0.00    -0.226 A  
HETATM    6  C   UNL     1      -9.688   8.914  66.116  1.00  0.00    -0.338 A  
HETATM    7  C   UNL     1      -8.993   9.172  67.288  1.00  0.00    -0.136 A  
HETATM    8  C   UNL     1      -8.849  10.487  67.736  1.00  0.00    -0.125 A  
HETATM    9  C   UNL     1      -9.421  11.565  67.027  1.00  0.00    -0.193 A  
ENDROOT
BRANCH   9  10
HETATM   10  C   UNL     1      -9.192  12.936  67.555  1.00  0.00    -0.192 C  
HETATM   11  O   UNL     1     -10.014  13.365  68.357  1.00  0.00    -0.235 OA 
HETATM   12  N   UNL     1      -8.100  13.628  67.047  1.00  0.00    -0.384 N  
HETATM   13  H   UNL     1      -7.515  13.131  66.375  1.00  0.00     0.000 HD 
BRANCH  12  14
HETATM   14  C   UNL     1      -7.714  14.954  67.366  1.00  0.00    -0.204 A  
HETATM   15  C   UNL     1      -7.611  15.980  66.423  1.00  0.00     0.050 A  
HETATM   16  C   UNL     1      -7.201  17.266  66.798  1.00  0.00    -0.249 A  
HETATM   17  C   UNL     1      -6.898  17.539  68.132  1.00  0.00    -0.197 A  
HETATM   18  C   UNL     1      -7.409  15.243  68.705  1.00  0.00    -0.131 A  
HETATM   19  C   UNL     1      -6.992  16.527  69.090  1.00  0.00    -0.225 A  
BRANCH  17  20
HETATM   20  S   UNL     1      -6.268  19.149  68.584  1.00  0.00    -0.236 S  
HETATM   21  O   UNL     1      -5.613  19.715  67.421  1.00  0.00    -0.169 OA 
HETATM   22  O   UNL     1      -5.546  18.972  69.825  1.00  0.00    -0.203 OA 
BRANCH  20  23
HETATM   23  N   UNL     1      -7.653  20.043  68.966  1.00  0.00    -0.128 N  
HETATM   24  H   UNL     1      -7.698  20.709  69.736  1.00  0.00     0.000 HD 
BRANCH  23  25
HETATM   25  C   UNL     1      -8.739  19.770  68.108  1.00  0.00    -0.284 A  
HETATM   26  N   UNL     1      -8.734  20.322  66.921  1.00  0.00    -0.317 NA 
HETATM   27  C   UNL     1      -9.866  19.922  66.237  1.00  0.00    -0.461 A  
HETATM   28  C   UNL     1     -10.654  18.993  66.883  1.00  0.00    -0.436 A  
HETATM   29  S   UNL     1      -9.995  18.663  68.435  1.00  0.00    -0.399 SA 
ENDBRANCH  23  25
ENDBRANCH  20  23
ENDBRANCH  17  20
ENDBRANCH  12  14
ENDBRANCH   9  10
TORSDOF 5
ENDMDL
MODEL      111
REMARK 921   NORMALIZED FREE ENERGY PREDICTED BY IDOCK:   -4.76 KCAL/MOL
REMARK 922        TOTAL FREE ENERGY PREDICTED BY IDOCK:   -7.11 KCAL/MOL
REMARK 923 INTER-LIGAND FREE ENERGY PREDICTED BY IDOCK:   -6.22 KCAL/MOL
REMARK 924 INTRA-LIGAND FREE ENERGY PREDICTED BY IDOCK:   -0.89 KCAL/MOL
REMARK 927      BINDING AFFINITY PREDICTED BY RF-SCORE:    0.00 PKD
ROOT
HETATM    1  O   UNL     1      -6.461  16.738  67.128  1.00  0.00    -0.154 OA 
HETATM    2  C   UNL     1      -6.960  17.766  67.831  1.00  0.00    -0.193 C  
HETATM    3  O   UNL     1      -6.351  18.239  68.781  1.00  0.00    -0.204 OA 
HETATM    4  C   UNL     1      -8.210  18.416  67.338  1.00  0.00    -0.248 A  
HETATM    5  C   UNL     1      -8.231  19.818  67.515  1.00  0.00    -0.347 A  
HETATM    6  C   UNL     1      -9.347  20.581  67.170  1.00  0.00    -0.513 A  
HETATM    7  C   UNL     1     -10.464  19.960  66.633  1.00  0.00    -0.580 A  
HETATM    8  C   UNL     1     -10.466  18.576  66.442  1.00  0.00    -0.443 A  
HETATM    9  C   UNL     1      -9.355  17.788  66.808  1.00  0.00    -0.286 A  
ENDROOT
BRANCH   9  10
HETATM   10  C   UNL     1      -9.426  16.328  66.540  1.00  0.00    -0.264 C  
HETATM   11  O   UNL     1      -9.534  15.984  65.368  1.00  0.00    -0.378 OA 
HETATM   12  N   UNL     1      -9.422  15.487  67.646  1.00  0.00    -0.208 N  
HETATM   13  H   UNL     1      -9.335  15.932  68.559  1.00  0.00     0.000 HD 
BRANCH  12  14
HETATM   14  C   UNL     1      -9.525  14.073  67.636  1.00  0.00    -0.210 A  
HETATM   15  C   UNL     1     -10.712  13.381  67.890  1.00  0.00    -0.259 A  
HETATM   16  C   UNL     1     -10.745  11.980  67.889  1.00  0.00    -0.243 A  
HETATM   17  C   UNL     1      -9.582  11.257  67.622  1.00  0.00    -0.171 A  
HETATM   18  C   UNL     1      -8.363  13.333  67.367  1.00  0.00    -0.193 A  
HETATM   19  C   UNL     1      -8.384  11.930  67.369  1.00  0.00    -0.163 A  
BRANCH  17  20
HETATM   20  S   UNL     1      -9.605   9.474  67.734  1.00  0.00    -0.135 S  
HETATM   21  O   UNL     1     -10.596   8.980  66.798  1.00  0.00    -0.228 OA 
HETATM   22  O   UNL     1      -9.694   9.154  69.142  1.00  0.00    -0.158 OA 
BRANCH  20  23
HETATM   23  N   UNL     1      -8.055   9.009  67.241  1.00  0.00    -0.103 N  
HETATM   24  H   UNL     1      -7.206   9.504  67.513  1.00  0.00     0.000 HD 
BRANCH  23  25
HETATM   25  C   UNL     1      -8.059   7.867  66.413  1.00  0.00    -0.108 A  
HETATM   26  N   UNL     1      -7.783   8.030  65.144  1.00  0.00    -0.098 NA 
HETATM   27  C   UNL     1      -7.824   6.800  64.516  1.00  0.00    -0.115 A  
HETATM   28  C   UNL     1      -8.031   5.716  65.343  1.00  0.00    -0.112 A  
HETATM   29  S   UNL     1      -8.257   6.262  66.955  1.00  0.00    -0.109 SA 
ENDBRANCH  23  25
ENDBRANCH  20  23
ENDBRANCH  17  20
ENDBRANCH  12  14
ENDBRANCH   9  10
TORSDOF 5
ENDMDL
MODEL      112
REMARK 921   NORMALIZED FREE ENERGY PREDICTED BY IDOCK:   -4.72 KCAL/MOL
REMARK 922        TOTAL FREE ENERGY PREDICTED BY IDOCK:   -7.07 KCAL/MOL
REMARK 923 INTER-LIGAND FREE ENERGY PREDICTED BY IDOCK:   -6.09 KCAL/MOL
REMARK 924 INTRA-LIGAND FREE ENERGY PREDICTED BY IDOCK:   -0.98 KCAL/MOL
REMARK 927      BINDING AFFINITY PREDICTED BY RF-SCORE:    0.00 PKD
ROOT
HETATM    1  O   UNL     1      -9.461   5.946  71.555  1.00  0.00    -0.152 OA 
HETATM    2  C   UNL     1      -8.983   4.693  71.579  1.00  0.00    -0.133 C  
HETATM    3  O   UNL     1      -8.489   4.222  72.596  1.00  0.00    -0.099 OA 
HETATM    4  C   UNL     1      -9.197   3.832  70.378  1.00  0.00    -0.213 A  
HETATM    5  C   UNL     1      -9.463   2.480  70.686  1.00  0.00    -0.197 A  
HETATM    6  C   UNL     1      -9.625   1.521  69.686  1.00  0.00    -0.076 A  
HETATM    7  C   UNL     1      -9.533   1.895  68.354  1.00  0.00    -0.234 A  
HETATM    8  C   UNL     1      -9.278   3.228  68.022  1.00  0.00    -0.243 A  
HETATM    9  C   UNL     1      -9.087   4.204  69.023  1.00  0.00    -0.187 A  
ENDROOT
BRANCH   9  10
HETATM   10  C   UNL     1      -8.853   5.605  68.584  1.00  0.00    -0.109 C  
HETATM   11  O   UNL     1      -7.720   5.886  68.207  1.00  0.00    -0.097 OA 
HETATM   12  N   UNL     1      -9.923   6.484  68.696  1.00  0.00    -0.142 N  
HETATM   13  H   UNL     1     -10.801   6.094  69.038  1.00  0.00     0.000 HD 
BRANCH  12  14
HETATM   14  C   UNL     1      -9.922   7.866  68.383  1.00  0.00    -0.180 A  
HETATM   15  C   UNL     1     -10.317   8.382  67.146  1.00  0.00    -0.381 A  
HETATM   16  C   UNL     1     -10.271   9.759  66.890  1.00  0.00    -0.310 A  
HETATM   17  C   UNL     1      -9.835  10.636  67.883  1.00  0.00    -0.161 A  
HETATM   18  C   UNL     1      -9.488   8.761  69.374  1.00  0.00    -0.161 A  
HETATM   19  C   UNL     1      -9.433  10.141  69.126  1.00  0.00    -0.215 A  
BRANCH  17  20
HETATM   20  S   UNL     1      -9.672  12.378  67.514  1.00  0.00    -0.195 S  
HETATM   21  O   UNL     1      -8.401  12.830  68.045  1.00  0.00    -0.153 OA 
HETATM   22  O   UNL     1     -10.910  13.001  67.928  1.00  0.00    -0.231 OA 
BRANCH  20  23
HETATM   23  N   UNL     1      -9.652  12.441  65.823  1.00  0.00    -0.395 N  
HETATM   24  H   UNL     1      -8.999  11.909  65.248  1.00  0.00     0.000 HD 
BRANCH  23  25
HETATM   25  C   UNL     1     -10.633  13.305  65.293  1.00  0.00    -0.315 A  
HETATM   26  N   UNL     1     -10.312  14.562  65.122  1.00  0.00    -0.399 NA 
HETATM   27  C   UNL     1     -11.394  15.232  64.583  1.00  0.00    -0.358 A  
HETATM   28  C   UNL     1     -12.480  14.444  64.263  1.00  0.00    -0.272 A  
HETATM   29  S   UNL     1     -12.164  12.820  64.720  1.00  0.00    -0.478 SA 
ENDBRANCH  23  25
ENDBRANCH  20  23
ENDBRANCH  17  20
ENDBRANCH  12  14
ENDBRANCH   9  10
TORSDOF 5
ENDMDL
MODEL      113
REMARK 921   NORMALIZED FREE ENERGY PREDICTED BY IDOCK:   -4.71 KCAL/MOL
REMARK 922        TOTAL FREE ENERGY PREDICTED BY IDOCK:   -7.06 KCAL/MOL
REMARK 923 INTER-LIGAND FREE ENERGY PREDICTED BY IDOCK:   -6.29 KCAL/MOL
REMARK 924 INTRA-LIGAND FREE ENERGY PREDICTED BY IDOCK:   -0.77 KCAL/MOL
REMARK 927      BINDING AFFINITY PREDICTED BY RF-SCORE:    0.00 PKD
ROOT
HETATM    1  O   UNL     1     -10.450  12.706  66.015  1.00  0.00    -0.259 OA 
HETATM    2  C   UNL     1     -10.088  13.813  66.680  1.00  0.00    -0.277 C  
HETATM    3  O   UNL     1      -9.208  14.550  66.254  1.00  0.00    -0.268 OA 
HETATM    4  C   UNL     1     -10.882  14.206  67.882  1.00  0.00    -0.253 A  
HETATM    5  C   UNL     1     -11.053  15.602  68.021  1.00  0.00    -0.335 A  
HETATM    6  C   UNL     1     -11.714  16.151  69.119  1.00  0.00    -0.239 A  
HETATM    7  C   UNL     1     -12.226  15.316  70.100  1.00  0.00    -0.402 A  
HETATM    8  C   UNL     1     -12.077  13.932  69.984  1.00  0.00    -0.411 A  
HETATM    9  C   UNL     1     -11.389  13.363  68.891  1.00  0.00    -0.331 A  
ENDROOT
BRANCH   9  10
HETATM   10  C   UNL     1     -11.304  11.881  68.825  1.00  0.00    -0.274 C  
HETATM   11  O   UNL     1     -12.266  11.291  68.346  1.00  0.00    -0.604 OA 
HETATM   12  N   UNL     1     -10.167  11.294  69.366  1.00  0.00    -0.435 N  
HETATM   13  H   UNL     1      -9.458  11.926  69.737  1.00  0.00     0.000 HD 
BRANCH  12  14
HETATM   14  C   UNL     1      -9.889   9.907  69.456  1.00  0.00    -0.223 A  
HETATM   15  C   UNL     1      -9.088   9.215  68.544  1.00  0.00    -0.132 A  
HETATM   16  C   UNL     1      -8.870   7.837  68.674  1.00  0.00    -0.131 A  
HETATM   17  C   UNL     1      -9.449   7.139  69.734  1.00  0.00    -0.149 A  
HETATM   18  C   UNL     1     -10.464   9.191  70.518  1.00  0.00    -0.289 A  
HETATM   19  C   UNL     1     -10.255   7.810  70.655  1.00  0.00    -0.199 A  
BRANCH  17  20
HETATM   20  S   UNL     1      -9.259   5.364  69.830  1.00  0.00    -0.142 S  
HETATM   21  O   UNL     1      -7.937   5.083  70.353  1.00  0.00    -0.081 OA 
HETATM   22  O   UNL     1      -9.674   4.839  68.548  1.00  0.00    -0.148 OA 
BRANCH  20  23
HETATM   23  N   UNL     1     -10.440   4.883  70.943  1.00  0.00    -0.151 N  
HETATM   24  H   UNL     1     -11.365   5.309  71.001  1.00  0.00     0.000 HD 
BRANCH  23  25
HETATM   25  C   UNL     1     -10.012   3.832  71.780  1.00  0.00    -0.157 A  
HETATM   26  N   UNL     1      -9.892   2.640  71.253  1.00  0.00    -0.125 NA 
HETATM   27  C   UNL     1      -9.452   1.762  72.226  1.00  0.00    -0.086 A  
HETATM   28  C   UNL     1      -9.151   2.330  73.446  1.00  0.00    -0.076 A  
HETATM   29  S   UNL     1      -9.501   4.010  73.398  1.00  0.00    -0.110 SA 
ENDBRANCH  23  25
ENDBRANCH  20  23
ENDBRANCH  17  20
ENDBRANCH  12  14
ENDBRANCH   9  10
TORSDOF 5
ENDMDL
MODEL      114
REMARK 921   NORMALIZED FREE ENERGY PREDICTED BY IDOCK:   -4.70 KCAL/MOL
REMARK 922        TOTAL FREE ENERGY PREDICTED BY IDOCK:   -7.04 KCAL/MOL
REMARK 923 INTER-LIGAND FREE ENERGY PREDICTED BY IDOCK:   -7.01 KCAL/MOL
REMARK 924 INTRA-LIGAND FREE ENERGY PREDICTED BY IDOCK:   -0.03 KCAL/MOL
REMARK 927      BINDING AFFINITY PREDICTED BY RF-SCORE:    0.00 PKD
ROOT
HETATM    1  O   UNL     1     -11.645  15.144  67.992  1.00  0.00    -0.334 OA 
HETATM    2  C   UNL     1     -11.548  15.587  69.254  1.00  0.00    -0.357 C  
HETATM    3  O   UNL     1     -10.997  16.649  69.514  1.00  0.00    -0.307 OA 
HETATM    4  C   UNL     1     -12.254  14.823  70.326  1.00  0.00    -0.394 A  
HETATM    5  C   UNL     1     -12.818  15.641  71.330  1.00  0.00    -0.546 A  
HETATM    6  C   UNL     1     -13.460  15.095  72.441  1.00  0.00    -0.551 A  
HETATM    7  C   UNL     1     -13.560  13.718  72.569  1.00  0.00    -0.680 A  
HETATM    8  C   UNL     1     -13.017  12.887  71.586  1.00  0.00    -0.410 A  
HETATM    9  C   UNL     1     -12.343  13.425  70.469  1.00  0.00    -0.401 A  
ENDROOT
BRANCH   9  10
HETATM   10  C   UNL     1     -11.824  12.472  69.453  1.00  0.00    -0.308 C  
HETATM   11  O   UNL     1     -12.561  11.545  69.134  1.00  0.00    -0.185 OA 
HETATM   12  N   UNL     1     -10.529  12.685  68.998  1.00  0.00    -0.437 N  
HETATM   13  H   UNL     1     -10.042  13.501  69.370  1.00  0.00     0.000 HD 
BRANCH  12  14
HETATM   14  C   UNL     1      -9.813  11.888  68.071  1.00  0.00    -0.190 A  
HETATM   15  C   UNL     1      -8.424  11.918  67.931  1.00  0.00    -0.154 A  
HETATM   16  C   UNL     1      -7.775  11.120  66.979  1.00  0.00    -0.139 A  
HETATM   17  C   UNL     1      -8.521  10.272  66.160  1.00  0.00    -0.141 A  
HETATM   18  C   UNL     1     -10.550  11.027  67.241  1.00  0.00    -0.287 A  
HETATM   19  C   UNL     1      -9.911  10.228  66.281  1.00  0.00    -0.295 A  
BRANCH  17  20
HETATM   20  S   UNL     1      -7.700   9.342  64.872  1.00  0.00    -0.117 S  
HETATM   21  O   UNL     1      -6.512  10.074  64.480  1.00  0.00    -0.118 OA 
HETATM   22  O   UNL     1      -8.717   9.008  63.899  1.00  0.00    -0.179 OA 
BRANCH  20  23
HETATM   23  N   UNL     1      -7.268   7.889  65.623  1.00  0.00    -0.069 N  
HETATM   24  H   UNL     1      -6.990   7.823  66.602  1.00  0.00     0.000 HD 
BRANCH  23  25
HETATM   25  C   UNL     1      -7.333   6.780  64.755  1.00  0.00    -0.088 A  
HETATM   26  N   UNL     1      -8.364   5.980  64.859  1.00  0.00    -0.131 NA 
HETATM   27  C   UNL     1      -8.247   4.974  63.919  1.00  0.00    -0.125 A  
HETATM   28  C   UNL     1      -7.179   5.090  63.054  1.00  0.00    -0.043 A  
HETATM   29  S   UNL     1      -6.245   6.467  63.478  1.00  0.00    -0.026 SA 
ENDBRANCH  23  25
ENDBRANCH  20  23
ENDBRANCH  17  20
ENDBRANCH  12  14
ENDBRANCH   9  10
TORSDOF 5
ENDMDL
MODEL      115
REMARK 921   NORMALIZED FREE ENERGY PREDICTED BY IDOCK:   -4.70 KCAL/MOL
REMARK 922        TOTAL FREE ENERGY PREDICTED BY IDOCK:   -7.04 KCAL/MOL
REMARK 923 INTER-LIGAND FREE ENERGY PREDICTED BY IDOCK:   -6.41 KCAL/MOL
REMARK 924 INTRA-LIGAND FREE ENERGY PREDICTED BY IDOCK:   -0.62 KCAL/MOL
REMARK 927      BINDING AFFINITY PREDICTED BY RF-SCORE:    0.00 PKD
ROOT
HETATM    1  O   UNL     1      -6.965   9.746  71.123  1.00  0.00    -0.327 OA 
HETATM    2  C   UNL     1      -7.246   8.611  71.781  1.00  0.00    -0.080 C  
HETATM    3  O   UNL     1      -6.355   7.883  72.199  1.00  0.00    -0.045 OA 
HETATM    4  C   UNL     1      -8.672   8.327  72.119  1.00  0.00    -0.259 A  
HETATM    5  C   UNL     1      -8.847   7.712  73.379  1.00  0.00    -0.269 A  
HETATM    6  C   UNL     1     -10.106   7.318  73.831  1.00  0.00    -0.312 A  
HETATM    7  C   UNL     1     -11.221   7.536  73.036  1.00  0.00    -0.373 A  
HETATM    8  C   UNL     1     -11.076   8.149  71.788  1.00  0.00    -0.329 A  
HETATM    9  C   UNL     1      -9.806   8.531  71.307  1.00  0.00    -0.279 A  
ENDROOT
BRANCH   9  10
HETATM   10  C   UNL     1      -9.744   9.206  69.985  1.00  0.00    -0.195 C  
HETATM   11  O   UNL     1     -10.368  10.255  69.868  1.00  0.00    -0.255 OA 
HETATM   12  N   UNL     1      -9.031   8.559  68.984  1.00  0.00    -0.145 N  
HETATM   13  H   UNL     1      -8.573   7.684  69.240  1.00  0.00     0.000 HD 
BRANCH  12  14
HETATM   14  C   UNL     1      -8.873   8.988  67.642  1.00  0.00    -0.124 A  
HETATM   15  C   UNL     1      -7.756   9.686  67.177  1.00  0.00    -0.091 A  
HETATM   16  C   UNL     1      -7.669  10.104  65.842  1.00  0.00    -0.127 A  
HETATM   17  C   UNL     1      -8.705   9.812  64.954  1.00  0.00    -0.183 A  
HETATM   18  C   UNL     1      -9.906   8.699  66.736  1.00  0.00    -0.322 A  
HETATM   19  C   UNL     1      -9.832   9.117  65.399  1.00  0.00     0.053 A  
BRANCH  17  20
HETATM   20  S   UNL     1      -8.640  10.444  63.283  1.00  0.00    -0.198 S  
HETATM   21  O   UNL     1      -9.650   9.755  62.505  1.00  0.00    -0.171 OA 
HETATM   22  O   UNL     1      -7.249  10.408  62.887  1.00  0.00    -0.141 OA 
BRANCH  20  23
HETATM   23  N   UNL     1      -9.044  12.079  63.444  1.00  0.00    -0.265 N  
HETATM   24  H   UNL     1      -8.414  12.841  63.194  1.00  0.00     0.000 HD 
BRANCH  23  25
HETATM   25  C   UNL     1     -10.342  12.278  63.960  1.00  0.00    -0.397 A  
HETATM   26  N   UNL     1     -11.357  11.918  63.217  1.00  0.00    -0.333 NA 
HETATM   27  C   UNL     1     -12.528  12.180  63.902  1.00  0.00    -0.478 A  
HETATM   28  C   UNL     1     -12.371  12.641  65.193  1.00  0.00    -0.484 A  
HETATM   29  S   UNL     1     -10.699  12.823  65.536  1.00  0.00    -0.285 SA 
ENDBRANCH  23  25
ENDBRANCH  20  23
ENDBRANCH  17  20
ENDBRANCH  12  14
ENDBRANCH   9  10
TORSDOF 5
ENDMDL
MODEL      116
REMARK 921   NORMALIZED FREE ENERGY PREDICTED BY IDOCK:   -4.66 KCAL/MOL
REMARK 922        TOTAL FREE ENERGY PREDICTED BY IDOCK:   -6.99 KCAL/MOL
REMARK 923 INTER-LIGAND FREE ENERGY PREDICTED BY IDOCK:   -6.90 KCAL/MOL
REMARK 924 INTRA-LIGAND FREE ENERGY PREDICTED BY IDOCK:   -0.09 KCAL/MOL
REMARK 927      BINDING AFFINITY PREDICTED BY RF-SCORE:    0.00 PKD
ROOT
HETATM    1  O   UNL     1     -12.007   7.886  71.258  1.00  0.00    -0.293 OA 
HETATM    2  C   UNL     1     -11.299   6.806  71.622  1.00  0.00    -0.266 C  
HETATM    3  O   UNL     1     -11.561   6.193  72.649  1.00  0.00    -0.265 OA 
HETATM    4  C   UNL     1     -10.273   6.281  70.673  1.00  0.00    -0.240 A  
HETATM    5  C   UNL     1     -10.186   4.871  70.651  1.00  0.00    -0.282 A  
HETATM    6  C   UNL     1      -9.238   4.210  69.870  1.00  0.00    -0.211 A  
HETATM    7  C   UNL     1      -8.361   4.945  69.086  1.00  0.00    -0.082 A  
HETATM    8  C   UNL     1      -8.431   6.340  69.085  1.00  0.00    -0.120 A  
HETATM    9  C   UNL     1      -9.368   7.023  69.888  1.00  0.00    -0.150 A  
ENDROOT
BRANCH   9  10
HETATM   10  C   UNL     1      -9.398   8.507  69.802  1.00  0.00    -0.161 C  
HETATM   11  O   UNL     1      -8.985   9.127  70.776  1.00  0.00    -0.209 OA 
HETATM   12  N   UNL     1      -9.945   9.057  68.650  1.00  0.00    -0.167 N  
HETATM   13  H   UNL     1     -10.254   8.401  67.932  1.00  0.00     0.000 HD 
BRANCH  12  14
HETATM   14  C   UNL     1     -10.119  10.434  68.367  1.00  0.00    -0.163 A  
HETATM   15  C   UNL     1      -9.118  11.394  68.539  1.00  0.00    -0.169 A  
HETATM   16  C   UNL     1      -9.359  12.746  68.264  1.00  0.00    -0.194 A  
HETATM   17  C   UNL     1     -10.612  13.149  67.800  1.00  0.00    -0.234 A  
HETATM   18  C   UNL     1     -11.374  10.854  67.897  1.00  0.00    -0.380 A  
HETATM   19  C   UNL     1     -11.627  12.206  67.623  1.00  0.00    -0.413 A  
BRANCH  17  20
HETATM   20  S   UNL     1     -10.947  14.888  67.558  1.00  0.00    -0.311 S  
HETATM   21  O   UNL     1     -11.126  15.115  66.138  1.00  0.00    -0.339 OA 
HETATM   22  O   UNL     1      -9.935  15.606  68.300  1.00  0.00    -0.211 OA 
BRANCH  20  23
HETATM   23  N   UNL     1     -12.405  15.145  68.377  1.00  0.00    -0.509 N  
HETATM   24  H   UNL     1     -13.281  15.377  67.908  1.00  0.00     0.000 HD 
BRANCH  23  25
HETATM   25  C   UNL     1     -12.284  15.005  69.775  1.00  0.00    -0.285 A  
HETATM   26  N   UNL     1     -12.841  13.962  70.336  1.00  0.00    -0.216 NA 
HETATM   27  C   UNL     1     -12.598  14.001  71.696  1.00  0.00    -0.317 A  
HETATM   28  C   UNL     1     -11.775  15.022  72.123  1.00  0.00    -0.349 A  
HETATM   29  S   UNL     1     -11.349  16.011  70.786  1.00  0.00    -0.367 SA 
ENDBRANCH  23  25
ENDBRANCH  20  23
ENDBRANCH  17  20
ENDBRANCH  12  14
ENDBRANCH   9  10
TORSDOF 5
ENDMDL
MODEL      117
REMARK 921   NORMALIZED FREE ENERGY PREDICTED BY IDOCK:   -4.62 KCAL/MOL
REMARK 922        TOTAL FREE ENERGY PREDICTED BY IDOCK:   -6.94 KCAL/MOL
REMARK 923 INTER-LIGAND FREE ENERGY PREDICTED BY IDOCK:   -6.03 KCAL/MOL
REMARK 924 INTRA-LIGAND FREE ENERGY PREDICTED BY IDOCK:   -0.91 KCAL/MOL
REMARK 927      BINDING AFFINITY PREDICTED BY RF-SCORE:    0.00 PKD
ROOT
HETATM    1  O   UNL     1      -9.525   6.107  71.517  1.00  0.00    -0.149 OA 
HETATM    2  C   UNL     1      -8.999   4.874  71.484  1.00  0.00    -0.135 C  
HETATM    3  O   UNL     1      -8.497   4.371  72.481  1.00  0.00    -0.106 OA 
HETATM    4  C   UNL     1      -9.167   4.068  70.238  1.00  0.00    -0.210 A  
HETATM    5  C   UNL     1      -9.384   2.692  70.474  1.00  0.00    -0.213 A  
HETATM    6  C   UNL     1      -9.499   1.780  69.425  1.00  0.00    -0.129 A  
HETATM    7  C   UNL     1      -9.409   2.226  68.115  1.00  0.00    -0.263 A  
HETATM    8  C   UNL     1      -9.202   3.582  67.854  1.00  0.00    -0.230 A  
HETATM    9  C   UNL     1      -9.059   4.513  68.905  1.00  0.00    -0.171 A  
ENDROOT
BRANCH   9  10
HETATM   10  C   UNL     1      -8.875   5.942  68.541  1.00  0.00    -0.111 C  
HETATM   11  O   UNL     1      -7.738   6.299  68.255  1.00  0.00    -0.100 OA 
HETATM   12  N   UNL     1      -9.999   6.756  68.612  1.00  0.00    -0.142 N  
HETATM   13  H   UNL     1     -10.875   6.305  68.876  1.00  0.00     0.000 HD 
BRANCH  12  14
HETATM   14  C   UNL     1     -10.054   8.149  68.356  1.00  0.00    -0.200 A  
HETATM   15  C   UNL     1     -10.114   9.120  69.358  1.00  0.00    -0.198 A  
HETATM   16  C   UNL     1     -10.191  10.483  69.041  1.00  0.00    -0.233 A  
HETATM   17  C   UNL     1     -10.198  10.885  67.705  1.00  0.00    -0.183 A  
HETATM   18  C   UNL     1     -10.060   8.569  67.016  1.00  0.00    -0.347 A  
HETATM   19  C   UNL     1     -10.142   9.931  66.687  1.00  0.00    -0.297 A  
BRANCH  17  20
HETATM   20  S   UNL     1     -10.410  12.614  67.305  1.00  0.00    -0.225 S  
HETATM   21  O   UNL     1     -10.356  12.750  65.863  1.00  0.00    -0.271 OA 
HETATM   22  O   UNL     1      -9.492  13.345  68.151  1.00  0.00    -0.208 OA 
BRANCH  20  23
HETATM   23  N   UNL     1     -11.964  12.981  67.866  1.00  0.00    -0.333 N  
HETATM   24  H   UNL     1     -12.805  12.496  67.551  1.00  0.00     0.000 HD 
BRANCH  23  25
HETATM   25  C   UNL     1     -11.976  14.025  68.814  1.00  0.00    -0.347 A  
HETATM   26  N   UNL     1     -11.858  15.251  68.375  1.00  0.00    -0.315 NA 
HETATM   27  C   UNL     1     -11.907  16.119  69.449  1.00  0.00    -0.151 A  
HETATM   28  C   UNL     1     -12.164  15.536  70.672  1.00  0.00    -0.402 A  
HETATM   29  S   UNL     1     -12.274  13.832  70.482  1.00  0.00    -0.360 SA 
ENDBRANCH  23  25
ENDBRANCH  20  23
ENDBRANCH  17  20
ENDBRANCH  12  14
ENDBRANCH   9  10
TORSDOF 5
ENDMDL
MODEL      118
REMARK 921   NORMALIZED FREE ENERGY PREDICTED BY IDOCK:   -4.62 KCAL/MOL
REMARK 922        TOTAL FREE ENERGY PREDICTED BY IDOCK:   -6.94 KCAL/MOL
REMARK 923 INTER-LIGAND FREE ENERGY PREDICTED BY IDOCK:   -6.05 KCAL/MOL
REMARK 924 INTRA-LIGAND FREE ENERGY PREDICTED BY IDOCK:   -0.88 KCAL/MOL
REMARK 927      BINDING AFFINITY PREDICTED BY RF-SCORE:    0.00 PKD
ROOT
HETATM    1  O   UNL     1     -12.206  11.922  67.114  1.00  0.00    -0.501 OA 
HETATM    2  C   UNL     1     -11.903  13.111  66.571  1.00  0.00    -0.400 C  
HETATM    3  O   UNL     1     -12.476  13.514  65.567  1.00  0.00    -0.449 OA 
HETATM    4  C   UNL     1     -10.950  13.998  67.301  1.00  0.00    -0.303 A  
HETATM    5  C   UNL     1     -11.275  15.371  67.222  1.00  0.00    -0.270 A  
HETATM    6  C   UNL     1     -10.460  16.348  67.792  1.00  0.00    -0.300 A  
HETATM    7  C   UNL     1      -9.304  15.974  68.461  1.00  0.00    -0.213 A  
HETATM    8  C   UNL     1      -8.964  14.623  68.560  1.00  0.00    -0.184 A  
HETATM    9  C   UNL     1      -9.766  13.625  67.967  1.00  0.00    -0.226 A  
ENDROOT
BRANCH   9  10
HETATM   10  C   UNL     1      -9.350  12.209  68.147  1.00  0.00    -0.204 C  
HETATM   11  O   UNL     1      -8.555  11.757  67.331  1.00  0.00    -0.148 OA 
HETATM   12  N   UNL     1      -9.943  11.510  69.191  1.00  0.00    -0.416 N  
HETATM   13  H   UNL     1     -10.595  12.030  69.778  1.00  0.00     0.000 HD 
BRANCH  12  14
HETATM   14  C   UNL     1      -9.737  10.148  69.525  1.00  0.00    -0.229 A  
HETATM   15  C   UNL     1      -8.587   9.670  70.157  1.00  0.00    -0.243 A  
HETATM   16  C   UNL     1      -8.433   8.306  70.440  1.00  0.00    -0.129 A  
HETATM   17  C   UNL     1      -9.442   7.406  70.098  1.00  0.00    -0.165 A  
HETATM   18  C   UNL     1     -10.746   9.231  69.188  1.00  0.00    -0.202 A  
HETATM   19  C   UNL     1     -10.599   7.863  69.463  1.00  0.00    -0.220 A  
BRANCH  17  20
HETATM   20  S   UNL     1      -9.192   5.656  70.359  1.00  0.00    -0.154 S  
HETATM   21  O   UNL     1     -10.397   4.965  69.946  1.00  0.00    -0.265 OA 
HETATM   22  O   UNL     1      -8.682   5.513  71.705  1.00  0.00    -0.133 OA 
BRANCH  20  23
HETATM   23  N   UNL     1      -7.912   5.264  69.324  1.00  0.00    -0.087 N  
HETATM   24  H   UNL     1      -7.038   4.846  69.644  1.00  0.00     0.000 HD 
BRANCH  23  25
HETATM   25  C   UNL     1      -8.179   5.574  67.974  1.00  0.00    -0.100 A  
HETATM   26  N   UNL     1      -9.136   4.915  67.373  1.00  0.00    -0.115 NA 
HETATM   27  C   UNL     1      -9.247   5.373  66.074  1.00  0.00    -0.158 A  
HETATM   28  C   UNL     1      -8.439   6.442  65.750  1.00  0.00    -0.148 A  
HETATM   29  S   UNL     1      -7.450   6.841  67.096  1.00  0.00    -0.093 SA 
ENDBRANCH  23  25
ENDBRANCH  20  23
ENDBRANCH  17  20
ENDBRANCH  12  14
ENDBRANCH   9  10
TORSDOF 5
ENDMDL
MODEL      119
REMARK 921   NORMALIZED FREE ENERGY PREDICTED BY IDOCK:   -4.61 KCAL/MOL
REMARK 922        TOTAL FREE ENERGY PREDICTED BY IDOCK:   -6.93 KCAL/MOL
REMARK 923 INTER-LIGAND FREE ENERGY PREDICTED BY IDOCK:   -5.87 KCAL/MOL
REMARK 924 INTRA-LIGAND FREE ENERGY PREDICTED BY IDOCK:   -1.05 KCAL/MOL
REMARK 927      BINDING AFFINITY PREDICTED BY RF-SCORE:    0.00 PKD
ROOT
HETATM    1  O   UNL     1      -8.560   5.901  66.774  1.00  0.00    -0.112 OA 
HETATM    2  C   UNL     1      -8.650   4.655  67.263  1.00  0.00    -0.104 C  
HETATM    3  O   UNL     1      -8.436   3.679  66.555  1.00  0.00    -0.103 OA 
HETATM    4  C   UNL     1      -8.876   4.486  68.729  1.00  0.00    -0.132 A  
HETATM    5  C   UNL     1      -8.182   3.392  69.291  1.00  0.00    -0.076 A  
HETATM    6  C   UNL     1      -8.326   3.047  70.634  1.00  0.00    -0.085 A  
HETATM    7  C   UNL     1      -9.163   3.794  71.449  1.00  0.00    -0.193 A  
HETATM    8  C   UNL     1      -9.856   4.886  70.920  1.00  0.00    -0.277 A  
HETATM    9  C   UNL     1      -9.739   5.232  69.557  1.00  0.00    -0.246 A  
ENDROOT
BRANCH   9  10
HETATM   10  C   UNL     1     -10.485   6.427  69.082  1.00  0.00    -0.229 C  
HETATM   11  O   UNL     1     -11.655   6.257  68.757  1.00  0.00    -0.167 OA 
HETATM   12  N   UNL     1      -9.772   7.616  68.996  1.00  0.00    -0.158 N  
HETATM   13  H   UNL     1      -8.798   7.589  69.298  1.00  0.00     0.000 HD 
BRANCH  12  14
HETATM   14  C   UNL     1     -10.258   8.864  68.532  1.00  0.00    -0.197 A  
HETATM   15  C   UNL     1     -10.188   9.277  67.200  1.00  0.00    -0.324 A  
HETATM   16  C   UNL     1     -10.665  10.534  66.806  1.00  0.00    -0.252 A  
HETATM   17  C   UNL     1     -11.230  11.390  67.752  1.00  0.00    -0.283 A  
HETATM   18  C   UNL     1     -10.831   9.735  69.473  1.00  0.00    -0.264 A  
HETATM   19  C   UNL     1     -11.308  10.998  69.091  1.00  0.00    -0.348 A  
BRANCH  17  20
HETATM   20  S   UNL     1     -11.734  13.035  67.266  1.00  0.00    -0.370 S  
HETATM   21  O   UNL     1     -12.163  13.741  68.457  1.00  0.00    -0.348 OA 
HETATM   22  O   UNL     1     -12.628  12.872  66.141  1.00  0.00    -0.429 OA 
BRANCH  20  23
HETATM   23  N   UNL     1     -10.321  13.734  66.651  1.00  0.00    -0.275 N  
HETATM   24  H   UNL     1     -10.055  13.692  65.668  1.00  0.00     0.000 HD 
BRANCH  23  25
HETATM   25  C   UNL     1      -9.550  14.381  67.640  1.00  0.00    -0.214 A  
HETATM   26  N   UNL     1      -8.584  13.701  68.203  1.00  0.00    -0.170 NA 
HETATM   27  C   UNL     1      -7.946  14.510  69.124  1.00  0.00    -0.048 A  
HETATM   28  C   UNL     1      -8.379  15.819  69.166  1.00  0.00    -0.249 A  
HETATM   29  S   UNL     1      -9.681  16.027  68.066  1.00  0.00    -0.218 SA 
ENDBRANCH  23  25
ENDBRANCH  20  23
ENDBRANCH  17  20
ENDBRANCH  12  14
ENDBRANCH   9  10
TORSDOF 5
ENDMDL
MODEL      120
REMARK 921   NORMALIZED FREE ENERGY PREDICTED BY IDOCK:   -4.61 KCAL/MOL
REMARK 922        TOTAL FREE ENERGY PREDICTED BY IDOCK:   -6.92 KCAL/MOL
REMARK 923 INTER-LIGAND FREE ENERGY PREDICTED BY IDOCK:   -5.98 KCAL/MOL
REMARK 924 INTRA-LIGAND FREE ENERGY PREDICTED BY IDOCK:   -0.94 KCAL/MOL
REMARK 927      BINDING AFFINITY PREDICTED BY RF-SCORE:    0.00 PKD
ROOT
HETATM    1  O   UNL     1     -10.026  13.977  68.736  1.00  0.00    -0.224 OA 
HETATM    2  C   UNL     1     -10.895  14.644  67.961  1.00  0.00    -0.257 C  
HETATM    3  O   UNL     1     -11.249  15.782  68.239  1.00  0.00    -0.327 OA 
HETATM    4  C   UNL     1     -11.313  14.019  66.671  1.00  0.00    -0.345 A  
HETATM    5  C   UNL     1     -11.477  14.945  65.616  1.00  0.00    -0.290 A  
HETATM    6  C   UNL     1     -11.924  14.546  64.357  1.00  0.00    -0.467 A  
HETATM    7  C   UNL     1     -12.212  13.210  64.122  1.00  0.00    -0.465 A  
HETATM    8  C   UNL     1     -12.052  12.273  65.146  1.00  0.00    -0.379 A  
HETATM    9  C   UNL     1     -11.623  12.666  66.431  1.00  0.00    -0.441 A  
ENDROOT
BRANCH   9  10
HETATM   10  C   UNL     1     -11.447  11.602  67.454  1.00  0.00    -0.285 C  
HETATM   11  O   UNL     1     -12.376  11.423  68.234  1.00  0.00    -0.506 OA 
HETATM   12  N   UNL     1     -10.223  10.944  67.470  1.00  0.00    -0.184 N  
HETATM   13  H   UNL     1      -9.548  11.217  66.756  1.00  0.00     0.000 HD 
BRANCH  12  14
HETATM   14  C   UNL     1      -9.815   9.934  68.376  1.00  0.00    -0.151 A  
HETATM   15  C   UNL     1      -8.950  10.157  69.449  1.00  0.00    -0.205 A  
HETATM   16  C   UNL     1      -8.564   9.111  70.297  1.00  0.00    -0.218 A  
HETATM   17  C   UNL     1      -9.056   7.823  70.080  1.00  0.00    -0.150 A  
HETATM   18  C   UNL     1     -10.304   8.633  68.171  1.00  0.00    -0.267 A  
HETATM   19  C   UNL     1      -9.920   7.577  69.011  1.00  0.00    -0.175 A  
BRANCH  17  20
HETATM   20  S   UNL     1      -8.473   6.472  71.094  1.00  0.00    -0.126 S  
HETATM   21  O   UNL     1      -9.215   5.283  70.724  1.00  0.00    -0.145 OA 
HETATM   22  O   UNL     1      -8.481   6.953  72.459  1.00  0.00    -0.117 OA 
BRANCH  20  23
HETATM   23  N   UNL     1      -6.847   6.302  70.662  1.00  0.00    -0.061 N  
HETATM   24  H   UNL     1      -6.107   6.918  71.000  1.00  0.00     0.000 HD 
BRANCH  23  25
HETATM   25  C   UNL     1      -6.619   5.221  69.784  1.00  0.00    -0.042 A  
HETATM   26  N   UNL     1      -6.238   4.082  70.303  1.00  0.00    -0.025 NA 
HETATM   27  C   UNL     1      -6.085   3.157  69.288  1.00  0.00    -0.024 A  
HETATM   28  C   UNL     1      -6.452   3.588  68.031  1.00  0.00    -0.037 A  
HETATM   29  S   UNL     1      -6.936   5.233  68.108  1.00  0.00    -0.062 SA 
ENDBRANCH  23  25
ENDBRANCH  20  23
ENDBRANCH  17  20
ENDBRANCH  12  14
ENDBRANCH   9  10
TORSDOF 5
ENDMDL
MODEL      121
REMARK 921   NORMALIZED FREE ENERGY PREDICTED BY IDOCK:   -4.60 KCAL/MOL
REMARK 922        TOTAL FREE ENERGY PREDICTED BY IDOCK:   -6.90 KCAL/MOL
REMARK 923 INTER-LIGAND FREE ENERGY PREDICTED BY IDOCK:   -6.63 KCAL/MOL
REMARK 924 INTRA-LIGAND FREE ENERGY PREDICTED BY IDOCK:   -0.28 KCAL/MOL
REMARK 927      BINDING AFFINITY PREDICTED BY RF-SCORE:    0.00 PKD
ROOT
HETATM    1  O   UNL     1     -11.611   6.752  72.540  1.00  0.00    -0.260 OA 
HETATM    2  C   UNL     1     -10.561   5.949  72.773  1.00  0.00    -0.225 C  
HETATM    3  O   UNL     1     -10.034   5.899  73.877  1.00  0.00    -0.176 OA 
HETATM    4  C   UNL     1     -10.139   5.008  71.693  1.00  0.00    -0.260 A  
HETATM    5  C   UNL     1      -9.704   3.752  72.171  1.00  0.00    -0.228 A  
HETATM    6  C   UNL     1      -9.214   2.772  71.307  1.00  0.00    -0.194 A  
HETATM    7  C   UNL     1      -9.155   3.025  69.945  1.00  0.00    -0.196 A  
HETATM    8  C   UNL     1      -9.585   4.257  69.447  1.00  0.00    -0.267 A  
HETATM    9  C   UNL     1     -10.060   5.267  70.310  1.00  0.00    -0.329 A  
ENDROOT
BRANCH   9  10
HETATM   10  C   UNL     1     -10.529   6.536  69.696  1.00  0.00    -0.216 C  
HETATM   11  O   UNL     1     -11.461   6.456  68.902  1.00  0.00    -0.314 OA 
HETATM   12  N   UNL     1      -9.833   7.690  70.032  1.00  0.00    -0.180 N  
HETATM   13  H   UNL     1      -9.072   7.586  70.703  1.00  0.00     0.000 HD 
BRANCH  12  14
HETATM   14  C   UNL     1     -10.069   8.997  69.539  1.00  0.00    -0.197 A  
HETATM   15  C   UNL     1      -9.244   9.637  68.611  1.00  0.00    -0.136 A  
HETATM   16  C   UNL     1      -9.519  10.942  68.178  1.00  0.00    -0.167 A  
HETATM   17  C   UNL     1     -10.637  11.615  68.670  1.00  0.00    -0.209 A  
HETATM   18  C   UNL     1     -11.192   9.687  70.022  1.00  0.00    -0.271 A  
HETATM   19  C   UNL     1     -11.474  10.995  69.600  1.00  0.00    -0.375 A  
BRANCH  17  20
HETATM   20  S   UNL     1     -10.919  13.317  68.202  1.00  0.00    -0.267 S  
HETATM   21  O   UNL     1     -10.920  13.389  66.754  1.00  0.00    -0.283 OA 
HETATM   22  O   UNL     1      -9.996  14.113  68.980  1.00  0.00    -0.175 OA 
BRANCH  20  23
HETATM   23  N   UNL     1     -12.463  13.661  68.803  1.00  0.00    -0.218 N  
HETATM   24  H   UNL     1     -13.324  13.442  68.301  1.00  0.00     0.000 HD 
BRANCH  23  25
HETATM   25  C   UNL     1     -12.436  14.279  70.070  1.00  0.00    -0.300 A  
HETATM   26  N   UNL     1     -12.550  13.515  71.126  1.00  0.00    -0.363 NA 
HETATM   27  C   UNL     1     -12.486  14.305  72.259  1.00  0.00    -0.188 A  
HETATM   28  C   UNL     1     -12.223  15.640  72.038  1.00  0.00    -0.436 A  
HETATM   29  S   UNL     1     -12.125  15.933  70.349  1.00  0.00    -0.195 SA 
ENDBRANCH  23  25
ENDBRANCH  20  23
ENDBRANCH  17  20
ENDBRANCH  12  14
ENDBRANCH   9  10
TORSDOF 5
ENDMDL
MODEL      122
REMARK 921   NORMALIZED FREE ENERGY PREDICTED BY IDOCK:   -4.58 KCAL/MOL
REMARK 922        TOTAL FREE ENERGY PREDICTED BY IDOCK:   -6.89 KCAL/MOL
REMARK 923 INTER-LIGAND FREE ENERGY PREDICTED BY IDOCK:   -6.13 KCAL/MOL
REMARK 924 INTRA-LIGAND FREE ENERGY PREDICTED BY IDOCK:   -0.76 KCAL/MOL
REMARK 927      BINDING AFFINITY PREDICTED BY RF-SCORE:    0.00 PKD
ROOT
HETATM    1  O   UNL     1     -10.444  12.707  66.015  1.00  0.00    -0.259 OA 
HETATM    2  C   UNL     1     -10.149  13.838  66.674  1.00  0.00    -0.277 C  
HETATM    3  O   UNL     1      -9.320  14.627  66.239  1.00  0.00    -0.286 OA 
HETATM    4  C   UNL     1     -10.960  14.186  67.878  1.00  0.00    -0.264 A  
HETATM    5  C   UNL     1     -11.218  15.568  68.012  1.00  0.00    -0.332 A  
HETATM    6  C   UNL     1     -11.907  16.080  69.111  1.00  0.00    -0.268 A  
HETATM    7  C   UNL     1     -12.361  15.219  70.099  1.00  0.00    -0.392 A  
HETATM    8  C   UNL     1     -12.125  13.846  69.987  1.00  0.00    -0.411 A  
HETATM    9  C   UNL     1     -11.409  13.317  68.893  1.00  0.00    -0.333 A  
ENDROOT
BRANCH   9  10
HETATM   10  C   UNL     1     -11.231  11.843  68.833  1.00  0.00    -0.254 C  
HETATM   11  O   UNL     1     -12.153  11.192  68.352  1.00  0.00    -0.605 OA 
HETATM   12  N   UNL     1     -10.061  11.330  69.380  1.00  0.00    -0.434 N  
HETATM   13  H   UNL     1      -9.395  12.007  69.751  1.00  0.00     0.000 HD 
BRANCH  12  14
HETATM   14  C   UNL     1      -9.698   9.964  69.476  1.00  0.00    -0.220 A  
HETATM   15  C   UNL     1      -8.836   9.325  68.582  1.00  0.00    -0.132 A  
HETATM   16  C   UNL     1      -8.533   7.964  68.717  1.00  0.00    -0.128 A  
HETATM   17  C   UNL     1      -9.088   7.229  69.764  1.00  0.00    -0.141 A  
HETATM   18  C   UNL     1     -10.248   9.211  70.527  1.00  0.00    -0.288 A  
HETATM   19  C   UNL     1      -9.955   7.846  70.668  1.00  0.00    -0.188 A  
BRANCH  17  20
HETATM   20  S   UNL     1      -8.788   5.469  69.865  1.00  0.00    -0.128 S  
HETATM   21  O   UNL     1     -10.073   4.797  69.884  1.00  0.00    -0.235 OA 
HETATM   22  O   UNL     1      -7.838   5.278  70.939  1.00  0.00    -0.092 OA 
BRANCH  20  23
HETATM   23  N   UNL     1      -7.962   5.109  68.433  1.00  0.00    -0.087 N  
HETATM   24  H   UNL     1      -7.275   5.731  68.008  1.00  0.00     0.000 HD 
BRANCH  23  25
HETATM   25  C   UNL     1      -8.322   3.858  67.889  1.00  0.00    -0.093 A  
HETATM   26  N   UNL     1      -7.913   2.781  68.510  1.00  0.00    -0.054 NA 
HETATM   27  C   UNL     1      -8.379   1.670  67.832  1.00  0.00    -0.065 A  
HETATM   28  C   UNL     1      -9.218   1.931  66.769  1.00  0.00     0.010 A  
HETATM   29  S   UNL     1      -9.369   3.629  66.563  1.00  0.00    -0.171 SA 
ENDBRANCH  23  25
ENDBRANCH  20  23
ENDBRANCH  17  20
ENDBRANCH  12  14
ENDBRANCH   9  10
TORSDOF 5
ENDMDL
MODEL      123
REMARK 921   NORMALIZED FREE ENERGY PREDICTED BY IDOCK:   -4.57 KCAL/MOL
REMARK 922        TOTAL FREE ENERGY PREDICTED BY IDOCK:   -6.88 KCAL/MOL
REMARK 923 INTER-LIGAND FREE ENERGY PREDICTED BY IDOCK:   -6.31 KCAL/MOL
REMARK 924 INTRA-LIGAND FREE ENERGY PREDICTED BY IDOCK:   -0.57 KCAL/MOL
REMARK 927      BINDING AFFINITY PREDICTED BY RF-SCORE:    0.00 PKD
ROOT
HETATM    1  O   UNL     1     -12.161  11.846  66.547  1.00  0.00    -0.568 OA 
HETATM    2  C   UNL     1     -11.859  12.484  65.406  1.00  0.00    -0.428 C  
HETATM    3  O   UNL     1     -12.090  11.976  64.316  1.00  0.00    -0.362 OA 
HETATM    4  C   UNL     1     -11.365  13.890  65.492  1.00  0.00    -0.310 A  
HETATM    5  C   UNL     1     -11.835  14.723  64.453  1.00  0.00    -0.393 A  
HETATM    6  C   UNL     1     -11.424  16.051  64.339  1.00  0.00    -0.246 A  
HETATM    7  C   UNL     1     -10.541  16.579  65.269  1.00  0.00    -0.273 A  
HETATM    8  C   UNL     1     -10.067  15.778  66.311  1.00  0.00    -0.320 A  
HETATM    9  C   UNL     1     -10.454  14.426  66.424  1.00  0.00    -0.295 A  
ENDROOT
BRANCH   9  10
HETATM   10  C   UNL     1      -9.930  13.653  67.580  1.00  0.00    -0.239 C  
HETATM   11  O   UNL     1      -9.875  14.237  68.657  1.00  0.00    -0.232 OA 
HETATM   12  N   UNL     1      -9.497  12.358  67.324  1.00  0.00    -0.187 N  
HETATM   13  H   UNL     1      -9.603  12.021  66.368  1.00  0.00     0.000 HD 
BRANCH  12  14
HETATM   14  C   UNL     1      -8.923  11.456  68.255  1.00  0.00    -0.175 A  
HETATM   15  C   UNL     1      -7.657  11.625  68.819  1.00  0.00    -0.119 A  
HETATM   16  C   UNL     1      -7.134  10.685  69.717  1.00  0.00    -0.140 A  
HETATM   17  C   UNL     1      -7.888   9.564  70.066  1.00  0.00    -0.151 A  
HETATM   18  C   UNL     1      -9.671  10.325  68.617  1.00  0.00    -0.171 A  
HETATM   19  C   UNL     1      -9.155   9.374  69.511  1.00  0.00    -0.169 A  
BRANCH  17  20
HETATM   20  S   UNL     1      -7.172   8.312  71.123  1.00  0.00    -0.072 S  
HETATM   21  O   UNL     1      -7.147   8.831  72.476  1.00  0.00    -0.299 OA 
HETATM   22  O   UNL     1      -5.954   7.879  70.474  1.00  0.00    -0.030 OA 
BRANCH  20  23
HETATM   23  N   UNL     1      -8.253   7.015  71.016  1.00  0.00    -0.116 N  
HETATM   24  H   UNL     1      -8.435   6.504  70.151  1.00  0.00     0.000 HD 
BRANCH  23  25
HETATM   25  C   UNL     1      -8.875   6.712  72.245  1.00  0.00    -0.133 A  
HETATM   26  N   UNL     1      -8.222   5.955  73.090  1.00  0.00    -0.117 NA 
HETATM   27  C   UNL     1      -8.990   5.791  74.228  1.00  0.00    -0.123 A  
HETATM   28  C   UNL     1     -10.165   6.511  74.261  1.00  0.00    -0.350 A  
HETATM   29  S   UNL     1     -10.354   7.367  72.784  1.00  0.00    -0.289 SA 
ENDBRANCH  23  25
ENDBRANCH  20  23
ENDBRANCH  17  20
ENDBRANCH  12  14
ENDBRANCH   9  10
TORSDOF 5
ENDMDL
MODEL      124
REMARK 921   NORMALIZED FREE ENERGY PREDICTED BY IDOCK:   -4.54 KCAL/MOL
REMARK 922        TOTAL FREE ENERGY PREDICTED BY IDOCK:   -6.83 KCAL/MOL
REMARK 923 INTER-LIGAND FREE ENERGY PREDICTED BY IDOCK:   -5.99 KCAL/MOL
REMARK 924 INTRA-LIGAND FREE ENERGY PREDICTED BY IDOCK:   -0.84 KCAL/MOL
REMARK 927      BINDING AFFINITY PREDICTED BY RF-SCORE:    0.00 PKD
ROOT
HETATM    1  O   UNL     1      -6.698   9.345  67.165  1.00  0.00    -0.073 OA 
HETATM    2  C   UNL     1      -6.970   8.088  66.785  1.00  0.00    -0.073 C  
HETATM    3  O   UNL     1      -6.087   7.343  66.381  1.00  0.00    -0.038 OA 
HETATM    4  C   UNL     1      -8.354   7.569  67.000  1.00  0.00    -0.121 A  
HETATM    5  C   UNL     1      -8.399   6.210  67.383  1.00  0.00    -0.108 A  
HETATM    6  C   UNL     1      -9.609   5.543  67.565  1.00  0.00    -0.131 A  
HETATM    7  C   UNL     1     -10.803   6.222  67.377  1.00  0.00    -0.448 A  
HETATM    8  C   UNL     1     -10.786   7.569  67.006  1.00  0.00    -0.264 A  
HETATM    9  C   UNL     1      -9.569   8.250  66.793  1.00  0.00    -0.288 A  
ENDROOT
BRANCH   9  10
HETATM   10  C   UNL     1      -9.639   9.690  66.433  1.00  0.00    -0.210 C  
HETATM   11  O   UNL     1      -9.936   9.958  65.273  1.00  0.00    -0.318 OA 
HETATM   12  N   UNL     1      -9.306  10.603  67.426  1.00  0.00    -0.143 N  
HETATM   13  H   UNL     1      -9.072  10.217  68.341  1.00  0.00     0.000 HD 
BRANCH  12  14
HETATM   14  C   UNL     1      -9.259  12.013  67.302  1.00  0.00    -0.182 A  
HETATM   15  C   UNL     1      -8.072  12.744  67.207  1.00  0.00    -0.172 A  
HETATM   16  C   UNL     1      -8.090  14.142  67.108  1.00  0.00    -0.139 A  
HETATM   17  C   UNL     1      -9.308  14.822  67.094  1.00  0.00    -0.224 A  
HETATM   18  C   UNL     1     -10.477  12.711  67.283  1.00  0.00    -0.237 A  
HETATM   19  C   UNL     1     -10.506  14.111  67.190  1.00  0.00    -0.270 A  
BRANCH  17  20
HETATM   20  S   UNL     1      -9.321  16.609  67.082  1.00  0.00    -0.233 S  
HETATM   21  O   UNL     1     -10.599  17.050  67.605  1.00  0.00    -0.339 OA 
HETATM   22  O   UNL     1      -8.884  17.012  65.764  1.00  0.00    -0.523 OA 
BRANCH  20  23
HETATM   23  N   UNL     1      -8.077  17.038  68.145  1.00  0.00    -0.204 N  
HETATM   24  H   UNL     1      -7.695  16.406  68.848  1.00  0.00     0.000 HD 
BRANCH  23  25
HETATM   25  C   UNL     1      -7.624  18.361  67.958  1.00  0.00    -0.259 A  
HETATM   26  N   UNL     1      -6.361  18.539  67.669  1.00  0.00    -0.197 NA 
HETATM   27  C   UNL     1      -6.124  19.892  67.513  1.00  0.00    -0.189 A  
HETATM   28  C   UNL     1      -7.237  20.703  67.587  1.00  0.00    -0.308 A  
HETATM   29  S   UNL     1      -8.619  19.746  67.939  1.00  0.00    -0.296 SA 
ENDBRANCH  23  25
ENDBRANCH  20  23
ENDBRANCH  17  20
ENDBRANCH  12  14
ENDBRANCH   9  10
TORSDOF 5
ENDMDL
MODEL      125
REMARK 921   NORMALIZED FREE ENERGY PREDICTED BY IDOCK:   -4.52 KCAL/MOL
REMARK 922        TOTAL FREE ENERGY PREDICTED BY IDOCK:   -6.81 KCAL/MOL
REMARK 923 INTER-LIGAND FREE ENERGY PREDICTED BY IDOCK:   -6.33 KCAL/MOL
REMARK 924 INTRA-LIGAND FREE ENERGY PREDICTED BY IDOCK:   -0.48 KCAL/MOL
REMARK 927      BINDING AFFINITY PREDICTED BY RF-SCORE:    0.00 PKD
ROOT
HETATM    1  O   UNL     1     -10.765  17.439  68.236  1.00  0.00    -0.371 OA 
HETATM    2  C   UNL     1     -10.397  18.552  67.583  1.00  0.00    -0.410 C  
HETATM    3  O   UNL     1     -11.130  19.531  67.536  1.00  0.00    -0.398 OA 
HETATM    4  C   UNL     1      -9.010  18.622  67.034  1.00  0.00    -0.289 A  
HETATM    5  C   UNL     1      -8.423  19.903  67.135  1.00  0.00    -0.376 A  
HETATM    6  C   UNL     1      -7.155  20.167  66.617  1.00  0.00    -0.280 A  
HETATM    7  C   UNL     1      -6.443  19.154  65.993  1.00  0.00    -0.232 A  
HETATM    8  C   UNL     1      -6.999  17.877  65.886  1.00  0.00    -0.313 A  
HETATM    9  C   UNL     1      -8.290  17.601  66.384  1.00  0.00    -0.288 A  
ENDROOT
BRANCH   9  10
HETATM   10  C   UNL     1      -8.793  16.208  66.260  1.00  0.00    -0.336 C  
HETATM   11  O   UNL     1      -9.563  15.977  65.335  1.00  0.00    -0.409 OA 
HETATM   12  N   UNL     1      -8.390  15.307  67.238  1.00  0.00    -0.184 N  
HETATM   13  H   UNL     1      -7.751  15.660  67.950  1.00  0.00     0.000 HD 
BRANCH  12  14
HETATM   14  C   UNL     1      -8.776  13.948  67.350  1.00  0.00    -0.203 A  
HETATM   15  C   UNL     1      -9.909  13.410  66.736  1.00  0.00    -0.265 A  
HETATM   16  C   UNL     1     -10.251  12.061  66.903  1.00  0.00    -0.230 A  
HETATM   17  C   UNL     1      -9.446  11.233  67.686  1.00  0.00    -0.167 A  
HETATM   18  C   UNL     1      -7.974  13.101  68.132  1.00  0.00    -0.154 A  
HETATM   19  C   UNL     1      -8.310  11.750  68.311  1.00  0.00    -0.159 A  
BRANCH  17  20
HETATM   20  S   UNL     1      -9.947   9.543  67.988  1.00  0.00    -0.176 S  
HETATM   21  O   UNL     1     -10.630   9.061  66.803  1.00  0.00    -0.228 OA 
HETATM   22  O   UNL     1     -10.607   9.537  69.275  1.00  0.00    -0.211 OA 
BRANCH  20  23
HETATM   23  N   UNL     1      -8.489   8.712  68.199  1.00  0.00    -0.130 N  
HETATM   24  H   UNL     1      -7.946   8.738  69.062  1.00  0.00     0.000 HD 
BRANCH  23  25
HETATM   25  C   UNL     1      -8.102   7.979  67.058  1.00  0.00    -0.116 A  
HETATM   26  N   UNL     1      -8.298   6.685  67.067  1.00  0.00    -0.113 NA 
HETATM   27  C   UNL     1      -7.870   6.159  65.863  1.00  0.00    -0.107 A  
HETATM   28  C   UNL     1      -7.450   7.081  64.927  1.00  0.00    -0.095 A  
HETATM   29  S   UNL     1      -7.525   8.658  65.604  1.00  0.00    -0.086 SA 
ENDBRANCH  23  25
ENDBRANCH  20  23
ENDBRANCH  17  20
ENDBRANCH  12  14
ENDBRANCH   9  10
TORSDOF 5
ENDMDL
MODEL      126
REMARK 921   NORMALIZED FREE ENERGY PREDICTED BY IDOCK:   -4.52 KCAL/MOL
REMARK 922        TOTAL FREE ENERGY PREDICTED BY IDOCK:   -6.81 KCAL/MOL
REMARK 923 INTER-LIGAND FREE ENERGY PREDICTED BY IDOCK:   -5.81 KCAL/MOL
REMARK 924 INTRA-LIGAND FREE ENERGY PREDICTED BY IDOCK:   -0.99 KCAL/MOL
REMARK 927      BINDING AFFINITY PREDICTED BY RF-SCORE:    0.00 PKD
ROOT
HETATM    1  O   UNL     1     -11.818  12.249  66.653  1.00  0.00    -0.536 OA 
HETATM    2  C   UNL     1     -11.259  13.155  65.837  1.00  0.00    -0.289 C  
HETATM    3  O   UNL     1     -11.763  13.432  64.756  1.00  0.00    -0.336 OA 
HETATM    4  C   UNL     1     -10.082  13.926  66.338  1.00  0.00    -0.298 A  
HETATM    5  C   UNL     1     -10.064  15.275  65.917  1.00  0.00    -0.359 A  
HETATM    6  C   UNL     1      -9.007  16.126  66.239  1.00  0.00    -0.379 A  
HETATM    7  C   UNL     1      -7.948  15.650  66.998  1.00  0.00    -0.268 A  
HETATM    8  C   UNL     1      -7.946  14.322  67.433  1.00  0.00    -0.211 A  
HETATM    9  C   UNL     1      -8.996  13.442  67.094  1.00  0.00    -0.227 A  
ENDROOT
BRANCH   9  10
HETATM   10  C   UNL     1      -8.933  12.056  67.625  1.00  0.00    -0.172 C  
HETATM   11  O   UNL     1      -8.365  11.221  66.929  1.00  0.00    -0.142 OA 
HETATM   12  N   UNL     1      -9.572  11.819  68.835  1.00  0.00    -0.412 N  
HETATM   13  H   UNL     1     -10.009  12.622  69.287  1.00  0.00     0.000 HD 
BRANCH  12  14
HETATM   14  C   UNL     1      -9.681  10.576  69.508  1.00  0.00    -0.119 A  
HETATM   15  C   UNL     1     -10.858   9.825  69.565  1.00  0.00    -0.264 A  
HETATM   16  C   UNL     1     -10.909   8.613  70.266  1.00  0.00    -0.250 A  
HETATM   17  C   UNL     1      -9.768   8.136  70.912  1.00  0.00    -0.166 A  
HETATM   18  C   UNL     1      -8.541  10.082  70.161  1.00  0.00    -0.046 A  
HETATM   19  C   UNL     1      -8.582   8.872  70.870  1.00  0.00    -0.242 A  
BRANCH  17  20
HETATM   20  S   UNL     1      -9.869   6.648  71.898  1.00  0.00    -0.164 S  
HETATM   21  O   UNL     1     -10.579   5.648  71.126  1.00  0.00    -0.233 OA 
HETATM   22  O   UNL     1     -10.349   7.054  73.201  1.00  0.00    -0.224 OA 
BRANCH  20  23
HETATM   23  N   UNL     1      -8.256   6.184  72.111  1.00  0.00    -0.110 N  
HETATM   24  H   UNL     1      -7.470   6.831  72.038  1.00  0.00     0.000 HD 
BRANCH  23  25
HETATM   25  C   UNL     1      -8.111   4.812  72.401  1.00  0.00    -0.107 A  
HETATM   26  N   UNL     1      -7.538   4.054  71.500  1.00  0.00    -0.062 NA 
HETATM   27  C   UNL     1      -7.479   2.758  71.978  1.00  0.00    -0.047 A  
HETATM   28  C   UNL     1      -7.918   2.582  73.273  1.00  0.00    -0.058 A  
HETATM   29  S   UNL     1      -8.495   4.076  73.891  1.00  0.00    -0.091 SA 
ENDBRANCH  23  25
ENDBRANCH  20  23
ENDBRANCH  17  20
ENDBRANCH  12  14
ENDBRANCH   9  10
TORSDOF 5
ENDMDL
MODEL      127
REMARK 921   NORMALIZED FREE ENERGY PREDICTED BY IDOCK:   -4.50 KCAL/MOL
REMARK 922        TOTAL FREE ENERGY PREDICTED BY IDOCK:   -6.78 KCAL/MOL
REMARK 923 INTER-LIGAND FREE ENERGY PREDICTED BY IDOCK:   -5.98 KCAL/MOL
REMARK 924 INTRA-LIGAND FREE ENERGY PREDICTED BY IDOCK:   -0.80 KCAL/MOL
REMARK 927      BINDING AFFINITY PREDICTED BY RF-SCORE:    0.00 PKD
ROOT
HETATM    1  O   UNL     1     -12.130   6.701  70.360  1.00  0.00    -0.374 OA 
HETATM    2  C   UNL     1     -12.103   6.475  71.682  1.00  0.00    -0.328 C  
HETATM    3  O   UNL     1     -13.130   6.245  72.307  1.00  0.00    -0.038 OA 
HETATM    4  C   UNL     1     -10.773   6.366  72.352  1.00  0.00    -0.255 A  
HETATM    5  C   UNL     1     -10.729   5.395  73.376  1.00  0.00    -0.321 A  
HETATM    6  C   UNL     1      -9.586   5.202  74.151  1.00  0.00    -0.144 A  
HETATM    7  C   UNL     1      -8.457   5.971  73.913  1.00  0.00    -0.116 A  
HETATM    8  C   UNL     1      -8.472   6.934  72.901  1.00  0.00    -0.127 A  
HETATM    9  C   UNL     1      -9.629   7.157  72.125  1.00  0.00    -0.160 A  
ENDROOT
BRANCH   9  10
HETATM   10  C   UNL     1      -9.550   8.177  71.047  1.00  0.00    -0.159 C  
HETATM   11  O   UNL     1      -9.530   9.352  71.396  1.00  0.00    -0.254 OA 
HETATM   12  N   UNL     1      -9.564   7.708  69.739  1.00  0.00    -0.164 N  
HETATM   13  H   UNL     1      -9.592   6.696  69.616  1.00  0.00     0.000 HD 
BRANCH  12  14
HETATM   14  C   UNL     1      -9.543   8.490  68.558  1.00  0.00    -0.151 A  
HETATM   15  C   UNL     1     -10.642   8.645  67.710  1.00  0.00    -0.249 A  
HETATM   16  C   UNL     1     -10.552   9.414  66.542  1.00  0.00    -0.125 A  
HETATM   17  C   UNL     1      -9.352  10.047  66.218  1.00  0.00    -0.168 A  
HETATM   18  C   UNL     1      -8.342   9.135  68.220  1.00  0.00    -0.120 A  
HETATM   19  C   UNL     1      -8.239   9.904  67.050  1.00  0.00    -0.117 A  
BRANCH  17  20
HETATM   20  S   UNL     1      -9.209  10.933  64.672  1.00  0.00    -0.174 S  
HETATM   21  O   UNL     1     -10.370  10.613  63.865  1.00  0.00    -0.318 OA 
HETATM   22  O   UNL     1      -7.873  10.680  64.178  1.00  0.00    -0.029 OA 
BRANCH  20  23
HETATM   23  N   UNL     1      -9.246  12.562  65.124  1.00  0.00    -0.220 N  
HETATM   24  H   UNL     1      -8.416  13.156  65.159  1.00  0.00     0.000 HD 
BRANCH  23  25
HETATM   25  C   UNL     1     -10.541  13.016  65.449  1.00  0.00    -0.292 A  
HETATM   26  N   UNL     1     -10.837  13.166  66.715  1.00  0.00    -0.274 NA 
HETATM   27  C   UNL     1     -12.135  13.628  66.820  1.00  0.00    -0.399 A  
HETATM   28  C   UNL     1     -12.762  13.914  65.625  1.00  0.00    -0.495 A  
HETATM   29  S   UNL     1     -11.716  13.521  64.321  1.00  0.00    -0.414 SA 
ENDBRANCH  23  25
ENDBRANCH  20  23
ENDBRANCH  17  20
ENDBRANCH  12  14
ENDBRANCH   9  10
TORSDOF 5
ENDMDL
MODEL      128
REMARK 921   NORMALIZED FREE ENERGY PREDICTED BY IDOCK:   -4.49 KCAL/MOL
REMARK 922        TOTAL FREE ENERGY PREDICTED BY IDOCK:   -6.77 KCAL/MOL
REMARK 923 INTER-LIGAND FREE ENERGY PREDICTED BY IDOCK:   -6.45 KCAL/MOL
REMARK 924 INTRA-LIGAND FREE ENERGY PREDICTED BY IDOCK:   -0.33 KCAL/MOL
REMARK 927      BINDING AFFINITY PREDICTED BY RF-SCORE:    0.00 PKD
ROOT
HETATM    1  O   UNL     1      -8.632   7.934  70.540  1.00  0.00    -0.128 OA 
HETATM    2  C   UNL     1      -8.176   7.046  69.645  1.00  0.00    -0.131 C  
HETATM    3  O   UNL     1      -7.041   6.593  69.722  1.00  0.00    -0.064 OA 
HETATM    4  C   UNL     1      -9.132   6.511  68.631  1.00  0.00    -0.128 A  
HETATM    5  C   UNL     1      -8.935   5.146  68.326  1.00  0.00    -0.119 A  
HETATM    6  C   UNL     1      -9.697   4.497  67.355  1.00  0.00    -0.218 A  
HETATM    7  C   UNL     1     -10.679   5.198  66.671  1.00  0.00    -0.225 A  
HETATM    8  C   UNL     1     -10.899   6.547  66.958  1.00  0.00    -0.465 A  
HETATM    9  C   UNL     1     -10.120   7.223  67.921  1.00  0.00    -0.217 A  
ENDROOT
BRANCH   9  10
HETATM   10  C   UNL     1     -10.441   8.649  68.190  1.00  0.00    -0.187 C  
HETATM   11  O   UNL     1     -11.139   8.884  69.170  1.00  0.00    -0.045 OA 
HETATM   12  N   UNL     1      -9.969   9.581  67.275  1.00  0.00    -0.177 N  
HETATM   13  H   UNL     1      -9.407   9.221  66.503  1.00  0.00     0.000 HD 
BRANCH  12  14
HETATM   14  C   UNL     1     -10.187  10.981  67.300  1.00  0.00    -0.199 A  
HETATM   15  C   UNL     1     -11.433  11.568  67.534  1.00  0.00    -0.355 A  
HETATM   16  C   UNL     1     -11.589  12.961  67.524  1.00  0.00    -0.409 A  
HETATM   17  C   UNL     1     -10.486  13.782  67.288  1.00  0.00    -0.264 A  
HETATM   18  C   UNL     1      -9.085  11.820  67.067  1.00  0.00    -0.187 A  
HETATM   19  C   UNL     1      -9.231  13.216  67.050  1.00  0.00    -0.233 A  
BRANCH  17  20
HETATM   20  S   UNL     1     -10.712  15.551  67.164  1.00  0.00    -0.311 S  
HETATM   21  O   UNL     1     -11.866  15.911  67.964  1.00  0.00    -0.170 OA 
HETATM   22  O   UNL     1     -10.659  15.871  65.755  1.00  0.00    -0.332 OA 
BRANCH  20  23
HETATM   23  N   UNL     1      -9.305  16.195  67.849  1.00  0.00    -0.211 N  
HETATM   24  H   UNL     1      -8.542  15.623  68.210  1.00  0.00     0.000 HD 
BRANCH  23  25
HETATM   25  C   UNL     1      -9.298  17.606  67.867  1.00  0.00    -0.268 A  
HETATM   26  N   UNL     1      -9.872  18.207  68.878  1.00  0.00    -0.340 NA 
HETATM   27  C   UNL     1      -9.744  19.574  68.717  1.00  0.00    -0.438 A  
HETATM   28  C   UNL     1      -8.986  19.977  67.638  1.00  0.00    -0.331 A  
HETATM   29  S   UNL     1      -8.476  18.598  66.750  1.00  0.00    -0.295 SA 
ENDBRANCH  23  25
ENDBRANCH  20  23
ENDBRANCH  17  20
ENDBRANCH  12  14
ENDBRANCH   9  10
TORSDOF 5
ENDMDL
MODEL      129
REMARK 921   NORMALIZED FREE ENERGY PREDICTED BY IDOCK:   -4.46 KCAL/MOL
REMARK 922        TOTAL FREE ENERGY PREDICTED BY IDOCK:   -6.73 KCAL/MOL
REMARK 923 INTER-LIGAND FREE ENERGY PREDICTED BY IDOCK:   -5.99 KCAL/MOL
REMARK 924 INTRA-LIGAND FREE ENERGY PREDICTED BY IDOCK:   -0.74 KCAL/MOL
REMARK 927      BINDING AFFINITY PREDICTED BY RF-SCORE:    0.00 PKD
ROOT
HETATM    1  O   UNL     1      -6.369  14.663  67.318  1.00  0.00    -0.303 OA 
HETATM    2  C   UNL     1      -6.721  15.816  67.906  1.00  0.00    -0.145 C  
HETATM    3  O   UNL     1      -5.971  16.384  68.688  1.00  0.00    -0.117 OA 
HETATM    4  C   UNL     1      -7.994  16.467  67.475  1.00  0.00    -0.176 A  
HETATM    5  C   UNL     1      -7.925  17.878  67.430  1.00  0.00    -0.221 A  
HETATM    6  C   UNL     1      -9.038  18.653  67.110  1.00  0.00    -0.294 A  
HETATM    7  C   UNL     1     -10.245  18.036  66.819  1.00  0.00    -0.367 A  
HETATM    8  C   UNL     1     -10.338  16.642  66.850  1.00  0.00    -0.299 A  
HETATM    9  C   UNL     1      -9.227  15.845  67.196  1.00  0.00    -0.222 A  
ENDROOT
BRANCH   9  10
HETATM   10  C   UNL     1      -9.402  14.369  67.171  1.00  0.00    -0.220 C  
HETATM   11  O   UNL     1      -9.642  13.858  66.083  1.00  0.00    -0.281 OA 
HETATM   12  N   UNL     1      -9.334  13.710  68.392  1.00  0.00    -0.254 N  
HETATM   13  H   UNL     1      -9.135  14.284  69.211  1.00  0.00     0.000 HD 
BRANCH  12  14
HETATM   14  C   UNL     1      -9.514  12.323  68.618  1.00  0.00    -0.023 A  
HETATM   15  C   UNL     1      -8.465  11.401  68.657  1.00  0.00    -0.131 A  
HETATM   16  C   UNL     1      -8.709  10.036  68.862  1.00  0.00    -0.146 A  
HETATM   17  C   UNL     1     -10.017   9.584  69.040  1.00  0.00    -0.180 A  
HETATM   18  C   UNL     1     -10.824  11.853  68.802  1.00  0.00    -0.270 A  
HETATM   19  C   UNL     1     -11.081  10.488  69.002  1.00  0.00    -0.300 A  
BRANCH  17  20
HETATM   20  S   UNL     1     -10.332   7.830  69.188  1.00  0.00    -0.210 S  
HETATM   21  O   UNL     1     -11.275   7.635  70.272  1.00  0.00    -0.265 OA 
HETATM   22  O   UNL     1      -9.039   7.183  69.207  1.00  0.00    -0.139 OA 
BRANCH  20  23
HETATM   23  N   UNL     1     -11.048   7.414  67.712  1.00  0.00    -0.511 N  
HETATM   24  H   UNL     1     -12.018   7.624  67.478  1.00  0.00     0.000 HD 
BRANCH  23  25
HETATM   25  C   UNL     1     -10.163   6.747  66.839  1.00  0.00    -0.231 A  
HETATM   26  N   UNL     1      -9.247   7.460  66.235  1.00  0.00    -0.161 NA 
HETATM   27  C   UNL     1      -8.480   6.625  65.444  1.00  0.00    -0.107 A  
HETATM   28  C   UNL     1      -8.769   5.281  65.544  1.00  0.00    -0.149 A  
HETATM   29  S   UNL     1     -10.096   5.058  66.611  1.00  0.00    -0.264 SA 
ENDBRANCH  23  25
ENDBRANCH  20  23
ENDBRANCH  17  20
ENDBRANCH  12  14
ENDBRANCH   9  10
TORSDOF 5
ENDMDL
MODEL      130
REMARK 921   NORMALIZED FREE ENERGY PREDICTED BY IDOCK:   -4.45 KCAL/MOL
REMARK 922        TOTAL FREE ENERGY PREDICTED BY IDOCK:   -6.72 KCAL/MOL
REMARK 923 INTER-LIGAND FREE ENERGY PREDICTED BY IDOCK:   -6.58 KCAL/MOL
REMARK 924 INTRA-LIGAND FREE ENERGY PREDICTED BY IDOCK:   -0.14 KCAL/MOL
REMARK 927      BINDING AFFINITY PREDICTED BY RF-SCORE:    0.00 PKD
ROOT
HETATM    1  O   UNL     1     -10.835  13.153  65.626  1.00  0.00    -0.274 OA 
HETATM    2  C   UNL     1     -11.439  12.581  66.678  1.00  0.00    -0.359 C  
HETATM    3  O   UNL     1     -12.652  12.652  66.829  1.00  0.00    -0.154 OA 
HETATM    4  C   UNL     1     -10.616  11.731  67.589  1.00  0.00    -0.237 A  
HETATM    5  C   UNL     1     -11.297  10.594  68.077  1.00  0.00    -0.350 A  
HETATM    6  C   UNL     1     -10.702   9.723  68.989  1.00  0.00    -0.238 A  
HETATM    7  C   UNL     1      -9.409   9.965  69.428  1.00  0.00    -0.226 A  
HETATM    8  C   UNL     1      -8.711  11.079  68.955  1.00  0.00    -0.122 A  
HETATM    9  C   UNL     1      -9.308  11.982  68.051  1.00  0.00    -0.196 A  
ENDROOT
BRANCH   9  10
HETATM   10  C   UNL     1      -8.485  13.123  67.571  1.00  0.00    -0.198 C  
HETATM   11  O   UNL     1      -7.497  12.849  66.899  1.00  0.00     0.024 OA 
HETATM   12  N   UNL     1      -8.878  14.393  67.976  1.00  0.00    -0.171 N  
HETATM   13  H   UNL     1      -9.723  14.451  68.544  1.00  0.00     0.000 HD 
BRANCH  12  14
HETATM   14  C   UNL     1      -8.226  15.616  67.681  1.00  0.00    -0.150 A  
HETATM   15  C   UNL     1      -7.460  16.329  68.606  1.00  0.00    -0.185 A  
HETATM   16  C   UNL     1      -6.859  17.547  68.260  1.00  0.00    -0.200 A  
HETATM   17  C   UNL     1      -7.014  18.057  66.971  1.00  0.00    -0.190 A  
HETATM   18  C   UNL     1      -8.371  16.141  66.387  1.00  0.00    -0.357 A  
HETATM   19  C   UNL     1      -7.778  17.362  66.032  1.00  0.00    -0.233 A  
BRANCH  17  20
HETATM   20  S   UNL     1      -6.340  19.664  66.570  1.00  0.00    -0.184 S  
HETATM   21  O   UNL     1      -6.200  19.743  65.130  1.00  0.00    -0.225 OA 
HETATM   22  O   UNL     1      -5.196  19.854  67.435  1.00  0.00    -0.164 OA 
BRANCH  20  23
HETATM   23  N   UNL     1      -7.521  20.752  67.102  1.00  0.00    -0.462 N  
HETATM   24  H   UNL     1      -7.341  21.742  67.265  1.00  0.00     0.000 HD 
BRANCH  23  25
HETATM   25  C   UNL     1      -8.780  20.147  67.296  1.00  0.00    -0.348 A  
HETATM   26  N   UNL     1      -9.125  19.830  68.518  1.00  0.00    -0.294 NA 
HETATM   27  C   UNL     1     -10.387  19.268  68.497  1.00  0.00    -0.294 A  
HETATM   28  C   UNL     1     -11.014  19.264  67.268  1.00  0.00    -0.338 A  
HETATM   29  S   UNL     1      -9.958  19.919  66.084  1.00  0.00    -0.462 SA 
ENDBRANCH  23  25
ENDBRANCH  20  23
ENDBRANCH  17  20
ENDBRANCH  12  14
ENDBRANCH   9  10
TORSDOF 5
ENDMDL
MODEL      131
REMARK 921   NORMALIZED FREE ENERGY PREDICTED BY IDOCK:   -4.44 KCAL/MOL
REMARK 922        TOTAL FREE ENERGY PREDICTED BY IDOCK:   -6.71 KCAL/MOL
REMARK 923 INTER-LIGAND FREE ENERGY PREDICTED BY IDOCK:   -6.76 KCAL/MOL
REMARK 924 INTRA-LIGAND FREE ENERGY PREDICTED BY IDOCK:    0.06 KCAL/MOL
REMARK 927      BINDING AFFINITY PREDICTED BY RF-SCORE:    0.00 PKD
ROOT
HETATM    1  O   UNL     1     -11.322   7.251  69.558  1.00  0.00    -0.098 OA 
HETATM    2  C   UNL     1     -11.858   6.832  70.714  1.00  0.00    -0.392 C  
HETATM    3  O   UNL     1     -12.983   6.352  70.755  1.00  0.00     0.305 OA 
HETATM    4  C   UNL     1     -10.995   6.833  71.933  1.00  0.00    -0.270 A  
HETATM    5  C   UNL     1     -11.223   5.735  72.792  1.00  0.00    -0.336 A  
HETATM    6  C   UNL     1     -10.552   5.607  74.008  1.00  0.00    -0.258 A  
HETATM    7  C   UNL     1      -9.630   6.571  74.388  1.00  0.00    -0.295 A  
HETATM    8  C   UNL     1      -9.381   7.663  73.552  1.00  0.00    -0.339 A  
HETATM    9  C   UNL     1     -10.070   7.818  72.331  1.00  0.00    -0.284 A  
ENDROOT
BRANCH   9  10
HETATM   10  C   UNL     1      -9.722   8.990  71.487  1.00  0.00    -0.295 C  
HETATM   11  O   UNL     1      -8.567   9.398  71.554  1.00  0.00    -0.266 OA 
HETATM   12  N   UNL     1     -10.750   9.553  70.741  1.00  0.00    -0.296 N  
HETATM   13  H   UNL     1     -11.661   9.099  70.801  1.00  0.00     0.000 HD 
BRANCH  12  14
HETATM   14  C   UNL     1     -10.665  10.694  69.904  1.00  0.00    -0.204 A  
HETATM   15  C   UNL     1      -9.646  10.896  68.969  1.00  0.00    -0.170 A  
HETATM   16  C   UNL     1      -9.604  12.057  68.186  1.00  0.00    -0.200 A  
HETATM   17  C   UNL     1     -10.597  13.027  68.328  1.00  0.00    -0.247 A  
HETATM   18  C   UNL     1     -11.658  11.678  70.034  1.00  0.00    -0.338 A  
HETATM   19  C   UNL     1     -11.623  12.847  69.259  1.00  0.00    -0.368 A  
BRANCH  17  20
HETATM   20  S   UNL     1     -10.476  14.556  67.409  1.00  0.00    -0.266 S  
HETATM   21  O   UNL     1     -11.672  15.331  67.672  1.00  0.00    -0.308 OA 
HETATM   22  O   UNL     1     -10.114  14.192  66.057  1.00  0.00    -0.294 OA 
BRANCH  20  23
HETATM   23  N   UNL     1      -9.124  15.329  68.069  1.00  0.00    -0.175 N  
HETATM   24  H   UNL     1      -8.516  14.901  68.768  1.00  0.00     0.000 HD 
BRANCH  23  25
HETATM   25  C   UNL     1      -8.924  16.627  67.554  1.00  0.00    -0.200 A  
HETATM   26  N   UNL     1      -9.616  17.606  68.078  1.00  0.00    -0.279 NA 
HETATM   27  C   UNL     1      -9.267  18.787  67.450  1.00  0.00    -0.282 A  
HETATM   28  C   UNL     1      -8.243  18.691  66.532  1.00  0.00    -0.286 A  
HETATM   29  S   UNL     1      -7.748  17.053  66.395  1.00  0.00    -0.322 SA 
ENDBRANCH  23  25
ENDBRANCH  20  23
ENDBRANCH  17  20
ENDBRANCH  12  14
ENDBRANCH   9  10
TORSDOF 5
ENDMDL
MODEL      132
REMARK 921   NORMALIZED FREE ENERGY PREDICTED BY IDOCK:   -4.44 KCAL/MOL
REMARK 922        TOTAL FREE ENERGY PREDICTED BY IDOCK:   -6.70 KCAL/MOL
REMARK 923 INTER-LIGAND FREE ENERGY PREDICTED BY IDOCK:   -6.18 KCAL/MOL
REMARK 924 INTRA-LIGAND FREE ENERGY PREDICTED BY IDOCK:   -0.52 KCAL/MOL
REMARK 927      BINDING AFFINITY PREDICTED BY RF-SCORE:    0.00 PKD
ROOT
HETATM    1  O   UNL     1      -6.311   7.689  65.269  1.00  0.00    -0.038 OA 
HETATM    2  C   UNL     1      -6.890   6.947  64.313  1.00  0.00    -0.046 C  
HETATM    3  O   UNL     1      -6.532   7.026  63.145  1.00  0.00    -0.043 OA 
HETATM    4  C   UNL     1      -7.886   5.915  64.727  1.00  0.00    -0.113 A  
HETATM    5  C   UNL     1      -7.826   4.727  63.964  1.00  0.00    -0.086 A  
HETATM    6  C   UNL     1      -8.724   3.681  64.171  1.00  0.00    -0.101 A  
HETATM    7  C   UNL     1      -9.698   3.795  65.151  1.00  0.00    -0.176 A  
HETATM    8  C   UNL     1      -9.775   4.956  65.924  1.00  0.00    -0.197 A  
HETATM    9  C   UNL     1      -8.889   6.033  65.710  1.00  0.00    -0.143 A  
ENDROOT
BRANCH   9  10
HETATM   10  C   UNL     1      -9.017   7.218  66.598  1.00  0.00    -0.150 C  
HETATM   11  O   UNL     1      -8.345   7.217  67.623  1.00  0.00    -0.116 OA 
HETATM   12  N   UNL     1      -9.929   8.193  66.214  1.00  0.00    -0.469 N  
HETATM   13  H   UNL     1     -10.418   8.040  65.333  1.00  0.00     0.000 HD 
BRANCH  12  14
HETATM   14  C   UNL     1     -10.250   9.379  66.920  1.00  0.00    -0.248 A  
HETATM   15  C   UNL     1     -11.051   9.408  68.064  1.00  0.00    -0.004 A  
HETATM   16  C   UNL     1     -11.352  10.617  68.705  1.00  0.00    -0.339 A  
HETATM   17  C   UNL     1     -10.839  11.815  68.206  1.00  0.00    -0.220 A  
HETATM   18  C   UNL     1      -9.738  10.592  66.431  1.00  0.00    -0.245 A  
HETATM   19  C   UNL     1     -10.037  11.809  67.062  1.00  0.00    -0.232 A  
BRANCH  17  20
HETATM   20  S   UNL     1     -11.317  13.363  68.961  1.00  0.00    -0.296 S  
HETATM   21  O   UNL     1     -12.497  13.850  68.273  1.00  0.00    -0.109 OA 
HETATM   22  O   UNL     1     -10.119  14.170  69.033  1.00  0.00    -0.193 OA 
BRANCH  20  23
HETATM   23  N   UNL     1     -11.703  12.945  70.554  1.00  0.00    -0.507 N  
HETATM   24  H   UNL     1     -11.538  12.018  70.948  1.00  0.00     0.000 HD 
BRANCH  23  25
HETATM   25  C   UNL     1     -12.275  14.010  71.281  1.00  0.00    -0.310 A  
HETATM   26  N   UNL     1     -11.522  15.049  71.537  1.00  0.00    -0.350 NA 
HETATM   27  C   UNL     1     -12.266  15.978  72.239  1.00  0.00    -0.519 A  
HETATM   28  C   UNL     1     -13.598  15.665  72.411  1.00  0.00    -0.524 A  
HETATM   29  S   UNL     1     -13.915  14.119  71.736  1.00  0.00    -0.407 SA 
ENDBRANCH  23  25
ENDBRANCH  20  23
ENDBRANCH  17  20
ENDBRANCH  12  14
ENDBRANCH   9  10
TORSDOF 5
ENDMDL
MODEL      133
REMARK 921   NORMALIZED FREE ENERGY PREDICTED BY IDOCK:   -4.40 KCAL/MOL
REMARK 922        TOTAL FREE ENERGY PREDICTED BY IDOCK:   -6.65 KCAL/MOL
REMARK 923 INTER-LIGAND FREE ENERGY PREDICTED BY IDOCK:   -6.70 KCAL/MOL
REMARK 924 INTRA-LIGAND FREE ENERGY PREDICTED BY IDOCK:    0.05 KCAL/MOL
REMARK 927      BINDING AFFINITY PREDICTED BY RF-SCORE:    0.00 PKD
ROOT
HETATM    1  O   UNL     1     -11.452  10.173  70.925  1.00  0.00    -0.327 OA 
HETATM    2  C   UNL     1     -11.073   8.891  70.813  1.00  0.00    -0.261 C  
HETATM    3  O   UNL     1     -11.015   8.159  71.792  1.00  0.00    -0.237 OA 
HETATM    4  C   UNL     1     -10.860   8.335  69.444  1.00  0.00    -0.095 A  
HETATM    5  C   UNL     1     -11.280   6.994  69.301  1.00  0.00    -0.114 A  
HETATM    6  C   UNL     1     -11.100   6.295  68.109  1.00  0.00    -0.364 A  
HETATM    7  C   UNL     1     -10.501   6.923  67.028  1.00  0.00    -0.374 A  
HETATM    8  C   UNL     1     -10.082   8.252  67.140  1.00  0.00    -0.334 A  
HETATM    9  C   UNL     1     -10.236   8.964  68.348  1.00  0.00    -0.231 A  
ENDROOT
BRANCH   9  10
HETATM   10  C   UNL     1      -9.795  10.383  68.372  1.00  0.00    -0.162 C  
HETATM   11  O   UNL     1      -8.956  10.688  69.212  1.00  0.00    -0.159 OA 
HETATM   12  N   UNL     1     -10.415  11.248  67.479  1.00  0.00    -0.193 N  
HETATM   13  H   UNL     1     -11.103  10.838  66.848  1.00  0.00     0.000 HD 
BRANCH  12  14
HETATM   14  C   UNL     1     -10.191  12.642  67.353  1.00  0.00    -0.217 A  
HETATM   15  C   UNL     1     -11.175  13.554  66.966  1.00  0.00    -0.330 A  
HETATM   16  C   UNL     1     -10.885  14.919  66.838  1.00  0.00    -0.319 A  
HETATM   17  C   UNL     1      -9.598  15.384  67.108  1.00  0.00    -0.212 A  
HETATM   18  C   UNL     1      -8.901  13.125  67.625  1.00  0.00    -0.191 A  
HETATM   19  C   UNL     1      -8.598  14.489  67.494  1.00  0.00    -0.198 A  
BRANCH  17  20
HETATM   20  S   UNL     1      -9.205  17.106  66.834  1.00  0.00    -0.250 S  
HETATM   21  O   UNL     1     -10.314  17.709  66.119  1.00  0.00    -0.367 OA 
HETATM   22  O   UNL     1      -7.868  17.137  66.284  1.00  0.00    -0.285 OA 
BRANCH  20  23
HETATM   23  N   UNL     1      -9.093  17.758  68.391  1.00  0.00    -0.273 N  
HETATM   24  H   UNL     1      -9.904  17.981  68.968  1.00  0.00     0.000 HD 
BRANCH  23  25
HETATM   25  C   UNL     1      -7.761  17.960  68.809  1.00  0.00    -0.259 A  
HETATM   26  N   UNL     1      -7.141  16.960  69.383  1.00  0.00    -0.193 NA 
HETATM   27  C   UNL     1      -5.855  17.354  69.701  1.00  0.00    -0.242 A  
HETATM   28  C   UNL     1      -5.495  18.613  69.269  1.00  0.00    -0.206 A  
HETATM   29  S   UNL     1      -6.837  19.361  68.502  1.00  0.00    -0.305 SA 
ENDBRANCH  23  25
ENDBRANCH  20  23
ENDBRANCH  17  20
ENDBRANCH  12  14
ENDBRANCH   9  10
TORSDOF 5
ENDMDL
MODEL      134
REMARK 921   NORMALIZED FREE ENERGY PREDICTED BY IDOCK:   -4.39 KCAL/MOL
REMARK 922        TOTAL FREE ENERGY PREDICTED BY IDOCK:   -6.64 KCAL/MOL
REMARK 923 INTER-LIGAND FREE ENERGY PREDICTED BY IDOCK:   -5.96 KCAL/MOL
REMARK 924 INTRA-LIGAND FREE ENERGY PREDICTED BY IDOCK:   -0.68 KCAL/MOL
REMARK 927      BINDING AFFINITY PREDICTED BY RF-SCORE:    0.00 PKD
ROOT
HETATM    1  O   UNL     1      -8.519   6.200  65.465  1.00  0.00    -0.146 OA 
HETATM    2  C   UNL     1      -9.309   5.227  65.943  1.00  0.00    -0.155 C  
HETATM    3  O   UNL     1      -9.923   4.481  65.191  1.00  0.00    -0.179 OA 
HETATM    4  C   UNL     1      -9.314   4.981  67.416  1.00  0.00    -0.138 A  
HETATM    5  C   UNL     1      -9.416   3.616  67.765  1.00  0.00    -0.231 A  
HETATM    6  C   UNL     1      -9.498   3.207  69.095  1.00  0.00    -0.177 A  
HETATM    7  C   UNL     1      -9.471   4.154  70.108  1.00  0.00    -0.254 A  
HETATM    8  C   UNL     1      -9.363   5.510  69.790  1.00  0.00    -0.181 A  
HETATM    9  C   UNL     1      -9.304   5.941  68.448  1.00  0.00    -0.124 A  
ENDROOT
BRANCH   9  10
HETATM   10  C   UNL     1      -9.156   7.398  68.197  1.00  0.00    -0.131 C  
HETATM   11  O   UNL     1      -8.022   7.859  68.263  1.00  0.00    -0.118 OA 
HETATM   12  N   UNL     1     -10.323   8.116  67.966  1.00  0.00    -0.234 N  
HETATM   13  H   UNL     1     -11.192   7.583  67.952  1.00  0.00     0.000 HD 
BRANCH  12  14
HETATM   14  C   UNL     1     -10.431   9.512  67.749  1.00  0.00    -0.254 A  
HETATM   15  C   UNL     1     -10.679  10.438  68.765  1.00  0.00    -0.255 A  
HETATM   16  C   UNL     1     -10.798  11.806  68.483  1.00  0.00    -0.261 A  
HETATM   17  C   UNL     1     -10.658  12.259  67.171  1.00  0.00    -0.225 A  
HETATM   18  C   UNL     1     -10.290   9.984  66.434  1.00  0.00    -0.249 A  
HETATM   19  C   UNL     1     -10.412  11.350  66.140  1.00  0.00    -0.303 A  
BRANCH  17  20
HETATM   20  S   UNL     1     -10.923  13.988  66.801  1.00  0.00    -0.302 S  
HETATM   21  O   UNL     1     -12.349  14.243  66.855  1.00  0.00    -0.408 OA 
HETATM   22  O   UNL     1     -10.166  14.269  65.601  1.00  0.00    -0.313 OA 
BRANCH  20  23
HETATM   23  N   UNL     1     -10.137  14.804  68.058  1.00  0.00    -0.217 N  
HETATM   24  H   UNL     1     -10.231  14.548  69.041  1.00  0.00     0.000 HD 
BRANCH  23  25
HETATM   25  C   UNL     1      -9.339  15.875  67.605  1.00  0.00    -0.217 A  
HETATM   26  N   UNL     1      -9.946  16.932  67.129  1.00  0.00    -0.268 NA 
HETATM   27  C   UNL     1      -8.996  17.865  66.757  1.00  0.00    -0.261 A  
HETATM   28  C   UNL     1      -7.691  17.534  67.054  1.00  0.00    -0.212 A  
HETATM   29  S   UNL     1      -7.642  15.968  67.756  1.00  0.00    -0.150 SA 
ENDBRANCH  23  25
ENDBRANCH  20  23
ENDBRANCH  17  20
ENDBRANCH  12  14
ENDBRANCH   9  10
TORSDOF 5
ENDMDL
MODEL      135
REMARK 921   NORMALIZED FREE ENERGY PREDICTED BY IDOCK:   -4.38 KCAL/MOL
REMARK 922        TOTAL FREE ENERGY PREDICTED BY IDOCK:   -6.62 KCAL/MOL
REMARK 923 INTER-LIGAND FREE ENERGY PREDICTED BY IDOCK:   -6.15 KCAL/MOL
REMARK 924 INTRA-LIGAND FREE ENERGY PREDICTED BY IDOCK:   -0.48 KCAL/MOL
REMARK 927      BINDING AFFINITY PREDICTED BY RF-SCORE:    0.00 PKD
ROOT
HETATM    1  O   UNL     1      -9.671  14.020  67.683  1.00  0.00    -0.220 OA 
HETATM    2  C   UNL     1     -10.806  14.344  67.047  1.00  0.00    -0.297 C  
HETATM    3  O   UNL     1     -11.459  15.326  67.374  1.00  0.00    -0.324 OA 
HETATM    4  C   UNL     1     -11.183  13.560  65.833  1.00  0.00    -0.310 A  
HETATM    5  C   UNL     1     -11.778  14.337  64.815  1.00  0.00    -0.420 A  
HETATM    6  C   UNL     1     -12.250  13.760  63.636  1.00  0.00    -0.311 A  
HETATM    7  C   UNL     1     -12.130  12.392  63.446  1.00  0.00    -0.620 A  
HETATM    8  C   UNL     1     -11.539  11.601  64.435  1.00  0.00    -0.270 A  
HETATM    9  C   UNL     1     -11.079  12.168  65.642  1.00  0.00    -0.360 A  
ENDROOT
BRANCH   9  10
HETATM   10  C   UNL     1     -10.433  11.261  66.627  1.00  0.00    -0.247 C  
HETATM   11  O   UNL     1      -9.258  10.974  66.428  1.00  0.00    -0.166 OA 
HETATM   12  N   UNL     1     -11.235  10.777  67.653  1.00  0.00    -0.317 N  
HETATM   13  H   UNL     1     -12.200  11.107  67.674  1.00  0.00     0.000 HD 
BRANCH  12  14
HETATM   14  C   UNL     1     -10.852   9.871  68.674  1.00  0.00    -0.209 A  
HETATM   15  C   UNL     1     -10.603  10.251  69.995  1.00  0.00    -0.321 A  
HETATM   16  C   UNL     1     -10.204   9.311  70.954  1.00  0.00    -0.371 A  
HETATM   17  C   UNL     1     -10.060   7.971  70.595  1.00  0.00    -0.194 A  
HETATM   18  C   UNL     1     -10.705   8.518  68.328  1.00  0.00    -0.092 A  
HETATM   19  C   UNL     1     -10.301   7.569  69.279  1.00  0.00    -0.209 A  
BRANCH  17  20
HETATM   20  S   UNL     1      -9.443   6.797  71.794  1.00  0.00    -0.148 S  
HETATM   21  O   UNL     1      -9.935   5.483  71.428  1.00  0.00    -0.173 OA 
HETATM   22  O   UNL     1      -9.727   7.356  73.097  1.00  0.00    -0.186 OA 
BRANCH  20  23
HETATM   23  N   UNL     1      -7.762   6.862  71.608  1.00  0.00    -0.094 N  
HETATM   24  H   UNL     1      -7.127   7.177  72.340  1.00  0.00     0.000 HD 
BRANCH  23  25
HETATM   25  C   UNL     1      -7.332   6.435  70.334  1.00  0.00    -0.089 A  
HETATM   26  N   UNL     1      -6.877   7.340  69.507  1.00  0.00    -0.048 NA 
HETATM   27  C   UNL     1      -6.496   6.722  68.331  1.00  0.00    -0.042 A  
HETATM   28  C   UNL     1      -6.577   5.345  68.330  1.00  0.00    -0.049 A  
HETATM   29  S   UNL     1      -7.223   4.809  69.829  1.00  0.00    -0.055 SA 
ENDBRANCH  23  25
ENDBRANCH  20  23
ENDBRANCH  17  20
ENDBRANCH  12  14
ENDBRANCH   9  10
TORSDOF 5
ENDMDL
MODEL      136
REMARK 921   NORMALIZED FREE ENERGY PREDICTED BY IDOCK:   -4.35 KCAL/MOL
REMARK 922        TOTAL FREE ENERGY PREDICTED BY IDOCK:   -6.59 KCAL/MOL
REMARK 923 INTER-LIGAND FREE ENERGY PREDICTED BY IDOCK:   -6.36 KCAL/MOL
REMARK 924 INTRA-LIGAND FREE ENERGY PREDICTED BY IDOCK:   -0.22 KCAL/MOL
REMARK 927      BINDING AFFINITY PREDICTED BY RF-SCORE:    0.00 PKD
ROOT
HETATM    1  O   UNL     1     -12.691  12.381  64.544  1.00  0.00    -0.594 OA 
HETATM    2  C   UNL     1     -12.254  13.649  64.517  1.00  0.00    -0.401 C  
HETATM    3  O   UNL     1     -12.767  14.482  63.781  1.00  0.00    -0.780 OA 
HETATM    4  C   UNL     1     -11.218  14.060  65.511  1.00  0.00    -0.311 A  
HETATM    5  C   UNL     1     -11.391  15.373  66.004  1.00  0.00    -0.089 A  
HETATM    6  C   UNL     1     -10.481  15.945  66.892  1.00  0.00    -0.309 A  
HETATM    7  C   UNL     1      -9.381  15.214  67.315  1.00  0.00    -0.210 A  
HETATM    8  C   UNL     1      -9.192  13.910  66.849  1.00  0.00    -0.269 A  
HETATM    9  C   UNL     1     -10.090  13.327  65.931  1.00  0.00    -0.296 A  
ENDROOT
BRANCH   9  10
HETATM   10  C   UNL     1      -9.834  11.925  65.511  1.00  0.00    -0.232 C  
HETATM   11  O   UNL     1      -9.876  11.690  64.308  1.00  0.00    -0.248 OA 
HETATM   12  N   UNL     1      -9.625  10.996  66.522  1.00  0.00    -0.191 N  
HETATM   13  H   UNL     1      -9.629  11.352  67.478  1.00  0.00     0.000 HD 
BRANCH  12  14
HETATM   14  C   UNL     1      -9.408   9.605  66.364  1.00  0.00    -0.174 A  
HETATM   15  C   UNL     1      -8.285   9.061  65.736  1.00  0.00    -0.120 A  
HETATM   16  C   UNL     1      -8.138   7.675  65.590  1.00  0.00    -0.127 A  
HETATM   17  C   UNL     1      -9.119   6.817  66.087  1.00  0.00    -0.109 A  
HETATM   18  C   UNL     1     -10.385   8.728  66.861  1.00  0.00    -0.344 A  
HETATM   19  C   UNL     1     -10.251   7.339  66.716  1.00  0.00    -0.305 A  
BRANCH  17  20
HETATM   20  S   UNL     1      -8.981   5.058  65.798  1.00  0.00    -0.148 S  
HETATM   21  O   UNL     1      -7.697   4.620  66.309  1.00  0.00    -0.089 OA 
HETATM   22  O   UNL     1      -9.339   4.842  64.413  1.00  0.00    -0.059 OA 
BRANCH  20  23
HETATM   23  N   UNL     1     -10.233   4.389  66.719  1.00  0.00    -0.271 N  
HETATM   24  H   UNL     1     -11.210   4.392  66.427  1.00  0.00     0.000 HD 
BRANCH  23  25
HETATM   25  C   UNL     1      -9.785   3.829  67.934  1.00  0.00    -0.064 A  
HETATM   26  N   UNL     1      -9.958   4.524  69.029  1.00  0.00    -0.134 NA 
HETATM   27  C   UNL     1      -9.470   3.801  70.100  1.00  0.00    -0.189 A  
HETATM   28  C   UNL     1      -9.029   2.527  69.806  1.00  0.00    -0.095 A  
HETATM   29  S   UNL     1      -9.161   2.252  68.116  1.00  0.00    -0.204 SA 
ENDBRANCH  23  25
ENDBRANCH  20  23
ENDBRANCH  17  20
ENDBRANCH  12  14
ENDBRANCH   9  10
TORSDOF 5
ENDMDL
MODEL      137
REMARK 921   NORMALIZED FREE ENERGY PREDICTED BY IDOCK:   -4.33 KCAL/MOL
REMARK 922        TOTAL FREE ENERGY PREDICTED BY IDOCK:   -6.57 KCAL/MOL
REMARK 923 INTER-LIGAND FREE ENERGY PREDICTED BY IDOCK:   -6.13 KCAL/MOL
REMARK 924 INTRA-LIGAND FREE ENERGY PREDICTED BY IDOCK:   -0.43 KCAL/MOL
REMARK 927      BINDING AFFINITY PREDICTED BY RF-SCORE:    0.00 PKD
ROOT
HETATM    1  O   UNL     1      -9.901  10.073  63.833  1.00  0.00    -0.201 OA 
HETATM    2  C   UNL     1     -10.001  11.410  63.852  1.00  0.00    -0.315 C  
HETATM    3  O   UNL     1      -9.589  12.091  62.921  1.00  0.00    -0.332 OA 
HETATM    4  C   UNL     1     -10.759  12.046  64.971  1.00  0.00    -0.341 A  
HETATM    5  C   UNL     1     -11.515  13.172  64.579  1.00  0.00    -0.390 A  
HETATM    6  C   UNL     1     -12.235  13.927  65.505  1.00  0.00    -0.467 A  
HETATM    7  C   UNL     1     -12.220  13.567  66.844  1.00  0.00    -0.377 A  
HETATM    8  C   UNL     1     -11.485  12.453  67.257  1.00  0.00    -0.421 A  
HETATM    9  C   UNL     1     -10.733  11.694  66.335  1.00  0.00    -0.316 A  
ENDROOT
BRANCH   9  10
HETATM   10  C   UNL     1     -10.006  10.505  66.851  1.00  0.00    -0.200 C  
HETATM   11  O   UNL     1      -8.999  10.717  67.517  1.00  0.00    -0.135 OA 
HETATM   12  N   UNL     1     -10.502   9.260  66.485  1.00  0.00    -0.190 N  
HETATM   13  H   UNL     1     -11.350   9.254  65.917  1.00  0.00     0.000 HD 
BRANCH  12  14
HETATM   14  C   UNL     1      -9.954   7.997  66.819  1.00  0.00    -0.274 A  
HETATM   15  C   UNL     1      -8.588   7.768  67.004  1.00  0.00    -0.129 A  
HETATM   16  C   UNL     1      -8.104   6.489  67.310  1.00  0.00    -0.113 A  
HETATM   17  C   UNL     1      -8.994   5.424  67.444  1.00  0.00    -0.108 A  
HETATM   18  C   UNL     1     -10.838   6.915  66.959  1.00  0.00    -0.436 A  
HETATM   19  C   UNL     1     -10.364   5.629  67.261  1.00  0.00    -0.295 A  
BRANCH  17  20
HETATM   20  S   UNL     1      -8.362   3.775  67.723  1.00  0.00    -0.094 S  
HETATM   21  O   UNL     1      -9.494   2.884  67.885  1.00  0.00    -0.210 OA 
HETATM   22  O   UNL     1      -7.359   3.892  68.759  1.00  0.00    -0.054 OA 
BRANCH  20  23
HETATM   23  N   UNL     1      -7.529   3.406  66.298  1.00  0.00    -0.076 N  
HETATM   24  H   UNL     1      -6.533   3.187  66.269  1.00  0.00     0.000 HD 
BRANCH  23  25
HETATM   25  C   UNL     1      -8.354   3.432  65.154  1.00  0.00    -0.098 A  
HETATM   26  N   UNL     1      -9.258   2.494  65.030  1.00  0.00    -0.140 NA 
HETATM   27  C   UNL     1      -9.965   2.704  63.861  1.00  0.00    -0.147 A  
HETATM   28  C   UNL     1      -9.648   3.858  63.175  1.00  0.00    -0.148 A  
HETATM   29  S   UNL     1      -8.368   4.671  63.981  1.00  0.00    -0.126 SA 
ENDBRANCH  23  25
ENDBRANCH  20  23
ENDBRANCH  17  20
ENDBRANCH  12  14
ENDBRANCH   9  10
TORSDOF 5
ENDMDL
MODEL      138
REMARK 921   NORMALIZED FREE ENERGY PREDICTED BY IDOCK:   -4.29 KCAL/MOL
REMARK 922        TOTAL FREE ENERGY PREDICTED BY IDOCK:   -6.51 KCAL/MOL
REMARK 923 INTER-LIGAND FREE ENERGY PREDICTED BY IDOCK:   -5.64 KCAL/MOL
REMARK 924 INTRA-LIGAND FREE ENERGY PREDICTED BY IDOCK:   -0.88 KCAL/MOL
REMARK 927      BINDING AFFINITY PREDICTED BY RF-SCORE:    0.00 PKD
ROOT
HETATM    1  O   UNL     1     -10.657  15.226  65.335  1.00  0.00    -0.334 OA 
HETATM    2  C   UNL     1     -10.607  16.566  65.285  1.00  0.00    -0.253 C  
HETATM    3  O   UNL     1     -11.090  17.184  64.345  1.00  0.00    -1.100 OA 
HETATM    4  C   UNL     1     -10.074  17.297  66.472  1.00  0.00    -0.311 A  
HETATM    5  C   UNL     1     -10.748  18.509  66.744  1.00  0.00    -0.303 A  
HETATM    6  C   UNL     1     -10.344  19.353  67.778  1.00  0.00    -0.547 A  
HETATM    7  C   UNL     1      -9.260  19.000  68.569  1.00  0.00    -0.413 A  
HETATM    8  C   UNL     1      -8.581  17.804  68.325  1.00  0.00    -0.277 A  
HETATM    9  C   UNL     1      -8.963  16.952  67.268  1.00  0.00    -0.212 A  
ENDROOT
BRANCH   9  10
HETATM   10  C   UNL     1      -8.209  15.683  67.098  1.00  0.00    -0.213 C  
HETATM   11  O   UNL     1      -7.139  15.749  66.504  1.00  0.00    -0.099 OA 
HETATM   12  N   UNL     1      -8.812  14.526  67.578  1.00  0.00    -0.178 N  
HETATM   13  H   UNL     1      -9.713  14.639  68.042  1.00  0.00     0.000 HD 
BRANCH  12  14
HETATM   14  C   UNL     1      -8.306  13.206  67.489  1.00  0.00    -0.185 A  
HETATM   15  C   UNL     1      -8.847  12.222  66.658  1.00  0.00    -0.167 A  
HETATM   16  C   UNL     1      -8.315  10.926  66.632  1.00  0.00    -0.143 A  
HETATM   17  C   UNL     1      -7.221  10.607  67.436  1.00  0.00    -0.092 A  
HETATM   18  C   UNL     1      -7.203  12.872  68.291  1.00  0.00    -0.112 A  
HETATM   19  C   UNL     1      -6.665  11.575  68.276  1.00  0.00    -0.064 A  
BRANCH  17  20
HETATM   20  S   UNL     1      -6.618   8.925  67.483  1.00  0.00    -0.062 S  
HETATM   21  O   UNL     1      -6.489   8.534  68.873  1.00  0.00    -0.047 OA 
HETATM   22  O   UNL     1      -5.479   8.875  66.592  1.00  0.00    -0.038 OA 
BRANCH  20  23
HETATM   23  N   UNL     1      -7.842   8.027  66.736  1.00  0.00    -0.101 N  
HETATM   24  H   UNL     1      -8.741   7.827  67.176  1.00  0.00     0.000 HD 
BRANCH  23  25
HETATM   25  C   UNL     1      -7.491   7.584  65.444  1.00  0.00    -0.082 A  
HETATM   26  N   UNL     1      -7.066   6.354  65.313  1.00  0.00    -0.059 NA 
HETATM   27  C   UNL     1      -6.791   6.114  63.980  1.00  0.00    -0.038 A  
HETATM   28  C   UNL     1      -7.111   7.138  63.114  1.00  0.00    -0.065 A  
HETATM   29  S   UNL     1      -7.708   8.478  64.007  1.00  0.00    -0.144 SA 
ENDBRANCH  23  25
ENDBRANCH  20  23
ENDBRANCH  17  20
ENDBRANCH  12  14
ENDBRANCH   9  10
TORSDOF 5
ENDMDL
MODEL      139
REMARK 921   NORMALIZED FREE ENERGY PREDICTED BY IDOCK:   -4.29 KCAL/MOL
REMARK 922        TOTAL FREE ENERGY PREDICTED BY IDOCK:   -6.50 KCAL/MOL
REMARK 923 INTER-LIGAND FREE ENERGY PREDICTED BY IDOCK:   -5.84 KCAL/MOL
REMARK 924 INTRA-LIGAND FREE ENERGY PREDICTED BY IDOCK:   -0.66 KCAL/MOL
REMARK 927      BINDING AFFINITY PREDICTED BY RF-SCORE:    0.00 PKD
ROOT
HETATM    1  O   UNL     1      -6.596   7.337  65.284  1.00  0.00    -0.046 OA 
HETATM    2  C   UNL     1      -7.189   6.150  65.086  1.00  0.00    -0.070 C  
HETATM    3  O   UNL     1      -7.004   5.513  64.057  1.00  0.00    -0.045 OA 
HETATM    4  C   UNL     1      -7.968   5.554  66.212  1.00  0.00    -0.105 A  
HETATM    5  C   UNL     1      -7.847   4.150  66.308  1.00  0.00    -0.094 A  
HETATM    6  C   UNL     1      -8.555   3.420  67.261  1.00  0.00    -0.118 A  
HETATM    7  C   UNL     1      -9.396   4.078  68.145  1.00  0.00    -0.218 A  
HETATM    8  C   UNL     1      -9.528   5.467  68.076  1.00  0.00    -0.138 A  
HETATM    9  C   UNL     1      -8.837   6.217  67.101  1.00  0.00    -0.108 A  
ENDROOT
BRANCH   9  10
HETATM   10  C   UNL     1      -9.008   7.693  67.118  1.00  0.00    -0.126 C  
HETATM   11  O   UNL     1      -8.461   8.304  68.030  1.00  0.00    -0.130 OA 
HETATM   12  N   UNL     1      -9.818   8.241  66.131  1.00  0.00    -0.463 N  
HETATM   13  H   UNL     1     -10.208   7.593  65.447  1.00  0.00     0.000 HD 
BRANCH  12  14
HETATM   14  C   UNL     1     -10.159   9.608  65.976  1.00  0.00    -0.248 A  
HETATM   15  C   UNL     1      -9.784  10.381  64.876  1.00  0.00    -0.372 A  
HETATM   16  C   UNL     1     -10.133  11.736  64.791  1.00  0.00    -0.302 A  
HETATM   17  C   UNL     1     -10.876  12.327  65.813  1.00  0.00    -0.278 A  
HETATM   18  C   UNL     1     -10.909  10.216  66.996  1.00  0.00    -0.221 A  
HETATM   19  C   UNL     1     -11.259  11.573  66.924  1.00  0.00    -0.363 A  
BRANCH  17  20
HETATM   20  S   UNL     1     -11.221  14.080  65.755  1.00  0.00    -0.309 S  
HETATM   21  O   UNL     1     -12.659  14.251  65.699  1.00  0.00    -0.461 OA 
HETATM   22  O   UNL     1     -10.371  14.629  64.721  1.00  0.00    -0.396 OA 
BRANCH  20  23
HETATM   23  N   UNL     1     -10.621  14.668  67.223  1.00  0.00    -0.280 N  
HETATM   24  H   UNL     1     -11.199  14.811  68.051  1.00  0.00     0.000 HD 
BRANCH  23  25
HETATM   25  C   UNL     1      -9.237  14.941  67.183  1.00  0.00    -0.220 A  
HETATM   26  N   UNL     1      -8.861  16.146  66.837  1.00  0.00    -0.202 NA 
HETATM   27  C   UNL     1      -7.481  16.212  66.874  1.00  0.00    -0.231 A  
HETATM   28  C   UNL     1      -6.845  15.083  67.347  1.00  0.00    -0.111 A  
HETATM   29  S   UNL     1      -8.010  13.869  67.687  1.00  0.00    -0.189 SA 
ENDBRANCH  23  25
ENDBRANCH  20  23
ENDBRANCH  17  20
ENDBRANCH  12  14
ENDBRANCH   9  10
TORSDOF 5
ENDMDL
MODEL      140
REMARK 921   NORMALIZED FREE ENERGY PREDICTED BY IDOCK:   -4.28 KCAL/MOL
REMARK 922        TOTAL FREE ENERGY PREDICTED BY IDOCK:   -6.49 KCAL/MOL
REMARK 923 INTER-LIGAND FREE ENERGY PREDICTED BY IDOCK:   -5.70 KCAL/MOL
REMARK 924 INTRA-LIGAND FREE ENERGY PREDICTED BY IDOCK:   -0.79 KCAL/MOL
REMARK 927      BINDING AFFINITY PREDICTED BY RF-SCORE:    0.00 PKD
ROOT
HETATM    1  O   UNL     1     -10.061  12.669  68.353  1.00  0.00    -0.228 OA 
HETATM    2  C   UNL     1     -11.235  13.071  67.844  1.00  0.00    -0.271 C  
HETATM    3  O   UNL     1     -12.098  13.569  68.556  1.00  0.00    -0.359 OA 
HETATM    4  C   UNL     1     -11.413  13.031  66.362  1.00  0.00    -0.384 A  
HETATM    5  C   UNL     1     -12.161  14.114  65.849  1.00  0.00    -0.441 A  
HETATM    6  C   UNL     1     -12.478  14.205  64.494  1.00  0.00    -0.350 A  
HETATM    7  C   UNL     1     -12.048  13.218  63.620  1.00  0.00    -0.551 A  
HETATM    8  C   UNL     1     -11.300  12.140  64.101  1.00  0.00    -0.449 A  
HETATM    9  C   UNL     1     -10.992  12.022  65.473  1.00  0.00    -0.345 A  
ENDROOT
BRANCH   9  10
HETATM   10  C   UNL     1     -10.165  10.863  65.896  1.00  0.00    -0.257 C  
HETATM   11  O   UNL     1      -9.089  10.712  65.327  1.00  0.00    -0.179 OA 
HETATM   12  N   UNL     1     -10.709  10.022  66.859  1.00  0.00    -0.183 N  
HETATM   13  H   UNL     1     -11.623  10.283  67.230  1.00  0.00     0.000 HD 
BRANCH  12  14
HETATM   14  C   UNL     1     -10.127   8.840  67.380  1.00  0.00    -0.226 A  
HETATM   15  C   UNL     1     -10.600   7.555  67.104  1.00  0.00    -0.415 A  
HETATM   16  C   UNL     1      -9.994   6.425  67.669  1.00  0.00    -0.150 A  
HETATM   17  C   UNL     1      -8.895   6.575  68.515  1.00  0.00    -0.121 A  
HETATM   18  C   UNL     1      -9.018   8.976  68.231  1.00  0.00    -0.133 A  
HETATM   19  C   UNL     1      -8.408   7.851  68.807  1.00  0.00    -0.128 A  
BRANCH  17  20
HETATM   20  S   UNL     1      -8.198   5.140  69.321  1.00  0.00    -0.084 S  
HETATM   21  O   UNL     1      -9.011   3.992  68.971  1.00  0.00    -0.097 OA 
HETATM   22  O   UNL     1      -7.996   5.508  70.706  1.00  0.00    -0.105 OA 
BRANCH  20  23
HETATM   23  N   UNL     1      -6.656   4.992  68.641  1.00  0.00    -0.047 N  
HETATM   24  H   UNL     1      -5.842   5.508  68.975  1.00  0.00     0.000 HD 
BRANCH  23  25
HETATM   25  C   UNL     1      -6.614   4.082  67.565  1.00  0.00    -0.046 A  
HETATM   26  N   UNL     1      -6.335   2.832  67.832  1.00  0.00    -0.032 NA 
HETATM   27  C   UNL     1      -6.357   2.107  66.655  1.00  0.00    -0.024 A  
HETATM   28  C   UNL     1      -6.751   2.806  65.534  1.00  0.00    -0.040 A  
HETATM   29  S   UNL     1      -7.034   4.447  65.952  1.00  0.00    -0.060 SA 
ENDBRANCH  23  25
ENDBRANCH  20  23
ENDBRANCH  17  20
ENDBRANCH  12  14
ENDBRANCH   9  10
TORSDOF 5
ENDMDL
MODEL      141
REMARK 921   NORMALIZED FREE ENERGY PREDICTED BY IDOCK:   -4.27 KCAL/MOL
REMARK 922        TOTAL FREE ENERGY PREDICTED BY IDOCK:   -6.48 KCAL/MOL
REMARK 923 INTER-LIGAND FREE ENERGY PREDICTED BY IDOCK:   -6.02 KCAL/MOL
REMARK 924 INTRA-LIGAND FREE ENERGY PREDICTED BY IDOCK:   -0.46 KCAL/MOL
REMARK 927      BINDING AFFINITY PREDICTED BY RF-SCORE:    0.00 PKD
ROOT
HETATM    1  O   UNL     1     -10.744  15.372  66.867  1.00  0.00    -0.306 OA 
HETATM    2  C   UNL     1     -10.996  15.944  68.054  1.00  0.00    -0.336 C  
HETATM    3  O   UNL     1     -10.809  17.140  68.234  1.00  0.00    -0.369 OA 
HETATM    4  C   UNL     1     -11.648  15.116  69.112  1.00  0.00    -0.343 A  
HETATM    5  C   UNL     1     -12.581  15.828  69.898  1.00  0.00    -0.015 A  
HETATM    6  C   UNL     1     -13.238  15.229  70.972  1.00  0.00    -0.546 A  
HETATM    7  C   UNL     1     -12.983  13.902  71.280  1.00  0.00    -0.414 A  
HETATM    8  C   UNL     1     -12.069  13.173  70.514  1.00  0.00    -0.385 A  
HETATM    9  C   UNL     1     -11.379  13.772  69.440  1.00  0.00    -0.306 A  
ENDROOT
BRANCH   9  10
HETATM   10  C   UNL     1     -10.450  12.918  68.655  1.00  0.00    -0.213 C  
HETATM   11  O   UNL     1      -9.302  13.327  68.520  1.00  0.00    -0.182 OA 
HETATM   12  N   UNL     1     -10.981  11.761  68.098  1.00  0.00    -0.213 N  
HETATM   13  H   UNL     1     -11.962  11.567  68.297  1.00  0.00     0.000 HD 
BRANCH  12  14
HETATM   14  C   UNL     1     -10.302  10.824  67.280  1.00  0.00    -0.220 A  
HETATM   15  C   UNL     1     -10.370  10.818  65.885  1.00  0.00    -0.302 A  
HETATM   16  C   UNL     1      -9.693   9.850  65.132  1.00  0.00    -0.376 A  
HETATM   17  C   UNL     1      -8.928   8.878  65.778  1.00  0.00    -0.203 A  
HETATM   18  C   UNL     1      -9.526   9.842  67.916  1.00  0.00    -0.146 A  
HETATM   19  C   UNL     1      -8.848   8.864  67.172  1.00  0.00    -0.133 A  
BRANCH  17  20
HETATM   20  S   UNL     1      -8.159   7.579  64.820  1.00  0.00    -0.073 S  
HETATM   21  O   UNL     1      -6.838   7.342  65.368  1.00  0.00    -0.050 OA 
HETATM   22  O   UNL     1      -8.329   7.942  63.430  1.00  0.00    -0.067 OA 
BRANCH  20  23
HETATM   23  N   UNL     1      -9.149   6.232  65.082  1.00  0.00    -0.346 N  
HETATM   24  H   UNL     1     -10.167   6.267  65.045  1.00  0.00     0.000 HD 
BRANCH  23  25
HETATM   25  C   UNL     1      -8.419   5.057  65.357  1.00  0.00    -0.138 A  
HETATM   26  N   UNL     1      -8.387   4.632  66.595  1.00  0.00    -0.106 NA 
HETATM   27  C   UNL     1      -7.640   3.471  66.650  1.00  0.00    -0.080 A  
HETATM   28  C   UNL     1      -7.206   2.985  65.435  1.00  0.00    -0.066 A  
HETATM   29  S   UNL     1      -7.686   4.059  64.184  1.00  0.00    -0.084 SA 
ENDBRANCH  23  25
ENDBRANCH  20  23
ENDBRANCH  17  20
ENDBRANCH  12  14
ENDBRANCH   9  10
TORSDOF 5
ENDMDL
MODEL      142
REMARK 921   NORMALIZED FREE ENERGY PREDICTED BY IDOCK:   -4.27 KCAL/MOL
REMARK 922        TOTAL FREE ENERGY PREDICTED BY IDOCK:   -6.48 KCAL/MOL
REMARK 923 INTER-LIGAND FREE ENERGY PREDICTED BY IDOCK:   -5.92 KCAL/MOL
REMARK 924 INTRA-LIGAND FREE ENERGY PREDICTED BY IDOCK:   -0.56 KCAL/MOL
REMARK 927      BINDING AFFINITY PREDICTED BY RF-SCORE:    0.00 PKD
ROOT
HETATM    1  O   UNL     1      -6.351   7.764  65.296  1.00  0.00    -0.038 OA 
HETATM    2  C   UNL     1      -6.970   6.920  64.458  1.00  0.00    -0.055 C  
HETATM    3  O   UNL     1      -6.575   6.763  63.310  1.00  0.00    -0.041 OA 
HETATM    4  C   UNL     1      -8.070   6.068  64.999  1.00  0.00    -0.133 A  
HETATM    5  C   UNL     1      -8.101   4.765  64.455  1.00  0.00    -0.110 A  
HETATM    6  C   UNL     1      -9.099   3.853  64.798  1.00  0.00    -0.141 A  
HETATM    7  C   UNL     1     -10.084   4.221  65.702  1.00  0.00    -0.233 A  
HETATM    8  C   UNL     1     -10.072   5.502  66.260  1.00  0.00    -0.185 A  
HETATM    9  C   UNL     1      -9.083   6.443  65.904  1.00  0.00    -0.074 A  
ENDROOT
BRANCH   9  10
HETATM   10  C   UNL     1      -9.123   7.771  66.569  1.00  0.00    -0.170 C  
HETATM   11  O   UNL     1      -8.494   7.886  67.615  1.00  0.00    -0.126 OA 
HETATM   12  N   UNL     1      -9.916   8.746  65.976  1.00  0.00    -0.456 N  
HETATM   13  H   UNL     1     -10.385   8.488  65.108  1.00  0.00     0.000 HD 
BRANCH  12  14
HETATM   14  C   UNL     1     -10.141  10.061  66.452  1.00  0.00    -0.241 A  
HETATM   15  C   UNL     1     -11.072  10.379  67.444  1.00  0.00    -0.297 A  
HETATM   16  C   UNL     1     -11.265  11.704  67.856  1.00  0.00    -0.334 A  
HETATM   17  C   UNL     1     -10.513  12.728  67.279  1.00  0.00    -0.232 A  
HETATM   18  C   UNL     1      -9.389  11.102  65.883  1.00  0.00    -0.235 A  
HETATM   19  C   UNL     1      -9.578  12.433  66.284  1.00  0.00    -0.245 A  
BRANCH  17  20
HETATM   20  S   UNL     1     -10.843  14.427  67.728  1.00  0.00    -0.263 S  
HETATM   21  O   UNL     1     -10.708  14.544  69.166  1.00  0.00    -0.248 OA 
HETATM   22  O   UNL     1     -12.079  14.790  67.069  1.00  0.00    -0.306 OA 
BRANCH  20  23
HETATM   23  N   UNL     1      -9.620  15.303  66.954  1.00  0.00    -0.225 N  
HETATM   24  H   UNL     1      -8.972  14.891  66.282  1.00  0.00     0.000 HD 
BRANCH  23  25
HETATM   25  C   UNL     1      -9.588  16.660  67.335  1.00  0.00    -0.242 A  
HETATM   26  N   UNL     1     -10.583  17.424  66.962  1.00  0.00    -0.285 NA 
HETATM   27  C   UNL     1     -10.373  18.702  67.444  1.00  0.00    -0.406 A  
HETATM   28  C   UNL     1      -9.271  18.855  68.259  1.00  0.00    -0.330 A  
HETATM   29  S   UNL     1      -8.426  17.364  68.367  1.00  0.00    -0.267 SA 
ENDBRANCH  23  25
ENDBRANCH  20  23
ENDBRANCH  17  20
ENDBRANCH  12  14
ENDBRANCH   9  10
TORSDOF 5
ENDMDL
MODEL      143
REMARK 921   NORMALIZED FREE ENERGY PREDICTED BY IDOCK:   -4.25 KCAL/MOL
REMARK 922        TOTAL FREE ENERGY PREDICTED BY IDOCK:   -6.45 KCAL/MOL
REMARK 923 INTER-LIGAND FREE ENERGY PREDICTED BY IDOCK:   -6.63 KCAL/MOL
REMARK 924 INTRA-LIGAND FREE ENERGY PREDICTED BY IDOCK:    0.18 KCAL/MOL
REMARK 927      BINDING AFFINITY PREDICTED BY RF-SCORE:    0.00 PKD
ROOT
HETATM    1  O   UNL     1      -9.780  11.422  67.449  1.00  0.00    -0.179 OA 
HETATM    2  C   UNL     1     -10.993  10.953  67.778  1.00  0.00    -0.283 C  
HETATM    3  O   UNL     1     -11.553  10.106  67.093  1.00  0.00     0.045 OA 
HETATM    4  C   UNL     1     -11.587  11.382  69.079  1.00  0.00    -0.383 A  
HETATM    5  C   UNL     1     -12.315  10.365  69.736  1.00  0.00    -0.122 A  
HETATM    6  C   UNL     1     -12.990  10.606  70.932  1.00  0.00    -0.429 A  
HETATM    7  C   UNL     1     -12.946  11.869  71.503  1.00  0.00    -0.427 A  
HETATM    8  C   UNL     1     -12.228  12.891  70.877  1.00  0.00    -0.290 A  
HETATM    9  C   UNL     1     -11.560  12.668  69.654  1.00  0.00    -0.321 A  
ENDROOT
BRANCH   9  10
HETATM   10  C   UNL     1     -10.791  13.799  69.072  1.00  0.00    -0.217 C  
HETATM   11  O   UNL     1      -9.578  13.650  68.971  1.00  0.00     0.029 OA 
HETATM   12  N   UNL     1     -11.508  14.944  68.750  1.00  0.00    -0.291 N  
HETATM   13  H   UNL     1     -12.516  14.911  68.904  1.00  0.00     0.000 HD 
BRANCH  12  14
HETATM   14  C   UNL     1     -10.985  16.154  68.228  1.00  0.00    -0.340 A  
HETATM   15  C   UNL     1     -10.816  16.402  66.864  1.00  0.00    -0.118 A  
HETATM   16  C   UNL     1     -10.271  17.611  66.412  1.00  0.00    -0.364 A  
HETATM   17  C   UNL     1      -9.899  18.592  67.331  1.00  0.00    -0.318 A  
HETATM   18  C   UNL     1     -10.608  17.152  69.141  1.00  0.00    -0.259 A  
HETATM   19  C   UNL     1     -10.057  18.364  68.699  1.00  0.00    -0.407 A  
BRANCH  17  20
HETATM   20  S   UNL     1      -9.101  20.085  66.754  1.00  0.00    -0.361 S  
HETATM   21  O   UNL     1      -9.898  21.214  67.190  1.00  0.00    -0.248 OA 
HETATM   22  O   UNL     1      -8.815  19.879  65.351  1.00  0.00    -0.121 OA 
BRANCH  20  23
HETATM   23  N   UNL     1      -7.607  20.086  67.547  1.00  0.00    -0.281 N  
HETATM   24  H   UNL     1      -7.210  20.910  68.000  1.00  0.00     0.000 HD 
BRANCH  23  25
HETATM   25  C   UNL     1      -6.965  18.830  67.517  1.00  0.00    -0.202 A  
HETATM   26  N   UNL     1      -6.657  18.329  66.348  1.00  0.00    -0.195 NA 
HETATM   27  C   UNL     1      -6.029  17.112  66.534  1.00  0.00    -0.190 A  
HETATM   28  C   UNL     1      -5.783  16.765  67.846  1.00  0.00    -0.118 A  
HETATM   29  S   UNL     1      -6.427  17.969  68.887  1.00  0.00    -0.236 SA 
ENDBRANCH  23  25
ENDBRANCH  20  23
ENDBRANCH  17  20
ENDBRANCH  12  14
ENDBRANCH   9  10
TORSDOF 5
ENDMDL
MODEL      144
REMARK 921   NORMALIZED FREE ENERGY PREDICTED BY IDOCK:   -4.24 KCAL/MOL
REMARK 922        TOTAL FREE ENERGY PREDICTED BY IDOCK:   -6.45 KCAL/MOL
REMARK 923 INTER-LIGAND FREE ENERGY PREDICTED BY IDOCK:   -5.95 KCAL/MOL
REMARK 924 INTRA-LIGAND FREE ENERGY PREDICTED BY IDOCK:   -0.50 KCAL/MOL
REMARK 927      BINDING AFFINITY PREDICTED BY RF-SCORE:    0.00 PKD
ROOT
HETATM    1  O   UNL     1      -8.678  12.967  68.146  1.00  0.00    -0.180 OA 
HETATM    2  C   UNL     1      -9.292  14.117  67.832  1.00  0.00    -0.204 C  
HETATM    3  O   UNL     1      -8.983  15.170  68.377  1.00  0.00    -0.172 OA 
HETATM    4  C   UNL     1     -10.264  14.113  66.699  1.00  0.00    -0.270 A  
HETATM    5  C   UNL     1     -10.229  15.287  65.914  1.00  0.00    -0.353 A  
HETATM    6  C   UNL     1     -11.112  15.482  64.852  1.00  0.00    -0.428 A  
HETATM    7  C   UNL     1     -12.045  14.503  64.546  1.00  0.00    -0.501 A  
HETATM    8  C   UNL     1     -12.096  13.330  65.302  1.00  0.00    -0.456 A  
HETATM    9  C   UNL     1     -11.225  13.129  66.395  1.00  0.00    -0.328 A  
ENDROOT
BRANCH   9  10
HETATM   10  C   UNL     1     -11.323  11.839  67.126  1.00  0.00    -0.322 C  
HETATM   11  O   UNL     1     -12.225  11.735  67.950  1.00  0.00    -0.538 OA 
HETATM   12  N   UNL     1     -10.349  10.887  66.851  1.00  0.00    -0.228 N  
HETATM   13  H   UNL     1      -9.658  11.132  66.141  1.00  0.00     0.000 HD 
BRANCH  12  14
HETATM   14  C   UNL     1     -10.215   9.612  67.454  1.00  0.00    -0.227 A  
HETATM   15  C   UNL     1     -10.668   9.310  68.740  1.00  0.00    -0.184 A  
HETATM   16  C   UNL     1     -10.484   8.034  69.290  1.00  0.00    -0.221 A  
HETATM   17  C   UNL     1      -9.849   7.041  68.545  1.00  0.00    -0.147 A  
HETATM   18  C   UNL     1      -9.579   8.601  66.714  1.00  0.00    -0.269 A  
HETATM   19  C   UNL     1      -9.386   7.322  67.257  1.00  0.00    -0.156 A  
BRANCH  17  20
HETATM   20  S   UNL     1      -9.518   5.452  69.292  1.00  0.00    -0.143 S  
HETATM   21  O   UNL     1      -8.778   4.653  68.335  1.00  0.00    -0.097 OA 
HETATM   22  O   UNL     1     -10.776   4.983  69.830  1.00  0.00    -0.158 OA 
BRANCH  20  23
HETATM   23  N   UNL     1      -8.541   5.818  70.625  1.00  0.00    -0.130 N  
HETATM   24  H   UNL     1      -8.743   5.502  71.574  1.00  0.00     0.000 HD 
BRANCH  23  25
HETATM   25  C   UNL     1      -7.420   6.603  70.287  1.00  0.00    -0.094 A  
HETATM   26  N   UNL     1      -7.323   7.793  70.823  1.00  0.00    -0.064 NA 
HETATM   27  C   UNL     1      -6.157   8.390  70.381  1.00  0.00    -0.031 A  
HETATM   28  C   UNL     1      -5.345   7.598  69.597  1.00  0.00    -0.023 A  
HETATM   29  S   UNL     1      -6.100   6.077  69.342  1.00  0.00    -0.030 SA 
ENDBRANCH  23  25
ENDBRANCH  20  23
ENDBRANCH  17  20
ENDBRANCH  12  14
ENDBRANCH   9  10
TORSDOF 5
ENDMDL
MODEL      145
REMARK 921   NORMALIZED FREE ENERGY PREDICTED BY IDOCK:   -4.23 KCAL/MOL
REMARK 922        TOTAL FREE ENERGY PREDICTED BY IDOCK:   -6.43 KCAL/MOL
REMARK 923 INTER-LIGAND FREE ENERGY PREDICTED BY IDOCK:   -5.71 KCAL/MOL
REMARK 924 INTRA-LIGAND FREE ENERGY PREDICTED BY IDOCK:   -0.73 KCAL/MOL
REMARK 927      BINDING AFFINITY PREDICTED BY RF-SCORE:    0.00 PKD
ROOT
HETATM    1  O   UNL     1     -10.803  14.556  70.470  1.00  0.00     0.037 OA 
HETATM    2  C   UNL     1     -11.441  15.359  69.606  1.00  0.00    -0.320 C  
HETATM    3  O   UNL     1     -12.497  15.901  69.905  1.00  0.00    -0.252 OA 
HETATM    4  C   UNL     1     -10.760  15.695  68.320  1.00  0.00    -0.283 A  
HETATM    5  C   UNL     1     -10.975  17.024  67.892  1.00  0.00    -0.226 A  
HETATM    6  C   UNL     1     -10.467  17.492  66.680  1.00  0.00    -0.270 A  
HETATM    7  C   UNL     1      -9.725  16.643  65.873  1.00  0.00    -0.269 A  
HETATM    8  C   UNL     1      -9.492  15.326  66.277  1.00  0.00    -0.341 A  
HETATM    9  C   UNL     1     -10.020  14.831  67.488  1.00  0.00    -0.219 A  
ENDROOT
BRANCH   9  10
HETATM   10  C   UNL     1      -9.697  13.429  67.860  1.00  0.00    -0.226 C  
HETATM   11  O   UNL     1      -8.527  13.184  68.134  1.00  0.00    -0.160 OA 
HETATM   12  N   UNL     1     -10.738  12.511  67.807  1.00  0.00    -0.214 N  
HETATM   13  H   UNL     1     -11.656  12.875  67.551  1.00  0.00     0.000 HD 
BRANCH  12  14
HETATM   14  C   UNL     1     -10.658  11.122  68.073  1.00  0.00    -0.198 A  
HETATM   15  C   UNL     1     -10.440  10.155  67.089  1.00  0.00    -0.305 A  
HETATM   16  C   UNL     1     -10.394   8.792  67.412  1.00  0.00    -0.349 A  
HETATM   17  C   UNL     1     -10.557   8.386  68.736  1.00  0.00    -0.125 A  
HETATM   18  C   UNL     1     -10.819  10.698  69.402  1.00  0.00    -0.289 A  
HETATM   19  C   UNL     1     -10.780   9.336  69.736  1.00  0.00    -0.245 A  
BRANCH  17  20
HETATM   20  S   UNL     1     -10.610   6.642  69.125  1.00  0.00    -0.267 S  
HETATM   21  O   UNL     1     -10.859   5.917  67.895  1.00  0.00    -0.271 OA 
HETATM   22  O   UNL     1     -11.499   6.503  70.258  1.00  0.00    -0.359 OA 
BRANCH  20  23
HETATM   23  N   UNL     1      -9.056   6.300  69.699  1.00  0.00    -0.141 N  
HETATM   24  H   UNL     1      -8.870   5.665  70.476  1.00  0.00     0.000 HD 
BRANCH  23  25
HETATM   25  C   UNL     1      -8.044   6.982  68.992  1.00  0.00    -0.121 A  
HETATM   26  N   UNL     1      -7.488   8.017  69.568  1.00  0.00    -0.089 NA 
HETATM   27  C   UNL     1      -6.520   8.531  68.726  1.00  0.00    -0.053 A  
HETATM   28  C   UNL     1      -6.294   7.812  67.571  1.00  0.00    -0.055 A  
HETATM   29  S   UNL     1      -7.383   6.486  67.501  1.00  0.00    -0.097 SA 
ENDBRANCH  23  25
ENDBRANCH  20  23
ENDBRANCH  17  20
ENDBRANCH  12  14
ENDBRANCH   9  10
TORSDOF 5
ENDMDL
MODEL      146
REMARK 921   NORMALIZED FREE ENERGY PREDICTED BY IDOCK:   -4.23 KCAL/MOL
REMARK 922        TOTAL FREE ENERGY PREDICTED BY IDOCK:   -6.43 KCAL/MOL
REMARK 923 INTER-LIGAND FREE ENERGY PREDICTED BY IDOCK:   -5.47 KCAL/MOL
REMARK 924 INTRA-LIGAND FREE ENERGY PREDICTED BY IDOCK:   -0.95 KCAL/MOL
REMARK 927      BINDING AFFINITY PREDICTED BY RF-SCORE:    0.00 PKD
ROOT
HETATM    1  O   UNL     1     -10.657  15.226  65.335  1.00  0.00    -0.334 OA 
HETATM    2  C   UNL     1     -10.607  16.566  65.285  1.00  0.00    -0.253 C  
HETATM    3  O   UNL     1     -11.090  17.184  64.345  1.00  0.00    -1.100 OA 
HETATM    4  C   UNL     1     -10.074  17.297  66.472  1.00  0.00    -0.311 A  
HETATM    5  C   UNL     1     -10.748  18.509  66.744  1.00  0.00    -0.303 A  
HETATM    6  C   UNL     1     -10.344  19.353  67.778  1.00  0.00    -0.547 A  
HETATM    7  C   UNL     1      -9.260  19.000  68.569  1.00  0.00    -0.413 A  
HETATM    8  C   UNL     1      -8.581  17.804  68.325  1.00  0.00    -0.277 A  
HETATM    9  C   UNL     1      -8.963  16.952  67.268  1.00  0.00    -0.212 A  
ENDROOT
BRANCH   9  10
HETATM   10  C   UNL     1      -8.209  15.683  67.098  1.00  0.00    -0.213 C  
HETATM   11  O   UNL     1      -7.139  15.749  66.504  1.00  0.00    -0.099 OA 
HETATM   12  N   UNL     1      -8.812  14.526  67.578  1.00  0.00    -0.178 N  
HETATM   13  H   UNL     1      -9.713  14.639  68.042  1.00  0.00     0.000 HD 
BRANCH  12  14
HETATM   14  C   UNL     1      -8.306  13.206  67.489  1.00  0.00    -0.185 A  
HETATM   15  C   UNL     1      -8.847  12.222  66.658  1.00  0.00    -0.167 A  
HETATM   16  C   UNL     1      -8.315  10.926  66.632  1.00  0.00    -0.143 A  
HETATM   17  C   UNL     1      -7.221  10.607  67.436  1.00  0.00    -0.092 A  
HETATM   18  C   UNL     1      -7.203  12.872  68.291  1.00  0.00    -0.112 A  
HETATM   19  C   UNL     1      -6.665  11.575  68.276  1.00  0.00    -0.064 A  
BRANCH  17  20
HETATM   20  S   UNL     1      -6.618   8.925  67.483  1.00  0.00    -0.062 S  
HETATM   21  O   UNL     1      -6.013   8.631  66.199  1.00  0.00    -0.046 OA 
HETATM   22  O   UNL     1      -7.704   8.116  67.991  1.00  0.00    -0.109 OA 
BRANCH  20  23
HETATM   23  N   UNL     1      -5.436   8.943  68.693  1.00  0.00    -0.037 N  
HETATM   24  H   UNL     1      -4.520   9.378  68.579  1.00  0.00     0.000 HD 
BRANCH  23  25
HETATM   25  C   UNL     1      -5.848   8.295  69.876  1.00  0.00    -0.025 A  
HETATM   26  N   UNL     1      -5.451   7.064  70.070  1.00  0.00    -0.022 NA 
HETATM   27  C   UNL     1      -5.945   6.618  71.281  1.00  0.00    -0.036 A  
HETATM   28  C   UNL     1      -6.623   7.559  72.028  1.00  0.00    -0.050 A  
HETATM   29  S   UNL     1      -6.711   9.032  71.150  1.00  0.00    -0.085 SA 
ENDBRANCH  23  25
ENDBRANCH  20  23
ENDBRANCH  17  20
ENDBRANCH  12  14
ENDBRANCH   9  10
TORSDOF 5
ENDMDL
MODEL      147
REMARK 921   NORMALIZED FREE ENERGY PREDICTED BY IDOCK:   -4.20 KCAL/MOL
REMARK 922        TOTAL FREE ENERGY PREDICTED BY IDOCK:   -6.39 KCAL/MOL
REMARK 923 INTER-LIGAND FREE ENERGY PREDICTED BY IDOCK:   -5.94 KCAL/MOL
REMARK 924 INTRA-LIGAND FREE ENERGY PREDICTED BY IDOCK:   -0.46 KCAL/MOL
REMARK 927      BINDING AFFINITY PREDICTED BY RF-SCORE:    0.00 PKD
ROOT
HETATM    1  O   UNL     1      -6.842  14.373  67.623  1.00  0.00    -0.169 OA 
HETATM    2  C   UNL     1      -7.179  15.355  68.472  1.00  0.00    -0.114 C  
HETATM    3  O   UNL     1      -6.426  15.702  69.373  1.00  0.00    -0.136 OA 
HETATM    4  C   UNL     1      -8.437  16.116  68.207  1.00  0.00    -0.180 A  
HETATM    5  C   UNL     1      -8.343  17.493  68.508  1.00  0.00    -0.274 A  
HETATM    6  C   UNL     1      -9.439  18.345  68.381  1.00  0.00    -0.352 A  
HETATM    7  C   UNL     1     -10.654  17.839  67.943  1.00  0.00    -0.389 A  
HETATM    8  C   UNL     1     -10.772  16.482  67.633  1.00  0.00    -0.311 A  
HETATM    9  C   UNL     1      -9.678  15.604  67.780  1.00  0.00    -0.218 A  
ENDROOT
BRANCH   9  10
HETATM   10  C   UNL     1      -9.878  14.182  67.396  1.00  0.00    -0.239 C  
HETATM   11  O   UNL     1     -10.358  13.969  66.288  1.00  0.00    -0.280 OA 
HETATM   12  N   UNL     1      -9.557  13.224  68.350  1.00  0.00    -0.297 N  
HETATM   13  H   UNL     1      -9.174  13.567  69.231  1.00  0.00     0.000 HD 
BRANCH  12  14
HETATM   14  C   UNL     1      -9.706  11.821  68.226  1.00  0.00    -0.199 A  
HETATM   15  C   UNL     1     -10.942  11.172  68.187  1.00  0.00    -0.292 A  
HETATM   16  C   UNL     1     -11.024   9.777  68.087  1.00  0.00    -0.228 A  
HETATM   17  C   UNL     1      -9.856   9.016  68.013  1.00  0.00    -0.166 A  
HETATM   18  C   UNL     1      -8.540  11.042  68.149  1.00  0.00    -0.140 A  
HETATM   19  C   UNL     1      -8.609   9.644  68.053  1.00  0.00    -0.119 A  
BRANCH  17  20
HETATM   20  S   UNL     1      -9.964   7.232  67.999  1.00  0.00    -0.165 S  
HETATM   21  O   UNL     1      -9.189   6.746  66.875  1.00  0.00    -0.133 OA 
HETATM   22  O   UNL     1     -11.368   6.907  68.125  1.00  0.00    -0.054 OA 
BRANCH  20  23
HETATM   23  N   UNL     1      -9.237   6.763  69.453  1.00  0.00    -0.143 N  
HETATM   24  H   UNL     1      -8.360   6.245  69.502  1.00  0.00     0.000 HD 
BRANCH  23  25
HETATM   25  C   UNL     1      -9.970   7.163  70.590  1.00  0.00    -0.190 A  
HETATM   26  N   UNL     1      -9.614   8.271  71.188  1.00  0.00    -0.156 NA 
HETATM   27  C   UNL     1     -10.458   8.492  72.260  1.00  0.00    -0.332 A  
HETATM   28  C   UNL     1     -11.500   7.598  72.390  1.00  0.00    -0.340 A  
HETATM   29  S   UNL     1     -11.377   6.394  71.172  1.00  0.00    -0.320 SA 
ENDBRANCH  23  25
ENDBRANCH  20  23
ENDBRANCH  17  20
ENDBRANCH  12  14
ENDBRANCH   9  10
TORSDOF 5
ENDMDL
MODEL      148
REMARK 921   NORMALIZED FREE ENERGY PREDICTED BY IDOCK:   -4.18 KCAL/MOL
REMARK 922        TOTAL FREE ENERGY PREDICTED BY IDOCK:   -6.37 KCAL/MOL
REMARK 923 INTER-LIGAND FREE ENERGY PREDICTED BY IDOCK:   -7.22 KCAL/MOL
REMARK 924 INTRA-LIGAND FREE ENERGY PREDICTED BY IDOCK:    0.85 KCAL/MOL
REMARK 927      BINDING AFFINITY PREDICTED BY RF-SCORE:    0.00 PKD
ROOT
HETATM    1  O   UNL     1     -12.230   7.338  72.052  1.00  0.00    -0.299 OA 
HETATM    2  C   UNL     1     -11.181   6.639  72.510  1.00  0.00    -0.266 C  
HETATM    3  O   UNL     1     -10.761   6.799  73.649  1.00  0.00    -0.316 OA 
HETATM    4  C   UNL     1     -10.623   5.556  71.647  1.00  0.00    -0.294 A  
HETATM    5  C   UNL     1     -10.192   4.419  72.366  1.00  0.00    -0.255 A  
HETATM    6  C   UNL     1      -9.587   3.337  71.728  1.00  0.00    -0.226 A  
HETATM    7  C   UNL     1      -9.406   3.364  70.354  1.00  0.00    -0.240 A  
HETATM    8  C   UNL     1      -9.829   4.474  69.618  1.00  0.00    -0.288 A  
HETATM    9  C   UNL     1     -10.421   5.586  70.253  1.00  0.00    -0.365 A  
ENDROOT
BRANCH   9  10
HETATM   10  C   UNL     1     -10.873   6.711  69.393  1.00  0.00    -0.292 C  
HETATM   11  O   UNL     1     -11.520   6.419  68.393  1.00  0.00    -0.205 OA 
HETATM   12  N   UNL     1     -10.473   7.987  69.769  1.00  0.00    -0.224 N  
HETATM   13  H   UNL     1      -9.926   8.061  70.627  1.00  0.00     0.000 HD 
BRANCH  12  14
HETATM   14  C   UNL     1     -10.744   9.198  69.084  1.00  0.00    -0.172 A  
HETATM   15  C   UNL     1     -11.266  10.338  69.699  1.00  0.00    -0.322 A  
HETATM   16  C   UNL     1     -11.535  11.498  68.962  1.00  0.00    -0.355 A  
HETATM   17  C   UNL     1     -11.270  11.528  67.592  1.00  0.00    -0.281 A  
HETATM   18  C   UNL     1     -10.481   9.243  67.705  1.00  0.00    -0.313 A  
HETATM   19  C   UNL     1     -10.751  10.399  66.956  1.00  0.00    -0.298 A  
BRANCH  17  20
HETATM   20  S   UNL     1     -11.720  12.971  66.637  1.00  0.00    -0.391 S  
HETATM   21  O   UNL     1     -12.207  13.981  67.555  1.00  0.00    -0.366 OA 
HETATM   22  O   UNL     1     -12.548  12.499  65.550  1.00  0.00    -0.642 OA 
BRANCH  20  23
HETATM   23  N   UNL     1     -10.263  13.474  65.938  1.00  0.00    -0.296 N  
HETATM   24  H   UNL     1     -10.211  14.029  65.084  1.00  0.00     0.000 HD 
BRANCH  23  25
HETATM   25  C   UNL     1      -9.129  13.045  66.658  1.00  0.00    -0.176 A  
HETATM   26  N   UNL     1      -8.832  13.676  67.765  1.00  0.00    -0.178 NA 
HETATM   27  C   UNL     1      -7.707  13.099  68.322  1.00  0.00    -0.141 A  
HETATM   28  C   UNL     1      -7.233  11.976  67.676  1.00  0.00    -0.117 A  
HETATM   29  S   UNL     1      -8.186  11.674  66.280  1.00  0.00     0.096 SA 
ENDBRANCH  23  25
ENDBRANCH  20  23
ENDBRANCH  17  20
ENDBRANCH  12  14
ENDBRANCH   9  10
TORSDOF 5
ENDMDL
MODEL      149
REMARK 921   NORMALIZED FREE ENERGY PREDICTED BY IDOCK:   -4.15 KCAL/MOL
REMARK 922        TOTAL FREE ENERGY PREDICTED BY IDOCK:   -6.33 KCAL/MOL
REMARK 923 INTER-LIGAND FREE ENERGY PREDICTED BY IDOCK:   -6.24 KCAL/MOL
REMARK 924 INTRA-LIGAND FREE ENERGY PREDICTED BY IDOCK:   -0.08 KCAL/MOL
REMARK 927      BINDING AFFINITY PREDICTED BY RF-SCORE:    0.00 PKD
ROOT
HETATM    1  O   UNL     1      -7.104   7.444  68.622  1.00  0.00    -0.079 OA 
HETATM    2  C   UNL     1      -7.070   6.733  67.485  1.00  0.00    -0.085 C  
HETATM    3  O   UNL     1      -6.028   6.586  66.859  1.00  0.00    -0.023 OA 
HETATM    4  C   UNL     1      -8.305   6.001  67.072  1.00  0.00    -0.105 A  
HETATM    5  C   UNL     1      -8.051   4.744  66.480  1.00  0.00    -0.107 A  
HETATM    6  C   UNL     1      -9.083   3.952  65.978  1.00  0.00    -0.148 A  
HETATM    7  C   UNL     1     -10.394   4.396  66.064  1.00  0.00    -0.210 A  
HETATM    8  C   UNL     1     -10.672   5.633  66.651  1.00  0.00    -0.339 A  
HETATM    9  C   UNL     1      -9.637   6.456  67.142  1.00  0.00    -0.157 A  
ENDROOT
BRANCH   9  10
HETATM   10  C   UNL     1     -10.021   7.741  67.781  1.00  0.00    -0.174 C  
HETATM   11  O   UNL     1     -10.647   7.671  68.833  1.00  0.00    -0.211 OA 
HETATM   12  N   UNL     1      -9.687   8.905  67.101  1.00  0.00    -0.171 N  
HETATM   13  H   UNL     1      -9.170   8.792  66.228  1.00  0.00     0.000 HD 
BRANCH  12  14
HETATM   14  C   UNL     1      -9.988  10.233  67.492  1.00  0.00    -0.189 A  
HETATM   15  C   UNL     1     -11.283  10.696  67.734  1.00  0.00    -0.383 A  
HETATM   16  C   UNL     1     -11.519  12.029  68.097  1.00  0.00    -0.383 A  
HETATM   17  C   UNL     1     -10.448  12.912  68.231  1.00  0.00    -0.242 A  
HETATM   18  C   UNL     1      -8.919  11.133  67.634  1.00  0.00    -0.140 A  
HETATM   19  C   UNL     1      -9.144  12.471  67.991  1.00  0.00    -0.200 A  
BRANCH  17  20
HETATM   20  S   UNL     1     -10.763  14.636  68.583  1.00  0.00    -0.258 S  
HETATM   21  O   UNL     1      -9.705  15.116  69.449  1.00  0.00    -0.225 OA 
HETATM   22  O   UNL     1     -12.148  14.723  68.990  1.00  0.00    -0.287 OA 
BRANCH  20  23
HETATM   23  N   UNL     1     -10.666  15.390  67.071  1.00  0.00    -0.317 N  
HETATM   24  H   UNL     1     -10.334  16.346  66.940  1.00  0.00     0.000 HD 
BRANCH  23  25
HETATM   25  C   UNL     1     -11.092  14.561  66.013  1.00  0.00    -0.329 A  
HETATM   26  N   UNL     1     -10.174  13.981  65.283  1.00  0.00    -0.360 NA 
HETATM   27  C   UNL     1     -10.791  13.208  64.318  1.00  0.00    -0.406 A  
HETATM   28  C   UNL     1     -12.166  13.139  64.402  1.00  0.00    -0.398 A  
HETATM   29  S   UNL     1     -12.712  14.136  65.689  1.00  0.00    -0.322 SA 
ENDBRANCH  23  25
ENDBRANCH  20  23
ENDBRANCH  17  20
ENDBRANCH  12  14
ENDBRANCH   9  10
TORSDOF 5
ENDMDL
MODEL      150
REMARK 921   NORMALIZED FREE ENERGY PREDICTED BY IDOCK:   -4.15 KCAL/MOL
REMARK 922        TOTAL FREE ENERGY PREDICTED BY IDOCK:   -6.33 KCAL/MOL
REMARK 923 INTER-LIGAND FREE ENERGY PREDICTED BY IDOCK:   -5.82 KCAL/MOL
REMARK 924 INTRA-LIGAND FREE ENERGY PREDICTED BY IDOCK:   -0.51 KCAL/MOL
REMARK 927      BINDING AFFINITY PREDICTED BY RF-SCORE:    0.00 PKD
ROOT
HETATM    1  O   UNL     1      -7.866  10.789  65.518  1.00  0.00    -0.133 OA 
HETATM    2  C   UNL     1      -8.420   9.898  66.354  1.00  0.00    -0.124 C  
HETATM    3  O   UNL     1      -9.202   9.048  65.948  1.00  0.00    -0.198 OA 
HETATM    4  C   UNL     1      -7.951   9.874  67.771  1.00  0.00    -0.105 A  
HETATM    5  C   UNL     1      -7.874   8.576  68.324  1.00  0.00    -0.106 A  
HETATM    6  C   UNL     1      -7.516   8.370  69.656  1.00  0.00    -0.073 A  
HETATM    7  C   UNL     1      -7.218   9.457  70.463  1.00  0.00    -0.126 A  
HETATM    8  C   UNL     1      -7.279  10.751  69.939  1.00  0.00    -0.059 A  
HETATM    9  C   UNL     1      -7.664  10.977  68.601  1.00  0.00    -0.132 A  
ENDROOT
BRANCH   9  10
HETATM   10  C   UNL     1      -7.671  12.380  68.113  1.00  0.00    -0.139 C  
HETATM   11  O   UNL     1      -6.614  12.820  67.674  1.00  0.00    -0.119 OA 
HETATM   12  N   UNL     1      -8.860  13.086  68.251  1.00  0.00    -0.232 N  
HETATM   13  H   UNL     1      -9.651  12.576  68.645  1.00  0.00     0.000 HD 
BRANCH  12  14
HETATM   14  C   UNL     1      -9.089  14.439  67.901  1.00  0.00    -0.187 A  
HETATM   15  C   UNL     1      -9.164  15.479  68.830  1.00  0.00    -0.218 A  
HETATM   16  C   UNL     1      -9.416  16.796  68.422  1.00  0.00    -0.241 A  
HETATM   17  C   UNL     1      -9.585  17.084  67.068  1.00  0.00    -0.254 A  
HETATM   18  C   UNL     1      -9.260  14.745  66.541  1.00  0.00    -0.304 A  
HETATM   19  C   UNL     1      -9.517  16.059  66.122  1.00  0.00    -0.371 A  
BRANCH  17  20
HETATM   20  S   UNL     1     -10.018  18.744  66.565  1.00  0.00    -0.401 S  
HETATM   21  O   UNL     1     -10.518  19.448  67.730  1.00  0.00    -0.408 OA 
HETATM   22  O   UNL     1     -10.831  18.611  65.376  1.00  0.00    -0.569 OA 
BRANCH  20  23
HETATM   23  N   UNL     1      -8.551  19.419  66.062  1.00  0.00    -0.270 N  
HETATM   24  H   UNL     1      -8.475  20.106  65.311  1.00  0.00     0.000 HD 
BRANCH  23  25
HETATM   25  C   UNL     1      -7.443  18.933  66.787  1.00  0.00    -0.223 A  
HETATM   26  N   UNL     1      -6.695  18.019  66.222  1.00  0.00    -0.222 NA 
HETATM   27  C   UNL     1      -5.664  17.690  67.082  1.00  0.00    -0.134 A  
HETATM   28  C   UNL     1      -5.594  18.437  68.239  1.00  0.00    -0.174 A  
HETATM   29  S   UNL     1      -6.910  19.540  68.289  1.00  0.00    -0.296 SA 
ENDBRANCH  23  25
ENDBRANCH  20  23
ENDBRANCH  17  20
ENDBRANCH  12  14
ENDBRANCH   9  10
TORSDOF 5
ENDMDL
MODEL      151
REMARK 921   NORMALIZED FREE ENERGY PREDICTED BY IDOCK:   -4.13 KCAL/MOL
REMARK 922        TOTAL FREE ENERGY PREDICTED BY IDOCK:   -6.30 KCAL/MOL
REMARK 923 INTER-LIGAND FREE ENERGY PREDICTED BY IDOCK:   -5.87 KCAL/MOL
REMARK 924 INTRA-LIGAND FREE ENERGY PREDICTED BY IDOCK:   -0.43 KCAL/MOL
REMARK 927      BINDING AFFINITY PREDICTED BY RF-SCORE:    0.00 PKD
ROOT
HETATM    1  O   UNL     1      -6.882   8.326  65.182  1.00  0.00    -0.067 OA 
HETATM    2  C   UNL     1      -7.685   7.354  64.724  1.00  0.00    -0.114 C  
HETATM    3  O   UNL     1      -7.454   6.788  63.663  1.00  0.00    -0.070 OA 
HETATM    4  C   UNL     1      -8.789   6.876  65.607  1.00  0.00    -0.039 A  
HETATM    5  C   UNL     1      -9.021   5.485  65.527  1.00  0.00    -0.133 A  
HETATM    6  C   UNL     1     -10.056   4.875  66.236  1.00  0.00    -0.285 A  
HETATM    7  C   UNL     1     -10.878   5.642  67.047  1.00  0.00    -0.265 A  
HETATM    8  C   UNL     1     -10.666   7.019  67.150  1.00  0.00    -0.433 A  
HETATM    9  C   UNL     1      -9.638   7.653  66.420  1.00  0.00    -0.223 A  
ENDROOT
BRANCH   9  10
HETATM   10  C   UNL     1      -9.459   9.116  66.612  1.00  0.00    -0.185 C  
HETATM   11  O   UNL     1      -8.656   9.469  67.469  1.00  0.00    -0.125 OA 
HETATM   12  N   UNL     1     -10.259   9.952  65.842  1.00  0.00    -0.237 N  
HETATM   13  H   UNL     1     -10.886   9.499  65.177  1.00  0.00     0.000 HD 
BRANCH  12  14
HETATM   14  C   UNL     1     -10.294  11.368  65.885  1.00  0.00    -0.250 A  
HETATM   15  C   UNL     1     -10.006  12.185  64.790  1.00  0.00    -0.224 A  
HETATM   16  C   UNL     1     -10.036  13.581  64.902  1.00  0.00    -0.280 A  
HETATM   17  C   UNL     1     -10.367  14.174  66.121  1.00  0.00    -0.300 A  
HETATM   18  C   UNL     1     -10.628  11.978  67.105  1.00  0.00    -0.255 A  
HETATM   19  C   UNL     1     -10.656  13.376  67.230  1.00  0.00    -0.256 A  
BRANCH  17  20
HETATM   20  S   UNL     1     -10.294  15.952  66.288  1.00  0.00    -0.327 S  
HETATM   21  O   UNL     1     -11.090  16.326  67.440  1.00  0.00    -0.232 OA 
HETATM   22  O   UNL     1     -10.584  16.497  64.980  1.00  0.00    -0.670 OA 
BRANCH  20  23
HETATM   23  N   UNL     1      -8.658  16.271  66.581  1.00  0.00    -0.236 N  
HETATM   24  H   UNL     1      -8.141  17.021  66.123  1.00  0.00     0.000 HD 
BRANCH  23  25
HETATM   25  C   UNL     1      -8.085  15.394  67.525  1.00  0.00    -0.167 A  
HETATM   26  N   UNL     1      -7.242  14.493  67.089  1.00  0.00    -0.107 NA 
HETATM   27  C   UNL     1      -6.787  13.750  68.162  1.00  0.00    -0.122 A  
HETATM   28  C   UNL     1      -7.219  14.170  69.402  1.00  0.00    -0.011 A  
HETATM   29  S   UNL     1      -8.293  15.497  69.215  1.00  0.00    -0.254 SA 
ENDBRANCH  23  25
ENDBRANCH  20  23
ENDBRANCH  17  20
ENDBRANCH  12  14
ENDBRANCH   9  10
TORSDOF 5
ENDMDL
MODEL      152
REMARK 921   NORMALIZED FREE ENERGY PREDICTED BY IDOCK:   -4.13 KCAL/MOL
REMARK 922        TOTAL FREE ENERGY PREDICTED BY IDOCK:   -6.30 KCAL/MOL
REMARK 923 INTER-LIGAND FREE ENERGY PREDICTED BY IDOCK:   -6.06 KCAL/MOL
REMARK 924 INTRA-LIGAND FREE ENERGY PREDICTED BY IDOCK:   -0.24 KCAL/MOL
REMARK 927      BINDING AFFINITY PREDICTED BY RF-SCORE:    0.00 PKD
ROOT
HETATM    1  O   UNL     1     -10.542  13.038  68.071  1.00  0.00    -0.223 OA 
HETATM    2  C   UNL     1     -11.456  12.875  67.103  1.00  0.00    -0.336 C  
HETATM    3  O   UNL     1     -12.597  13.301  67.230  1.00  0.00    -0.068 OA 
HETATM    4  C   UNL     1     -11.012  12.287  65.804  1.00  0.00    -0.338 A  
HETATM    5  C   UNL     1     -11.643  12.857  64.676  1.00  0.00    -0.392 A  
HETATM    6  C   UNL     1     -11.396  12.387  63.387  1.00  0.00    -0.507 A  
HETATM    7  C   UNL     1     -10.507  11.340  63.195  1.00  0.00    -0.293 A  
HETATM    8  C   UNL     1      -9.865  10.763  64.294  1.00  0.00    -0.384 A  
HETATM    9  C   UNL     1     -10.123  11.212  65.607  1.00  0.00    -0.304 A  
ENDROOT
BRANCH   9  10
HETATM   10  C   UNL     1      -9.373  10.567  66.716  1.00  0.00    -0.157 C  
HETATM   11  O   UNL     1      -8.149  10.638  66.672  1.00  0.00    -0.126 OA 
HETATM   12  N   UNL     1     -10.123   9.894  67.672  1.00  0.00    -0.185 N  
HETATM   13  H   UNL     1     -11.137   9.921  67.560  1.00  0.00     0.000 HD 
BRANCH  12  14
HETATM   14  C   UNL     1      -9.627   9.172  68.786  1.00  0.00    -0.159 A  
HETATM   15  C   UNL     1      -9.166   9.775  69.958  1.00  0.00    -0.266 A  
HETATM   16  C   UNL     1      -8.666   9.007  71.018  1.00  0.00    -0.280 A  
HETATM   17  C   UNL     1      -8.632   7.617  70.912  1.00  0.00    -0.129 A  
HETATM   18  C   UNL     1      -9.589   7.771  68.695  1.00  0.00    -0.154 A  
HETATM   19  C   UNL     1      -9.085   6.993  69.748  1.00  0.00    -0.144 A  
BRANCH  17  20
HETATM   20  S   UNL     1      -7.889   6.649  72.219  1.00  0.00    -0.096 S  
HETATM   21  O   UNL     1      -6.685   7.331  72.650  1.00  0.00    -0.062 OA 
HETATM   22  O   UNL     1      -7.835   5.286  71.738  1.00  0.00    -0.105 OA 
BRANCH  20  23
HETATM   23  N   UNL     1      -9.044   6.669  73.455  1.00  0.00    -0.125 N  
HETATM   24  H   UNL     1      -8.809   6.605  74.446  1.00  0.00     0.000 HD 
BRANCH  23  25
HETATM   25  C   UNL     1     -10.365   6.783  72.974  1.00  0.00    -0.228 A  
HETATM   26  N   UNL     1     -10.953   7.948  73.072  1.00  0.00    -0.384 NA 
HETATM   27  C   UNL     1     -12.223   7.855  72.536  1.00  0.00    -0.195 A  
HETATM   28  C   UNL     1     -12.534   6.645  71.951  1.00  0.00    -0.287 A  
HETATM   29  S   UNL     1     -11.216   5.560  72.144  1.00  0.00    -0.130 SA 
ENDBRANCH  23  25
ENDBRANCH  20  23
ENDBRANCH  17  20
ENDBRANCH  12  14
ENDBRANCH   9  10
TORSDOF 5
ENDMDL
MODEL      153
REMARK 921   NORMALIZED FREE ENERGY PREDICTED BY IDOCK:   -4.12 KCAL/MOL
REMARK 922        TOTAL FREE ENERGY PREDICTED BY IDOCK:   -6.29 KCAL/MOL
REMARK 923 INTER-LIGAND FREE ENERGY PREDICTED BY IDOCK:   -5.67 KCAL/MOL
REMARK 924 INTRA-LIGAND FREE ENERGY PREDICTED BY IDOCK:   -0.62 KCAL/MOL
REMARK 927      BINDING AFFINITY PREDICTED BY RF-SCORE:    0.00 PKD
ROOT
HETATM    1  O   UNL     1      -9.706  16.668  69.162  1.00  0.00    -0.262 OA 
HETATM    2  C   UNL     1      -9.913  17.418  68.069  1.00  0.00    -0.302 C  
HETATM    3  O   UNL     1     -11.030  17.833  67.787  1.00  0.00    -0.308 OA 
HETATM    4  C   UNL     1      -8.724  17.856  67.279  1.00  0.00    -0.240 A  
HETATM    5  C   UNL     1      -8.839  19.163  66.755  1.00  0.00    -0.330 A  
HETATM    6  C   UNL     1      -7.850  19.712  65.939  1.00  0.00    -0.295 A  
HETATM    7  C   UNL     1      -6.720  18.968  65.635  1.00  0.00    -0.316 A  
HETATM    8  C   UNL     1      -6.579  17.676  66.146  1.00  0.00    -0.302 A  
HETATM    9  C   UNL     1      -7.582  17.098  66.952  1.00  0.00    -0.240 A  
ENDROOT
BRANCH   9  10
HETATM   10  C   UNL     1      -7.338  15.731  67.483  1.00  0.00    -0.178 C  
HETATM   11  O   UNL     1      -6.322  15.568  68.149  1.00  0.00    -0.106 OA 
HETATM   12  N   UNL     1      -8.254  14.749  67.128  1.00  0.00    -0.218 N  
HETATM   13  H   UNL     1      -9.046  15.046  66.558  1.00  0.00     0.000 HD 
BRANCH  12  14
HETATM   14  C   UNL     1      -8.203  13.376  67.476  1.00  0.00    -0.185 A  
HETATM   15  C   UNL     1      -7.067  12.578  67.320  1.00  0.00    -0.114 A  
HETATM   16  C   UNL     1      -7.087  11.219  67.662  1.00  0.00    -0.090 A  
HETATM   17  C   UNL     1      -8.251  10.648  68.175  1.00  0.00    -0.116 A  
HETATM   18  C   UNL     1      -9.367  12.788  67.996  1.00  0.00    -0.213 A  
HETATM   19  C   UNL     1      -9.399  11.427  68.336  1.00  0.00    -0.194 A  
BRANCH  17  20
HETATM   20  S   UNL     1      -8.304   8.892  68.502  1.00  0.00    -0.125 S  
HETATM   21  O   UNL     1      -6.953   8.377  68.400  1.00  0.00    -0.067 OA 
HETATM   22  O   UNL     1      -9.364   8.354  67.677  1.00  0.00    -0.136 OA 
BRANCH  20  23
HETATM   23  N   UNL     1      -8.849   8.785  70.101  1.00  0.00    -0.145 N  
HETATM   24  H   UNL     1      -8.609   9.464  70.823  1.00  0.00     0.000 HD 
BRANCH  23  25
HETATM   25  C   UNL     1      -9.668   7.661  70.330  1.00  0.00    -0.179 A  
HETATM   26  N   UNL     1     -10.958   7.856  70.438  1.00  0.00    -0.249 NA 
HETATM   27  C   UNL     1     -11.579   6.639  70.644  1.00  0.00    -0.382 A  
HETATM   28  C   UNL     1     -10.755   5.534  70.587  1.00  0.00    -0.233 A  
HETATM   29  S   UNL     1      -9.134   6.041  70.340  1.00  0.00    -0.149 SA 
ENDBRANCH  23  25
ENDBRANCH  20  23
ENDBRANCH  17  20
ENDBRANCH  12  14
ENDBRANCH   9  10
TORSDOF 5
ENDMDL
MODEL      154
REMARK 921   NORMALIZED FREE ENERGY PREDICTED BY IDOCK:   -4.09 KCAL/MOL
REMARK 922        TOTAL FREE ENERGY PREDICTED BY IDOCK:   -6.25 KCAL/MOL
REMARK 923 INTER-LIGAND FREE ENERGY PREDICTED BY IDOCK:   -5.98 KCAL/MOL
REMARK 924 INTRA-LIGAND FREE ENERGY PREDICTED BY IDOCK:   -0.27 KCAL/MOL
REMARK 927      BINDING AFFINITY PREDICTED BY RF-SCORE:    0.00 PKD
ROOT
HETATM    1  O   UNL     1     -12.219   9.565  71.299  1.00  0.00    -0.308 OA 
HETATM    2  C   UNL     1     -11.738   8.363  71.651  1.00  0.00    -0.298 C  
HETATM    3  O   UNL     1     -12.032   7.852  72.723  1.00  0.00    -0.301 OA 
HETATM    4  C   UNL     1     -10.949   7.595  70.641  1.00  0.00    -0.259 A  
HETATM    5  C   UNL     1     -11.181   6.202  70.677  1.00  0.00    -0.387 A  
HETATM    6  C   UNL     1     -10.483   5.325  69.848  1.00  0.00    -0.351 A  
HETATM    7  C   UNL     1      -9.543   5.821  68.958  1.00  0.00    -0.168 A  
HETATM    8  C   UNL     1      -9.300   7.196  68.898  1.00  0.00    -0.139 A  
HETATM    9  C   UNL     1      -9.980   8.094  69.748  1.00  0.00    -0.191 A  
ENDROOT
BRANCH   9  10
HETATM   10  C   UNL     1      -9.688   9.543  69.596  1.00  0.00    -0.200 C  
HETATM   11  O   UNL     1      -8.704   9.974  70.188  1.00  0.00    -0.159 OA 
HETATM   12  N   UNL     1     -10.587  10.289  68.844  1.00  0.00    -0.206 N  
HETATM   13  H   UNL     1     -11.364   9.779  68.423  1.00  0.00     0.000 HD 
BRANCH  12  14
HETATM   14  C   UNL     1     -10.538  11.684  68.602  1.00  0.00    -0.209 A  
HETATM   15  C   UNL     1      -9.638  12.287  67.720  1.00  0.00    -0.200 A  
HETATM   16  C   UNL     1      -9.623  13.677  67.541  1.00  0.00    -0.220 A  
HETATM   17  C   UNL     1     -10.525  14.477  68.242  1.00  0.00    -0.242 A  
HETATM   18  C   UNL     1     -11.440  12.502  69.300  1.00  0.00    -0.353 A  
HETATM   19  C   UNL     1     -11.431  13.895  69.132  1.00  0.00    -0.345 A  
BRANCH  17  20
HETATM   20  S   UNL     1     -10.426  16.256  68.095  1.00  0.00    -0.301 S  
HETATM   21  O   UNL     1     -11.615  16.821  68.702  1.00  0.00    -0.104 OA 
HETATM   22  O   UNL     1     -10.097  16.534  66.714  1.00  0.00    -0.270 OA 
BRANCH  20  23
HETATM   23  N   UNL     1      -9.058  16.670  69.000  1.00  0.00    -0.243 N  
HETATM   24  H   UNL     1      -9.083  17.303  69.800  1.00  0.00     0.000 HD 
BRANCH  23  25
HETATM   25  C   UNL     1      -7.880  16.050  68.534  1.00  0.00    -0.160 A  
HETATM   26  N   UNL     1      -7.380  16.463  67.398  1.00  0.00    -0.140 NA 
HETATM   27  C   UNL     1      -6.230  15.746  67.128  1.00  0.00     0.094 A  
HETATM   28  C   UNL     1      -5.827  14.874  68.117  1.00  0.00    -0.136 A  
HETATM   29  S   UNL     1      -6.969  14.896  69.400  1.00  0.00    -0.181 SA 
ENDBRANCH  23  25
ENDBRANCH  20  23
ENDBRANCH  17  20
ENDBRANCH  12  14
ENDBRANCH   9  10
TORSDOF 5
ENDMDL
MODEL      155
REMARK 921   NORMALIZED FREE ENERGY PREDICTED BY IDOCK:   -4.08 KCAL/MOL
REMARK 922        TOTAL FREE ENERGY PREDICTED BY IDOCK:   -6.23 KCAL/MOL
REMARK 923 INTER-LIGAND FREE ENERGY PREDICTED BY IDOCK:   -5.62 KCAL/MOL
REMARK 924 INTRA-LIGAND FREE ENERGY PREDICTED BY IDOCK:   -0.61 KCAL/MOL
REMARK 927      BINDING AFFINITY PREDICTED BY RF-SCORE:    0.00 PKD
ROOT
HETATM    1  O   UNL     1     -11.268  11.074  70.293  1.00  0.00    -0.256 OA 
HETATM    2  C   UNL     1     -11.246   9.805  70.728  1.00  0.00    -0.348 C  
HETATM    3  O   UNL     1     -11.960   9.438  71.652  1.00  0.00    -0.347 OA 
HETATM    4  C   UNL     1     -10.433   8.812  69.964  1.00  0.00    -0.222 A  
HETATM    5  C   UNL     1     -11.026   7.532  69.884  1.00  0.00    -0.223 A  
HETATM    6  C   UNL     1     -10.379   6.465  69.262  1.00  0.00    -0.248 A  
HETATM    7  C   UNL     1      -9.126   6.655  68.700  1.00  0.00    -0.126 A  
HETATM    8  C   UNL     1      -8.520   7.913  68.759  1.00  0.00    -0.128 A  
HETATM    9  C   UNL     1      -9.153   8.996  69.406  1.00  0.00    -0.146 A  
ENDROOT
BRANCH   9  10
HETATM   10  C   UNL     1      -8.455  10.308  69.395  1.00  0.00    -0.160 C  
HETATM   11  O   UNL     1      -7.482  10.425  70.132  1.00  0.00    -0.151 OA 
HETATM   12  N   UNL     1      -9.003  11.303  68.594  1.00  0.00    -0.232 N  
HETATM   13  H   UNL     1      -9.824  11.047  68.046  1.00  0.00     0.000 HD 
BRANCH  12  14
HETATM   14  C   UNL     1      -8.540  12.635  68.460  1.00  0.00    -0.051 A  
HETATM   15  C   UNL     1      -9.255  13.753  68.895  1.00  0.00     0.122 A  
HETATM   16  C   UNL     1      -8.753  15.048  68.713  1.00  0.00    -0.186 A  
HETATM   17  C   UNL     1      -7.515  15.233  68.097  1.00  0.00    -0.112 A  
HETATM   18  C   UNL     1      -7.294  12.837  67.844  1.00  0.00    -0.120 A  
HETATM   19  C   UNL     1      -6.784  14.130  67.651  1.00  0.00    -0.188 A  
BRANCH  17  20
HETATM   20  S   UNL     1      -6.932  16.890  67.765  1.00  0.00    -0.146 S  
HETATM   21  O   UNL     1      -6.838  17.052  66.328  1.00  0.00    -0.238 OA 
HETATM   22  O   UNL     1      -5.775  17.093  68.609  1.00  0.00    -0.138 OA 
BRANCH  20  23
HETATM   23  N   UNL     1      -8.150  17.888  68.385  1.00  0.00    -0.292 N  
HETATM   24  H   UNL     1      -8.256  18.094  69.379  1.00  0.00     0.000 HD 
BRANCH  23  25
HETATM   25  C   UNL     1      -9.001  18.405  67.387  1.00  0.00    -0.261 A  
HETATM   26  N   UNL     1      -9.784  17.566  66.757  1.00  0.00    -0.282 NA 
HETATM   27  C   UNL     1     -10.542  18.266  65.837  1.00  0.00    -0.254 A  
HETATM   28  C   UNL     1     -10.388  19.637  65.861  1.00  0.00    -0.488 A  
HETATM   29  S   UNL     1      -9.199  20.060  67.024  1.00  0.00    -0.396 SA 
ENDBRANCH  23  25
ENDBRANCH  20  23
ENDBRANCH  17  20
ENDBRANCH  12  14
ENDBRANCH   9  10
TORSDOF 5
ENDMDL
MODEL      156
REMARK 921   NORMALIZED FREE ENERGY PREDICTED BY IDOCK:   -4.06 KCAL/MOL
REMARK 922        TOTAL FREE ENERGY PREDICTED BY IDOCK:   -6.22 KCAL/MOL
REMARK 923 INTER-LIGAND FREE ENERGY PREDICTED BY IDOCK:   -5.54 KCAL/MOL
REMARK 924 INTRA-LIGAND FREE ENERGY PREDICTED BY IDOCK:   -0.68 KCAL/MOL
REMARK 927      BINDING AFFINITY PREDICTED BY RF-SCORE:    0.00 PKD
ROOT
HETATM    1  O   UNL     1      -7.836  10.466  63.591  1.00  0.00    -0.147 OA 
HETATM    2  C   UNL     1      -8.427   9.272  63.436  1.00  0.00    -0.202 C  
HETATM    3  O   UNL     1      -9.025   8.989  62.406  1.00  0.00    -0.216 OA 
HETATM    4  C   UNL     1      -8.218   8.238  64.493  1.00  0.00    -0.138 A  
HETATM    5  C   UNL     1      -8.097   6.924  63.988  1.00  0.00    -0.008 A  
HETATM    6  C   UNL     1      -7.959   5.826  64.836  1.00  0.00    -0.123 A  
HETATM    7  C   UNL     1      -7.932   6.017  66.209  1.00  0.00    -0.106 A  
HETATM    8  C   UNL     1      -8.043   7.307  66.734  1.00  0.00    -0.119 A  
HETATM    9  C   UNL     1      -8.207   8.425  65.889  1.00  0.00    -0.123 A  
ENDROOT
BRANCH   9  10
HETATM   10  C   UNL     1      -8.283   9.766  66.527  1.00  0.00    -0.120 C  
HETATM   11  O   UNL     1      -7.321  10.114  67.203  1.00  0.00    -0.089 OA 
HETATM   12  N   UNL     1      -9.462  10.479  66.347  1.00  0.00    -0.167 N  
HETATM   13  H   UNL     1     -10.174  10.045  65.761  1.00  0.00     0.000 HD 
BRANCH  12  14
HETATM   14  C   UNL     1      -9.777  11.748  66.892  1.00  0.00    -0.198 A  
HETATM   15  C   UNL     1      -9.491  12.959  66.257  1.00  0.00    -0.205 A  
HETATM   16  C   UNL     1      -9.807  14.184  66.859  1.00  0.00    -0.265 A  
HETATM   17  C   UNL     1     -10.426  14.204  68.109  1.00  0.00    -0.244 A  
HETATM   18  C   UNL     1     -10.403  11.784  68.149  1.00  0.00    -0.213 A  
HETATM   19  C   UNL     1     -10.719  13.005  68.764  1.00  0.00    -0.250 A  
BRANCH  17  20
HETATM   20  S   UNL     1     -10.724  15.768  68.922  1.00  0.00    -0.266 S  
HETATM   21  O   UNL     1     -11.201  15.491  70.263  1.00  0.00    -0.269 OA 
HETATM   22  O   UNL     1     -11.515  16.561  68.006  1.00  0.00    -0.203 OA 
BRANCH  20  23
HETATM   23  N   UNL     1      -9.199  16.498  68.985  1.00  0.00    -0.257 N  
HETATM   24  H   UNL     1      -8.401  16.091  69.472  1.00  0.00     0.000 HD 
BRANCH  23  25
HETATM   25  C   UNL     1      -9.147  17.727  68.295  1.00  0.00    -0.281 A  
HETATM   26  N   UNL     1      -8.576  17.744  67.118  1.00  0.00    -0.228 NA 
HETATM   27  C   UNL     1      -8.641  19.026  66.607  1.00  0.00    -0.313 A  
HETATM   28  C   UNL     1      -9.351  19.933  67.366  1.00  0.00    -0.355 A  
HETATM   29  S   UNL     1      -9.894  19.173  68.807  1.00  0.00    -0.433 SA 
ENDBRANCH  23  25
ENDBRANCH  20  23
ENDBRANCH  17  20
ENDBRANCH  12  14
ENDBRANCH   9  10
TORSDOF 5
ENDMDL
MODEL      157
REMARK 921   NORMALIZED FREE ENERGY PREDICTED BY IDOCK:   -4.04 KCAL/MOL
REMARK 922        TOTAL FREE ENERGY PREDICTED BY IDOCK:   -6.19 KCAL/MOL
REMARK 923 INTER-LIGAND FREE ENERGY PREDICTED BY IDOCK:   -5.66 KCAL/MOL
REMARK 924 INTRA-LIGAND FREE ENERGY PREDICTED BY IDOCK:   -0.53 KCAL/MOL
REMARK 927      BINDING AFFINITY PREDICTED BY RF-SCORE:    0.00 PKD
ROOT
HETATM    1  O   UNL     1      -6.685  13.815  67.334  1.00  0.00    -0.220 OA 
HETATM    2  C   UNL     1      -7.462  14.902  67.453  1.00  0.00    -0.199 C  
HETATM    3  O   UNL     1      -7.065  15.904  68.033  1.00  0.00    -0.119 OA 
HETATM    4  C   UNL     1      -8.771  14.915  66.735  1.00  0.00    -0.278 A  
HETATM    5  C   UNL     1      -9.115  16.177  66.201  1.00  0.00    -0.382 A  
HETATM    6  C   UNL     1     -10.332  16.389  65.554  1.00  0.00    -0.336 A  
HETATM    7  C   UNL     1     -11.230  15.341  65.419  1.00  0.00    -0.307 A  
HETATM    8  C   UNL     1     -10.911  14.081  65.932  1.00  0.00    -0.288 A  
HETATM    9  C   UNL     1      -9.694  13.858  66.611  1.00  0.00    -0.295 A  
ENDROOT
BRANCH   9  10
HETATM   10  C   UNL     1      -9.418  12.481  67.096  1.00  0.00    -0.208 C  
HETATM   11  O   UNL     1      -9.156  11.636  66.247  1.00  0.00    -0.210 OA 
HETATM   12  N   UNL     1      -9.538  12.262  68.463  1.00  0.00    -0.351 N  
HETATM   13  H   UNL     1      -9.773  13.072  69.037  1.00  0.00     0.000 HD 
BRANCH  12  14
HETATM   14  C   UNL     1      -9.368  11.031  69.143  1.00  0.00    -0.021 A  
HETATM   15  C   UNL     1      -8.126  10.428  69.358  1.00  0.00    -0.161 A  
HETATM   16  C   UNL     1      -8.025   9.196  70.018  1.00  0.00    -0.113 A  
HETATM   17  C   UNL     1      -9.177   8.560  70.481  1.00  0.00    -0.156 A  
HETATM   18  C   UNL     1     -10.518  10.380  69.617  1.00  0.00    -0.279 A  
HETATM   19  C   UNL     1     -10.429   9.143  70.275  1.00  0.00    -0.257 A  
BRANCH  17  20
HETATM   20  S   UNL     1      -9.052   6.937  71.222  1.00  0.00    -0.148 S  
HETATM   21  O   UNL     1     -10.386   6.517  71.605  1.00  0.00    -0.204 OA 
HETATM   22  O   UNL     1      -7.992   7.016  72.203  1.00  0.00    -0.093 OA 
BRANCH  20  23
HETATM   23  N   UNL     1      -8.469   5.957  69.973  1.00  0.00    -0.124 N  
HETATM   24  H   UNL     1      -7.675   5.325  70.077  1.00  0.00     0.000 HD 
BRANCH  23  25
HETATM   25  C   UNL     1      -9.194   6.105  68.771  1.00  0.00    -0.124 A  
HETATM   26  N   UNL     1     -10.483   5.886  68.804  1.00  0.00    -0.222 NA 
HETATM   27  C   UNL     1     -11.006   6.096  67.542  1.00  0.00    -0.307 A  
HETATM   28  C   UNL     1     -10.114   6.568  66.602  1.00  0.00    -0.137 A  
HETATM   29  S   UNL     1      -8.551   6.684  67.302  1.00  0.00    -0.119 SA 
ENDBRANCH  23  25
ENDBRANCH  20  23
ENDBRANCH  17  20
ENDBRANCH  12  14
ENDBRANCH   9  10
TORSDOF 5
ENDMDL
MODEL      158
REMARK 921   NORMALIZED FREE ENERGY PREDICTED BY IDOCK:   -3.99 KCAL/MOL
REMARK 922        TOTAL FREE ENERGY PREDICTED BY IDOCK:   -6.12 KCAL/MOL
REMARK 923 INTER-LIGAND FREE ENERGY PREDICTED BY IDOCK:   -5.69 KCAL/MOL
REMARK 924 INTRA-LIGAND FREE ENERGY PREDICTED BY IDOCK:   -0.44 KCAL/MOL
REMARK 927      BINDING AFFINITY PREDICTED BY RF-SCORE:    0.00 PKD
ROOT
HETATM    1  O   UNL     1     -11.896   6.746  69.926  1.00  0.00    -0.283 OA 
HETATM    2  C   UNL     1     -11.925   6.786  71.267  1.00  0.00    -0.365 C  
HETATM    3  O   UNL     1     -12.905   6.402  71.892  1.00  0.00    -0.243 OA 
HETATM    4  C   UNL     1     -10.677   7.175  71.988  1.00  0.00    -0.243 A  
HETATM    5  C   UNL     1     -10.467   6.462  73.189  1.00  0.00    -0.265 A  
HETATM    6  C   UNL     1      -9.385   6.739  74.024  1.00  0.00    -0.236 A  
HETATM    7  C   UNL     1      -8.483   7.732  73.672  1.00  0.00    -0.275 A  
HETATM    8  C   UNL     1      -8.664   8.448  72.486  1.00  0.00    -0.277 A  
HETATM    9  C   UNL     1      -9.767   8.195  71.644  1.00  0.00    -0.238 A  
ENDROOT
BRANCH   9  10
HETATM   10  C   UNL     1      -9.867   8.978  70.385  1.00  0.00    -0.202 C  
HETATM   11  O   UNL     1      -9.342   8.493  69.388  1.00  0.00    -0.153 OA 
HETATM   12  N   UNL     1     -10.496  10.214  70.463  1.00  0.00    -0.408 N  
HETATM   13  H   UNL     1     -10.874  10.478  71.373  1.00  0.00     0.000 HD 
BRANCH  12  14
HETATM   14  C   UNL     1     -10.667  11.147  69.411  1.00  0.00    -0.175 A  
HETATM   15  C   UNL     1     -11.676  11.055  68.449  1.00  0.00    -0.329 A  
HETATM   16  C   UNL     1     -11.779  11.998  67.417  1.00  0.00    -0.352 A  
HETATM   17  C   UNL     1     -10.871  13.054  67.348  1.00  0.00    -0.251 A  
HETATM   18  C   UNL     1      -9.762  12.217  69.330  1.00  0.00     0.588 A  
HETATM   19  C   UNL     1      -9.853  13.164  68.298  1.00  0.00    -0.227 A  
BRANCH  17  20
HETATM   20  S   UNL     1     -10.938  14.188  65.968  1.00  0.00    -0.310 S  
HETATM   21  O   UNL     1     -10.814  15.535  66.489  1.00  0.00    -0.313 OA 
HETATM   22  O   UNL     1     -12.088  13.803  65.179  1.00  0.00    -0.359 OA 
BRANCH  20  23
HETATM   23  N   UNL     1      -9.577  13.794  65.043  1.00  0.00    -0.445 N  
HETATM   24  H   UNL     1      -8.806  14.440  64.874  1.00  0.00     0.000 HD 
BRANCH  23  25
HETATM   25  C   UNL     1      -9.619  12.480  64.532  1.00  0.00     0.204 A  
HETATM   26  N   UNL     1      -8.901  11.567  65.133  1.00  0.00     0.093 NA 
HETATM   27  C   UNL     1      -9.090  10.356  64.494  1.00  0.00    -0.229 A  
HETATM   28  C   UNL     1     -10.028  10.359  63.483  1.00  0.00    -0.102 A  
HETATM   29  S   UNL     1     -10.641  11.949  63.274  1.00  0.00    -0.292 SA 
ENDBRANCH  23  25
ENDBRANCH  20  23
ENDBRANCH  17  20
ENDBRANCH  12  14
ENDBRANCH   9  10
TORSDOF 5
ENDMDL
MODEL      159
REMARK 921   NORMALIZED FREE ENERGY PREDICTED BY IDOCK:   -3.96 KCAL/MOL
REMARK 922        TOTAL FREE ENERGY PREDICTED BY IDOCK:   -6.08 KCAL/MOL
REMARK 923 INTER-LIGAND FREE ENERGY PREDICTED BY IDOCK:   -6.42 KCAL/MOL
REMARK 924 INTRA-LIGAND FREE ENERGY PREDICTED BY IDOCK:    0.33 KCAL/MOL
REMARK 927      BINDING AFFINITY PREDICTED BY RF-SCORE:    0.00 PKD
ROOT
HETATM    1  O   UNL     1      -6.630  11.693  69.682  1.00  0.00    -0.121 OA 
HETATM    2  C   UNL     1      -6.808  10.363  69.693  1.00  0.00    -0.108 C  
HETATM    3  O   UNL     1      -5.856   9.597  69.765  1.00  0.00    -0.035 OA 
HETATM    4  C   UNL     1      -8.204   9.838  69.762  1.00  0.00    -0.182 A  
HETATM    5  C   UNL     1      -8.338   8.678  70.557  1.00  0.00    -0.147 A  
HETATM    6  C   UNL     1      -9.558   8.015  70.682  1.00  0.00    -0.172 A  
HETATM    7  C   UNL     1     -10.675   8.503  70.021  1.00  0.00    -0.234 A  
HETATM    8  C   UNL     1     -10.572   9.653  69.235  1.00  0.00    -0.236 A  
HETATM    9  C   UNL     1      -9.338  10.320  69.079  1.00  0.00    -0.195 A  
ENDROOT
BRANCH   9  10
HETATM   10  C   UNL     1      -9.322  11.554  68.252  1.00  0.00    -0.190 C  
HETATM   11  O   UNL     1      -8.818  11.468  67.137  1.00  0.00    -0.158 OA 
HETATM   12  N   UNL     1      -9.828  12.708  68.838  1.00  0.00    -0.414 N  
HETATM   13  H   UNL     1     -10.205  12.614  69.781  1.00  0.00     0.000 HD 
BRANCH  12  14
HETATM   14  C   UNL     1      -9.874  14.002  68.262  1.00  0.00    -0.233 A  
HETATM   15  C   UNL     1      -9.424  15.155  68.908  1.00  0.00    -0.213 A  
HETATM   16  C   UNL     1      -9.518  16.411  68.294  1.00  0.00    -0.217 A  
HETATM   17  C   UNL     1     -10.059  16.519  67.012  1.00  0.00    -0.279 A  
HETATM   18  C   UNL     1     -10.413  14.126  66.971  1.00  0.00    -0.271 A  
HETATM   19  C   UNL     1     -10.517  15.379  66.349  1.00  0.00    -0.307 A  
BRANCH  17  20
HETATM   20  S   UNL     1     -10.280  18.135  66.280  1.00  0.00    -0.365 S  
HETATM   21  O   UNL     1     -10.804  19.021  67.301  1.00  0.00    -0.472 OA 
HETATM   22  O   UNL     1     -10.999  17.927  65.042  1.00  0.00    -0.776 OA 
BRANCH  20  23
HETATM   23  N   UNL     1      -8.715  18.609  65.845  1.00  0.00     0.046 N  
HETATM   24  H   UNL     1      -8.366  18.585  64.887  1.00  0.00     0.000 HD 
BRANCH  23  25
HETATM   25  C   UNL     1      -7.944  19.040  66.945  1.00  0.00    -0.259 A  
HETATM   26  N   UNL     1      -8.092  20.275  67.349  1.00  0.00    -0.330 NA 
HETATM   27  C   UNL     1      -7.267  20.493  68.436  1.00  0.00    -0.029 A  
HETATM   28  C   UNL     1      -6.585  19.385  68.895  1.00  0.00    -0.304 A  
HETATM   29  S   UNL     1      -6.931  18.040  67.885  1.00  0.00    -0.215 SA 
ENDBRANCH  23  25
ENDBRANCH  20  23
ENDBRANCH  17  20
ENDBRANCH  12  14
ENDBRANCH   9  10
TORSDOF 5
ENDMDL
MODEL      160
REMARK 921   NORMALIZED FREE ENERGY PREDICTED BY IDOCK:   -3.95 KCAL/MOL
REMARK 922        TOTAL FREE ENERGY PREDICTED BY IDOCK:   -6.07 KCAL/MOL
REMARK 923 INTER-LIGAND FREE ENERGY PREDICTED BY IDOCK:   -5.57 KCAL/MOL
REMARK 924 INTRA-LIGAND FREE ENERGY PREDICTED BY IDOCK:   -0.49 KCAL/MOL
REMARK 927      BINDING AFFINITY PREDICTED BY RF-SCORE:    0.00 PKD
ROOT
HETATM    1  O   UNL     1     -11.122  14.030  69.523  1.00  0.00    -0.230 OA 
HETATM    2  C   UNL     1     -11.531  15.293  69.329  1.00  0.00    -0.320 C  
HETATM    3  O   UNL     1     -12.546  15.720  69.864  1.00  0.00    -0.255 OA 
HETATM    4  C   UNL     1     -10.642  16.212  68.558  1.00  0.00    -0.284 A  
HETATM    5  C   UNL     1     -10.633  17.538  69.047  1.00  0.00    -0.146 A  
HETATM    6  C   UNL     1      -9.909  18.546  68.412  1.00  0.00    -0.404 A  
HETATM    7  C   UNL     1      -9.169  18.249  67.277  1.00  0.00    -0.256 A  
HETATM    8  C   UNL     1      -9.155  16.944  66.777  1.00  0.00    -0.266 A  
HETATM    9  C   UNL     1      -9.903  15.919  67.395  1.00  0.00    -0.234 A  
ENDROOT
BRANCH   9  10
HETATM   10  C   UNL     1      -9.806  14.553  66.820  1.00  0.00    -0.265 C  
HETATM   11  O   UNL     1     -10.406  14.349  65.771  1.00  0.00    -0.295 OA 
HETATM   12  N   UNL     1      -9.091  13.613  67.553  1.00  0.00    -0.203 N  
HETATM   13  H   UNL     1      -8.656  13.941  68.415  1.00  0.00     0.000 HD 
BRANCH  12  14
HETATM   14  C   UNL     1      -8.903  12.247  67.227  1.00  0.00    -0.190 A  
HETATM   15  C   UNL     1      -9.939  11.310  67.185  1.00  0.00    -0.219 A  
HETATM   16  C   UNL     1      -9.686   9.967  66.878  1.00  0.00    -0.236 A  
HETATM   17  C   UNL     1      -8.383   9.551  66.599  1.00  0.00    -0.116 A  
HETATM   18  C   UNL     1      -7.598  11.815  66.942  1.00  0.00    -0.119 A  
HETATM   19  C   UNL     1      -7.333  10.470  66.639  1.00  0.00    -0.120 A  
BRANCH  17  20
HETATM   20  S   UNL     1      -8.050   7.817  66.320  1.00  0.00    -0.120 S  
HETATM   21  O   UNL     1      -8.865   7.051  67.243  1.00  0.00    -0.119 OA 
HETATM   22  O   UNL     1      -6.611   7.674  66.310  1.00  0.00    -0.048 OA 
BRANCH  20  23
HETATM   23  N   UNL     1      -8.563   7.549  64.730  1.00  0.00    -0.367 N  
HETATM   24  H   UNL     1      -9.051   6.705  64.431  1.00  0.00     0.000 HD 
BRANCH  23  25
HETATM   25  C   UNL     1      -8.245   8.614  63.861  1.00  0.00    -0.146 A  
HETATM   26  N   UNL     1      -9.161   9.525  63.651  1.00  0.00    -0.183 NA 
HETATM   27  C   UNL     1      -8.652  10.480  62.791  1.00  0.00    -0.207 A  
HETATM   28  C   UNL     1      -7.326  10.325  62.448  1.00  0.00    -0.138 A  
HETATM   29  S   UNL     1      -6.712   8.891  63.167  1.00  0.00    -0.089 SA 
ENDBRANCH  23  25
ENDBRANCH  20  23
ENDBRANCH  17  20
ENDBRANCH  12  14
ENDBRANCH   9  10
TORSDOF 5
ENDMDL
MODEL      161
REMARK 921   NORMALIZED FREE ENERGY PREDICTED BY IDOCK:   -3.94 KCAL/MOL
REMARK 922        TOTAL FREE ENERGY PREDICTED BY IDOCK:   -6.06 KCAL/MOL
REMARK 923 INTER-LIGAND FREE ENERGY PREDICTED BY IDOCK:   -5.23 KCAL/MOL
REMARK 924 INTRA-LIGAND FREE ENERGY PREDICTED BY IDOCK:   -0.83 KCAL/MOL
REMARK 927      BINDING AFFINITY PREDICTED BY RF-SCORE:    0.00 PKD
ROOT
HETATM    1  O   UNL     1     -11.327  11.757  67.458  1.00  0.00    -0.274 OA 
HETATM    2  C   UNL     1     -11.292  12.716  66.520  1.00  0.00    -0.326 C  
HETATM    3  O   UNL     1     -12.152  12.785  65.651  1.00  0.00    -0.429 OA 
HETATM    4  C   UNL     1     -10.259  13.787  66.644  1.00  0.00    -0.276 A  
HETATM    5  C   UNL     1     -10.715  15.066  66.254  1.00  0.00    -0.322 A  
HETATM    6  C   UNL     1      -9.867  16.173  66.244  1.00  0.00    -0.329 A  
HETATM    7  C   UNL     1      -8.544  16.027  66.633  1.00  0.00    -0.316 A  
HETATM    8  C   UNL     1      -8.069  14.774  67.030  1.00  0.00    -0.177 A  
HETATM    9  C   UNL     1      -8.909  13.641  67.021  1.00  0.00    -0.233 A  
ENDROOT
BRANCH   9  10
HETATM   10  C   UNL     1      -8.335  12.353  67.490  1.00  0.00    -0.173 C  
HETATM   11  O   UNL     1      -7.641  11.733  66.692  1.00  0.00    -0.108 OA 
HETATM   12  N   UNL     1      -8.683  11.940  68.770  1.00  0.00    -0.363 N  
HETATM   13  H   UNL     1      -9.280  12.570  69.307  1.00  0.00     0.000 HD 
BRANCH  12  14
HETATM   14  C   UNL     1      -8.295  10.736  69.408  1.00  0.00    -0.004 A  
HETATM   15  C   UNL     1      -6.993  10.471  69.839  1.00  0.00    -0.151 A  
HETATM   16  C   UNL     1      -6.666   9.249  70.443  1.00  0.00    -0.073 A  
HETATM   17  C   UNL     1      -7.653   8.281  70.631  1.00  0.00    -0.071 A  
HETATM   18  C   UNL     1      -9.278   9.753  69.606  1.00  0.00    -0.239 A  
HETATM   19  C   UNL     1      -8.961   8.525  70.205  1.00  0.00    -0.153 A  
BRANCH  17  20
HETATM   20  S   UNL     1      -7.208   6.684  71.299  1.00  0.00    -0.079 S  
HETATM   21  O   UNL     1      -5.761   6.590  71.305  1.00  0.00    -0.026 OA 
HETATM   22  O   UNL     1      -8.009   5.709  70.593  1.00  0.00    -0.100 OA 
BRANCH  20  23
HETATM   23  N   UNL     1      -7.796   6.721  72.884  1.00  0.00    -0.098 N  
HETATM   24  H   UNL     1      -7.367   7.267  73.631  1.00  0.00     0.000 HD 
BRANCH  23  25
HETATM   25  C   UNL     1      -8.942   5.918  73.067  1.00  0.00    -0.121 A  
HETATM   26  N   UNL     1      -8.806   4.803  73.738  1.00  0.00    -0.105 NA 
HETATM   27  C   UNL     1     -10.036   4.176  73.817  1.00  0.00    -0.129 A  
HETATM   28  C   UNL     1     -11.097   4.881  73.289  1.00  0.00    -0.337 A  
HETATM   29  S   UNL     1     -10.526   6.348  72.603  1.00  0.00    -0.220 SA 
ENDBRANCH  23  25
ENDBRANCH  20  23
ENDBRANCH  17  20
ENDBRANCH  12  14
ENDBRANCH   9  10
TORSDOF 5
ENDMDL
MODEL      162
REMARK 921   NORMALIZED FREE ENERGY PREDICTED BY IDOCK:   -3.94 KCAL/MOL
REMARK 922        TOTAL FREE ENERGY PREDICTED BY IDOCK:   -6.06 KCAL/MOL
REMARK 923 INTER-LIGAND FREE ENERGY PREDICTED BY IDOCK:   -6.05 KCAL/MOL
REMARK 924 INTRA-LIGAND FREE ENERGY PREDICTED BY IDOCK:   -0.01 KCAL/MOL
REMARK 927      BINDING AFFINITY PREDICTED BY RF-SCORE:    0.00 PKD
ROOT
HETATM    1  O   UNL     1     -10.294  16.244  67.542  1.00  0.00    -0.275 OA 
HETATM    2  C   UNL     1     -10.633  16.390  68.832  1.00  0.00    -0.307 C  
HETATM    3  O   UNL     1     -10.385  17.424  69.439  1.00  0.00    -0.292 OA 
HETATM    4  C   UNL     1     -11.449  15.317  69.474  1.00  0.00    -0.318 A  
HETATM    5  C   UNL     1     -12.411  15.803  70.388  1.00  0.00    -0.367 A  
HETATM    6  C   UNL     1     -13.218  14.939  71.126  1.00  0.00    -0.476 A  
HETATM    7  C   UNL     1     -13.088  13.568  70.961  1.00  0.00    -0.219 A  
HETATM    8  C   UNL     1     -12.150  13.062  70.058  1.00  0.00    -0.367 A  
HETATM    9  C   UNL     1     -11.309  13.924  69.322  1.00  0.00    -0.321 A  
ENDROOT
BRANCH   9  10
HETATM   10  C   UNL     1     -10.361  13.305  68.359  1.00  0.00    -0.251 C  
HETATM   11  O   UNL     1      -9.187  13.651  68.436  1.00  0.00    -0.195 OA 
HETATM   12  N   UNL     1     -10.901  12.434  67.421  1.00  0.00    -0.231 N  
HETATM   13  H   UNL     1     -11.903  12.256  67.485  1.00  0.00     0.000 HD 
BRANCH  12  14
HETATM   14  C   UNL     1     -10.203  11.766  66.384  1.00  0.00    -0.215 A  
HETATM   15  C   UNL     1     -10.680  11.653  65.076  1.00  0.00    -0.351 A  
HETATM   16  C   UNL     1      -9.953  10.959  64.099  1.00  0.00    -0.403 A  
HETATM   17  C   UNL     1      -8.728  10.377  64.427  1.00  0.00    -0.198 A  
HETATM   18  C   UNL     1      -8.968  11.177  66.699  1.00  0.00    -0.175 A  
HETATM   19  C   UNL     1      -8.234  10.476  65.730  1.00  0.00    -0.160 A  
BRANCH  17  20
HETATM   20  S   UNL     1      -7.861   9.398  63.209  1.00  0.00    -0.140 S  
HETATM   21  O   UNL     1      -6.990  10.283  62.461  1.00  0.00    -0.125 OA 
HETATM   22  O   UNL     1      -8.865   8.605  62.533  1.00  0.00    -0.144 OA 
BRANCH  20  23
HETATM   23  N   UNL     1      -6.942   8.315  64.127  1.00  0.00    -0.076 N  
HETATM   24  H   UNL     1      -6.124   8.591  64.671  1.00  0.00     0.000 HD 
BRANCH  23  25
HETATM   25  C   UNL     1      -7.424   6.991  64.064  1.00  0.00    -0.099 A  
HETATM   26  N   UNL     1      -7.007   6.235  63.081  1.00  0.00    -0.044 NA 
HETATM   27  C   UNL     1      -7.578   4.982  63.205  1.00  0.00    -0.062 A  
HETATM   28  C   UNL     1      -8.338   4.786  64.339  1.00  0.00    -0.126 A  
HETATM   29  S   UNL     1      -8.401   6.244  65.245  1.00  0.00    -0.110 SA 
ENDBRANCH  23  25
ENDBRANCH  20  23
ENDBRANCH  17  20
ENDBRANCH  12  14
ENDBRANCH   9  10
TORSDOF 5
ENDMDL
MODEL      163
REMARK 921   NORMALIZED FREE ENERGY PREDICTED BY IDOCK:   -3.90 KCAL/MOL
REMARK 922        TOTAL FREE ENERGY PREDICTED BY IDOCK:   -6.01 KCAL/MOL
REMARK 923 INTER-LIGAND FREE ENERGY PREDICTED BY IDOCK:   -5.31 KCAL/MOL
REMARK 924 INTRA-LIGAND FREE ENERGY PREDICTED BY IDOCK:   -0.70 KCAL/MOL
REMARK 927      BINDING AFFINITY PREDICTED BY RF-SCORE:    0.00 PKD
ROOT
HETATM    1  O   UNL     1      -7.094   8.770  65.333  1.00  0.00    -0.081 OA 
HETATM    2  C   UNL     1      -7.301   8.123  64.176  1.00  0.00    -0.095 C  
HETATM    3  O   UNL     1      -7.684   8.717  63.177  1.00  0.00    -0.114 OA 
HETATM    4  C   UNL     1      -6.915   6.682  64.095  1.00  0.00    -0.051 A  
HETATM    5  C   UNL     1      -6.372   6.308  62.846  1.00  0.00    -0.029 A  
HETATM    6  C   UNL     1      -6.016   4.988  62.570  1.00  0.00    -0.014 A  
HETATM    7  C   UNL     1      -6.186   4.014  63.542  1.00  0.00    -0.018 A  
HETATM    8  C   UNL     1      -6.714   4.359  64.789  1.00  0.00    -0.045 A  
HETATM    9  C   UNL     1      -7.102   5.686  65.073  1.00  0.00    -0.064 A  
ENDROOT
BRANCH   9  10
HETATM   10  C   UNL     1      -7.623   5.975  66.434  1.00  0.00    -0.094 C  
HETATM   11  O   UNL     1      -6.909   5.659  67.380  1.00  0.00    -0.057 OA 
HETATM   12  N   UNL     1      -8.896   6.525  66.514  1.00  0.00    -0.133 N  
HETATM   13  H   UNL     1      -9.366   6.722  65.631  1.00  0.00     0.000 HD 
BRANCH  12  14
HETATM   14  C   UNL     1      -9.611   6.841  67.696  1.00  0.00    -0.125 A  
HETATM   15  C   UNL     1     -10.628   6.042  68.225  1.00  0.00    -0.325 A  
HETATM   16  C   UNL     1     -11.315   6.421  69.387  1.00  0.00    -0.443 A  
HETATM   17  C   UNL     1     -10.977   7.608  70.037  1.00  0.00    -0.228 A  
HETATM   18  C   UNL     1      -9.281   8.031  68.364  1.00  0.00    -0.135 A  
HETATM   19  C   UNL     1      -9.965   8.423  69.525  1.00  0.00    -0.190 A  
BRANCH  17  20
HETATM   20  S   UNL     1     -11.930   8.142  71.452  1.00  0.00    -0.303 S  
HETATM   21  O   UNL     1     -11.068   8.948  72.294  1.00  0.00    -0.339 OA 
HETATM   22  O   UNL     1     -12.580   6.960  71.976  1.00  0.00    -0.302 OA 
BRANCH  20  23
HETATM   23  N   UNL     1     -13.156   9.099  70.786  1.00  0.00    -0.501 N  
HETATM   24  H   UNL     1     -14.005   8.717  70.370  1.00  0.00     0.000 HD 
BRANCH  23  25
HETATM   25  C   UNL     1     -12.881  10.481  70.867  1.00  0.00    -0.394 A  
HETATM   26  N   UNL     1     -13.195  11.103  71.974  1.00  0.00    -0.447 NA 
HETATM   27  C   UNL     1     -12.835  12.433  71.857  1.00  0.00    -0.210 A  
HETATM   28  C   UNL     1     -12.163  12.767  70.701  1.00  0.00    -0.288 A  
HETATM   29  S   UNL     1     -12.042  11.385  69.689  1.00  0.00    -0.279 SA 
ENDBRANCH  23  25
ENDBRANCH  20  23
ENDBRANCH  17  20
ENDBRANCH  12  14
ENDBRANCH   9  10
TORSDOF 5
ENDMDL
MODEL      164
REMARK 921   NORMALIZED FREE ENERGY PREDICTED BY IDOCK:   -3.86 KCAL/MOL
REMARK 922        TOTAL FREE ENERGY PREDICTED BY IDOCK:   -5.96 KCAL/MOL
REMARK 923 INTER-LIGAND FREE ENERGY PREDICTED BY IDOCK:   -5.81 KCAL/MOL
REMARK 924 INTRA-LIGAND FREE ENERGY PREDICTED BY IDOCK:   -0.15 KCAL/MOL
REMARK 927      BINDING AFFINITY PREDICTED BY RF-SCORE:    0.00 PKD
ROOT
HETATM    1  O   UNL     1     -10.351  10.852  65.165  1.00  0.00    -0.279 OA 
HETATM    2  C   UNL     1      -9.650  10.555  64.060  1.00  0.00    -0.311 C  
HETATM    3  O   UNL     1     -10.072  10.839  62.946  1.00  0.00    -0.273 OA 
HETATM    4  C   UNL     1      -8.275   9.998  64.225  1.00  0.00    -0.166 A  
HETATM    5  C   UNL     1      -7.354  10.460  63.258  1.00  0.00    -0.057 A  
HETATM    6  C   UNL     1      -6.039   9.995  63.221  1.00  0.00    -0.130 A  
HETATM    7  C   UNL     1      -5.614   9.064  64.156  1.00  0.00    -0.068 A  
HETATM    8  C   UNL     1      -6.503   8.596  65.127  1.00  0.00    -0.064 A  
HETATM    9  C   UNL     1      -7.842   9.038  65.161  1.00  0.00    -0.108 A  
ENDROOT
BRANCH   9  10
HETATM   10  C   UNL     1      -8.713   8.517  66.247  1.00  0.00    -0.142 C  
HETATM   11  O   UNL     1      -9.244   7.428  66.056  1.00  0.00    -0.140 OA 
HETATM   12  N   UNL     1      -8.892   9.335  67.355  1.00  0.00    -0.118 N  
HETATM   13  H   UNL     1      -8.384  10.220  67.357  1.00  0.00     0.000 HD 
BRANCH  12  14
HETATM   14  C   UNL     1      -9.707   9.070  68.483  1.00  0.00    -0.159 A  
HETATM   15  C   UNL     1      -9.989  10.011  69.476  1.00  0.00    -0.249 A  
HETATM   16  C   UNL     1     -10.784   9.680  70.581  1.00  0.00    -0.388 A  
HETATM   17  C   UNL     1     -11.315   8.395  70.695  1.00  0.00    -0.244 A  
HETATM   18  C   UNL     1     -10.250   7.781  68.611  1.00  0.00    -0.217 A  
HETATM   19  C   UNL     1     -11.043   7.437  69.716  1.00  0.00    -0.169 A  
BRANCH  17  20
HETATM   20  S   UNL     1     -12.233   7.946  72.162  1.00  0.00    -0.292 S  
HETATM   21  O   UNL     1     -13.088   6.823  71.827  1.00  0.00    -0.336 OA 
HETATM   22  O   UNL     1     -12.795   9.172  72.684  1.00  0.00    -0.361 OA 
BRANCH  20  23
HETATM   23  N   UNL     1     -11.043   7.464  73.263  1.00  0.00    -0.576 N  
HETATM   24  H   UNL     1     -10.787   8.007  74.088  1.00  0.00     0.000 HD 
BRANCH  23  25
HETATM   25  C   UNL     1     -10.441   6.235  72.922  1.00  0.00    -0.218 A  
HETATM   26  N   UNL     1      -9.276   6.268  72.327  1.00  0.00    -0.141 NA 
HETATM   27  C   UNL     1      -8.855   4.973  72.094  1.00  0.00    -0.129 A  
HETATM   28  C   UNL     1      -9.665   3.983  72.609  1.00  0.00    -0.145 A  
HETATM   29  S   UNL     1     -11.042   4.696  73.348  1.00  0.00    -0.334 SA 
ENDBRANCH  23  25
ENDBRANCH  20  23
ENDBRANCH  17  20
ENDBRANCH  12  14
ENDBRANCH   9  10
TORSDOF 5
ENDMDL
MODEL      165
REMARK 921   NORMALIZED FREE ENERGY PREDICTED BY IDOCK:   -3.85 KCAL/MOL
REMARK 922        TOTAL FREE ENERGY PREDICTED BY IDOCK:   -5.94 KCAL/MOL
REMARK 923 INTER-LIGAND FREE ENERGY PREDICTED BY IDOCK:   -4.90 KCAL/MOL
REMARK 924 INTRA-LIGAND FREE ENERGY PREDICTED BY IDOCK:   -1.04 KCAL/MOL
REMARK 927      BINDING AFFINITY PREDICTED BY RF-SCORE:    0.00 PKD
ROOT
HETATM    1  O   UNL     1     -11.369  13.415  68.677  1.00  0.00    -0.249 OA 
HETATM    2  C   UNL     1     -10.996  14.467  67.934  1.00  0.00    -0.269 C  
HETATM    3  O   UNL     1     -11.824  15.232  67.457  1.00  0.00    -0.241 OA 
HETATM    4  C   UNL     1      -9.538  14.770  67.821  1.00  0.00    -0.209 A  
HETATM    5  C   UNL     1      -9.242  16.151  67.805  1.00  0.00    -0.202 A  
HETATM    6  C   UNL     1      -7.938  16.617  67.641  1.00  0.00    -0.188 A  
HETATM    7  C   UNL     1      -6.898  15.711  67.497  1.00  0.00    -0.221 A  
HETATM    8  C   UNL     1      -7.163  14.339  67.515  1.00  0.00    -0.197 A  
HETATM    9  C   UNL     1      -8.480  13.853  67.656  1.00  0.00    -0.193 A  
ENDROOT
BRANCH   9  10
HETATM   10  C   UNL     1      -8.671  12.380  67.700  1.00  0.00    -0.178 C  
HETATM   11  O   UNL     1      -8.646  11.786  66.627  1.00  0.00    -0.178 OA 
HETATM   12  N   UNL     1      -8.917  11.816  68.945  1.00  0.00    -0.386 N  
HETATM   13  H   UNL     1      -8.915  12.452  69.743  1.00  0.00     0.000 HD 
BRANCH  12  14
HETATM   14  C   UNL     1      -9.172  10.450  69.223  1.00  0.00    -0.184 A  
HETATM   15  C   UNL     1     -10.430   9.855  69.099  1.00  0.00    -0.235 A  
HETATM   16  C   UNL     1     -10.623   8.503  69.411  1.00  0.00    -0.203 A  
HETATM   17  C   UNL     1      -9.546   7.729  69.843  1.00  0.00    -0.164 A  
HETATM   18  C   UNL     1      -8.097   9.658  69.657  1.00  0.00    -0.143 A  
HETATM   19  C   UNL     1      -8.281   8.304  69.977  1.00  0.00    -0.119 A  
BRANCH  17  20
HETATM   20  S   UNL     1      -9.821   6.036  70.348  1.00  0.00    -0.185 S  
HETATM   21  O   UNL     1      -8.831   5.207  69.690  1.00  0.00    -0.100 OA 
HETATM   22  O   UNL     1     -11.234   5.781  70.170  1.00  0.00    -0.319 OA 
BRANCH  20  23
HETATM   23  N   UNL     1      -9.550   6.053  72.017  1.00  0.00    -0.153 N  
HETATM   24  H   UNL     1     -10.126   6.578  72.676  1.00  0.00     0.000 HD 
BRANCH  23  25
HETATM   25  C   UNL     1      -8.445   5.267  72.405  1.00  0.00    -0.122 A  
HETATM   26  N   UNL     1      -7.288   5.863  72.543  1.00  0.00    -0.093 NA 
HETATM   27  C   UNL     1      -6.348   4.930  72.938  1.00  0.00    -0.042 A  
HETATM   28  C   UNL     1      -6.835   3.665  73.188  1.00  0.00    -0.040 A  
HETATM   29  S   UNL     1      -8.518   3.621  72.847  1.00  0.00    -0.087 SA 
ENDBRANCH  23  25
ENDBRANCH  20  23
ENDBRANCH  17  20
ENDBRANCH  12  14
ENDBRANCH   9  10
TORSDOF 5
ENDMDL
MODEL      166
REMARK 921   NORMALIZED FREE ENERGY PREDICTED BY IDOCK:   -3.81 KCAL/MOL
REMARK 922        TOTAL FREE ENERGY PREDICTED BY IDOCK:   -5.89 KCAL/MOL
REMARK 923 INTER-LIGAND FREE ENERGY PREDICTED BY IDOCK:   -5.43 KCAL/MOL
REMARK 924 INTRA-LIGAND FREE ENERGY PREDICTED BY IDOCK:   -0.46 KCAL/MOL
REMARK 927      BINDING AFFINITY PREDICTED BY RF-SCORE:    0.00 PKD
ROOT
HETATM    1  O   UNL     1      -7.224   7.132  65.016  1.00  0.00    -0.067 OA 
HETATM    2  C   UNL     1      -7.861   6.751  63.899  1.00  0.00    -0.106 C  
HETATM    3  O   UNL     1      -7.872   7.462  62.902  1.00  0.00    -0.125 OA 
HETATM    4  C   UNL     1      -8.437   5.374  63.848  1.00  0.00    -0.070 A  
HETATM    5  C   UNL     1      -8.322   4.755  62.584  1.00  0.00    -0.100 A  
HETATM    6  C   UNL     1      -8.861   3.492  62.338  1.00  0.00    -0.085 A  
HETATM    7  C   UNL     1      -9.520   2.817  63.353  1.00  0.00    -0.097 A  
HETATM    8  C   UNL     1      -9.642   3.405  64.615  1.00  0.00    -0.161 A  
HETATM    9  C   UNL     1      -9.123   4.691  64.872  1.00  0.00    -0.154 A  
ENDROOT
BRANCH   9  10
HETATM   10  C   UNL     1      -9.266   5.230  66.250  1.00  0.00    -0.149 C  
HETATM   11  O   UNL     1      -8.626   4.669  67.133  1.00  0.00    -0.105 OA 
HETATM   12  N   UNL     1     -10.155   6.283  66.423  1.00  0.00    -0.386 N  
HETATM   13  H   UNL     1     -10.619   6.632  65.584  1.00  0.00     0.000 HD 
BRANCH  12  14
HETATM   14  C   UNL     1     -10.485   6.923  67.643  1.00  0.00    -0.228 A  
HETATM   15  C   UNL     1     -10.248   8.275  67.899  1.00  0.00    -0.276 A  
HETATM   16  C   UNL     1     -10.577   8.845  69.136  1.00  0.00    -0.211 A  
HETATM   17  C   UNL     1     -11.160   8.060  70.130  1.00  0.00    -0.191 A  
HETATM   18  C   UNL     1     -11.075   6.145  68.652  1.00  0.00    -0.378 A  
HETATM   19  C   UNL     1     -11.403   6.704  69.897  1.00  0.00    -0.422 A  
BRANCH  17  20
HETATM   20  S   UNL     1     -11.472   8.764  71.743  1.00  0.00    -0.367 S  
HETATM   21  O   UNL     1     -12.505   7.974  72.384  1.00  0.00    -0.291 OA 
HETATM   22  O   UNL     1     -11.648  10.186  71.541  1.00  0.00    -0.319 OA 
BRANCH  20  23
HETATM   23  N   UNL     1     -10.005   8.581  72.565  1.00  0.00    -0.284 N  
HETATM   24  H   UNL     1      -9.410   9.364  72.835  1.00  0.00     0.000 HD 
BRANCH  23  25
HETATM   25  C   UNL     1      -9.690   7.233  72.838  1.00  0.00    -0.169 A  
HETATM   26  N   UNL     1      -8.844   6.630  72.042  1.00  0.00    -0.135 NA 
HETATM   27  C   UNL     1      -8.660   5.334  72.485  1.00  0.00    -0.121 A  
HETATM   28  C   UNL     1      -9.294   5.014  73.667  1.00  0.00    -0.129 A  
HETATM   29  S   UNL     1     -10.214   6.360  74.206  1.00  0.00    -0.302 SA 
ENDBRANCH  23  25
ENDBRANCH  20  23
ENDBRANCH  17  20
ENDBRANCH  12  14
ENDBRANCH   9  10
TORSDOF 5
ENDMDL
MODEL      167
REMARK 921   NORMALIZED FREE ENERGY PREDICTED BY IDOCK:   -3.80 KCAL/MOL
REMARK 922        TOTAL FREE ENERGY PREDICTED BY IDOCK:   -5.88 KCAL/MOL
REMARK 923 INTER-LIGAND FREE ENERGY PREDICTED BY IDOCK:   -5.12 KCAL/MOL
REMARK 924 INTRA-LIGAND FREE ENERGY PREDICTED BY IDOCK:   -0.76 KCAL/MOL
REMARK 927      BINDING AFFINITY PREDICTED BY RF-SCORE:    0.00 PKD
ROOT
HETATM    1  O   UNL     1      -9.026   8.870  65.922  1.00  0.00    -0.174 OA 
HETATM    2  C   UNL     1      -8.939   7.691  66.557  1.00  0.00    -0.158 C  
HETATM    3  O   UNL     1      -9.545   6.707  66.153  1.00  0.00    -0.096 OA 
HETATM    4  C   UNL     1      -7.972   7.568  67.688  1.00  0.00    -0.117 A  
HETATM    5  C   UNL     1      -7.327   6.313  67.752  1.00  0.00    -0.084 A  
HETATM    6  C   UNL     1      -6.439   5.999  68.780  1.00  0.00    -0.049 A  
HETATM    7  C   UNL     1      -6.169   6.938  69.764  1.00  0.00    -0.034 A  
HETATM    8  C   UNL     1      -6.788   8.189  69.720  1.00  0.00    -0.040 A  
HETATM    9  C   UNL     1      -7.707   8.512  68.700  1.00  0.00    -0.103 A  
ENDROOT
BRANCH   9  10
HETATM   10  C   UNL     1      -8.295   9.877  68.708  1.00  0.00    -0.116 C  
HETATM   11  O   UNL     1      -9.204  10.084  69.505  1.00  0.00    -0.200 OA 
HETATM   12  N   UNL     1      -7.802  10.777  67.772  1.00  0.00    -0.107 N  
HETATM   13  H   UNL     1      -7.047  10.445  67.172  1.00  0.00     0.000 HD 
BRANCH  12  14
HETATM   14  C   UNL     1      -8.238  12.110  67.566  1.00  0.00    -0.167 A  
HETATM   15  C   UNL     1      -7.671  13.219  68.198  1.00  0.00    -0.143 A  
HETATM   16  C   UNL     1      -8.162  14.511  67.969  1.00  0.00    -0.145 A  
HETATM   17  C   UNL     1      -9.227  14.703  67.089  1.00  0.00    -0.221 A  
HETATM   18  C   UNL     1      -9.308  12.319  66.681  1.00  0.00    -0.228 A  
HETATM   19  C   UNL     1      -9.811  13.608  66.448  1.00  0.00    -0.302 A  
BRANCH  17  20
HETATM   20  S   UNL     1      -9.923  16.338  66.888  1.00  0.00    -0.269 S  
HETATM   21  O   UNL     1      -9.936  16.647  65.472  1.00  0.00    -0.552 OA 
HETATM   22  O   UNL     1      -9.230  17.195  67.826  1.00  0.00    -0.235 OA 
BRANCH  20  23
HETATM   23  N   UNL     1     -11.506  16.187  67.466  1.00  0.00     0.007 N  
HETATM   24  H   UNL     1     -12.328  16.468  66.933  1.00  0.00     0.000 HD 
BRANCH  23  25
HETATM   25  C   UNL     1     -11.569  15.633  68.761  1.00  0.00    -0.384 A  
HETATM   26  N   UNL     1     -11.157  16.368  69.762  1.00  0.00    -0.335 NA 
HETATM   27  C   UNL     1     -11.315  15.656  70.936  1.00  0.00    -0.380 A  
HETATM   28  C   UNL     1     -11.938  14.432  70.809  1.00  0.00    -0.323 A  
HETATM   29  S   UNL     1     -12.272  14.129  69.152  1.00  0.00    -0.159 SA 
ENDBRANCH  23  25
ENDBRANCH  20  23
ENDBRANCH  17  20
ENDBRANCH  12  14
ENDBRANCH   9  10
TORSDOF 5
ENDMDL
MODEL      168
REMARK 921   NORMALIZED FREE ENERGY PREDICTED BY IDOCK:   -3.80 KCAL/MOL
REMARK 922        TOTAL FREE ENERGY PREDICTED BY IDOCK:   -5.88 KCAL/MOL
REMARK 923 INTER-LIGAND FREE ENERGY PREDICTED BY IDOCK:   -5.44 KCAL/MOL
REMARK 924 INTRA-LIGAND FREE ENERGY PREDICTED BY IDOCK:   -0.44 KCAL/MOL
REMARK 927      BINDING AFFINITY PREDICTED BY RF-SCORE:    0.00 PKD
ROOT
HETATM    1  O   UNL     1      -8.886  11.556  64.274  1.00  0.00     0.185 OA 
HETATM    2  C   UNL     1      -9.215  10.341  63.810  1.00  0.00    -0.275 C  
HETATM    3  O   UNL     1      -9.762  10.204  62.723  1.00  0.00    -0.260 OA 
HETATM    4  C   UNL     1      -8.770   9.145  64.585  1.00  0.00    -0.199 A  
HETATM    5  C   UNL     1      -8.386   8.052  63.776  1.00  0.00     0.043 A  
HETATM    6  C   UNL     1      -8.003   6.832  64.331  1.00  0.00    -0.096 A  
HETATM    7  C   UNL     1      -7.988   6.678  65.709  1.00  0.00    -0.112 A  
HETATM    8  C   UNL     1      -8.357   7.745  66.532  1.00  0.00    -0.128 A  
HETATM    9  C   UNL     1      -8.770   8.978  65.985  1.00  0.00    -0.184 A  
ENDROOT
BRANCH   9  10
HETATM   10  C   UNL     1      -9.114  10.072  66.930  1.00  0.00    -0.139 C  
HETATM   11  O   UNL     1      -8.199  10.526  67.608  1.00  0.00    -0.110 OA 
HETATM   12  N   UNL     1     -10.452  10.441  67.002  1.00  0.00    -0.243 N  
HETATM   13  H   UNL     1     -11.094   9.957  66.374  1.00  0.00     0.000 HD 
BRANCH  12  14
HETATM   14  C   UNL     1     -11.017  11.420  67.856  1.00  0.00    -0.240 A  
HETATM   15  C   UNL     1     -11.506  12.650  67.410  1.00  0.00    -0.397 A  
HETATM   16  C   UNL     1     -12.033  13.587  68.309  1.00  0.00    -0.377 A  
HETATM   17  C   UNL     1     -12.083  13.291  69.672  1.00  0.00    -0.270 A  
HETATM   18  C   UNL     1     -11.076  11.135  69.230  1.00  0.00    -0.318 A  
HETATM   19  C   UNL     1     -11.596  12.068  70.140  1.00  0.00    -0.228 A  
BRANCH  17  20
HETATM   20  S   UNL     1     -12.650  14.533  70.825  1.00  0.00    -0.371 S  
HETATM   21  O   UNL     1     -13.168  13.853  71.996  1.00  0.00    -0.355 OA 
HETATM   22  O   UNL     1     -13.484  15.442  70.069  1.00  0.00     0.147 OA 
BRANCH  20  23
HETATM   23  N   UNL     1     -11.251  15.396  71.224  1.00  0.00    -0.417 N  
HETATM   24  H   UNL     1     -10.933  15.540  72.183  1.00  0.00     0.000 HD 
BRANCH  23  25
HETATM   25  C   UNL     1     -10.571  15.897  70.094  1.00  0.00    -0.295 A  
HETATM   26  N   UNL     1     -11.090  16.926  69.474  1.00  0.00    -0.067 NA 
HETATM   27  C   UNL     1     -10.272  17.268  68.414  1.00  0.00    -0.358 A  
HETATM   28  C   UNL     1      -9.097  16.553  68.315  1.00  0.00    -0.214 A  
HETATM   29  S   UNL     1      -9.047  15.359  69.548  1.00  0.00    -0.159 SA 
ENDBRANCH  23  25
ENDBRANCH  20  23
ENDBRANCH  17  20
ENDBRANCH  12  14
ENDBRANCH   9  10
TORSDOF 5
ENDMDL
MODEL      169
REMARK 921   NORMALIZED FREE ENERGY PREDICTED BY IDOCK:   -3.79 KCAL/MOL
REMARK 922        TOTAL FREE ENERGY PREDICTED BY IDOCK:   -5.86 KCAL/MOL
REMARK 923 INTER-LIGAND FREE ENERGY PREDICTED BY IDOCK:   -5.54 KCAL/MOL
REMARK 924 INTRA-LIGAND FREE ENERGY PREDICTED BY IDOCK:   -0.32 KCAL/MOL
REMARK 927      BINDING AFFINITY PREDICTED BY RF-SCORE:    0.00 PKD
ROOT
HETATM    1  O   UNL     1      -9.994  10.804  66.368  1.00  0.00    -0.201 OA 
HETATM    2  C   UNL     1     -10.104  10.536  65.058  1.00  0.00    -0.321 C  
HETATM    3  O   UNL     1     -10.927  11.113  64.360  1.00  0.00    -0.322 OA 
HETATM    4  C   UNL     1      -9.102   9.618  64.439  1.00  0.00    -0.279 A  
HETATM    5  C   UNL     1      -8.725   9.988  63.129  1.00  0.00    -0.217 A  
HETATM    6  C   UNL     1      -7.846   9.211  62.375  1.00  0.00    -0.121 A  
HETATM    7  C   UNL     1      -7.318   8.050  62.917  1.00  0.00    -0.103 A  
HETATM    8  C   UNL     1      -7.669   7.665  64.214  1.00  0.00    -0.131 A  
HETATM    9  C   UNL     1      -8.576   8.428  64.979  1.00  0.00    -0.133 A  
ENDROOT
BRANCH   9  10
HETATM   10  C   UNL     1      -8.870   7.967  66.361  1.00  0.00    -0.157 C  
HETATM   11  O   UNL     1      -9.830   7.218  66.503  1.00  0.00    -0.193 OA 
HETATM   12  N   UNL     1      -8.066   8.472  67.375  1.00  0.00    -0.105 N  
HETATM   13  H   UNL     1      -7.310   9.096  67.092  1.00  0.00     0.000 HD 
BRANCH  12  14
HETATM   14  C   UNL     1      -8.186   8.211  68.763  1.00  0.00    -0.125 A  
HETATM   15  C   UNL     1      -8.220   9.209  69.740  1.00  0.00    -0.128 A  
HETATM   16  C   UNL     1      -8.317   8.886  71.100  1.00  0.00    -0.232 A  
HETATM   17  C   UNL     1      -8.392   7.550  71.493  1.00  0.00    -0.107 A  
HETATM   18  C   UNL     1      -8.264   6.871  69.173  1.00  0.00    -0.121 A  
HETATM   19  C   UNL     1      -8.356   6.536  70.533  1.00  0.00    -0.133 A  
BRANCH  17  20
HETATM   20  S   UNL     1      -8.401   7.140  73.233  1.00  0.00    -0.121 S  
HETATM   21  O   UNL     1      -7.329   7.877  73.871  1.00  0.00    -0.123 OA 
HETATM   22  O   UNL     1      -8.455   5.696  73.312  1.00  0.00    -0.117 OA 
BRANCH  20  23
HETATM   23  N   UNL     1      -9.900   7.700  73.781  1.00  0.00    -0.356 N  
HETATM   24  H   UNL     1     -10.042   8.120  74.699  1.00  0.00     0.000 HD 
BRANCH  23  25
HETATM   25  C   UNL     1     -10.933   7.526  72.836  1.00  0.00    -0.383 A  
HETATM   26  N   UNL     1     -11.398   8.591  72.234  1.00  0.00    -0.370 NA 
HETATM   27  C   UNL     1     -12.384   8.209  71.345  1.00  0.00    -0.298 A  
HETATM   28  C   UNL     1     -12.575   6.849  71.218  1.00  0.00    -0.345 A  
HETATM   29  S   UNL     1     -11.535   6.021  72.305  1.00  0.00    -0.296 SA 
ENDBRANCH  23  25
ENDBRANCH  20  23
ENDBRANCH  17  20
ENDBRANCH  12  14
ENDBRANCH   9  10
TORSDOF 5
ENDMDL
MODEL      170
REMARK 921   NORMALIZED FREE ENERGY PREDICTED BY IDOCK:   -3.72 KCAL/MOL
REMARK 922        TOTAL FREE ENERGY PREDICTED BY IDOCK:   -5.77 KCAL/MOL
REMARK 923 INTER-LIGAND FREE ENERGY PREDICTED BY IDOCK:   -4.93 KCAL/MOL
REMARK 924 INTRA-LIGAND FREE ENERGY PREDICTED BY IDOCK:   -0.84 KCAL/MOL
REMARK 927      BINDING AFFINITY PREDICTED BY RF-SCORE:    0.00 PKD
ROOT
HETATM    1  O   UNL     1     -11.292  13.626  68.695  1.00  0.00    -0.250 OA 
HETATM    2  C   UNL     1     -11.309  14.293  67.531  1.00  0.00    -0.326 C  
HETATM    3  O   UNL     1     -12.320  14.341  66.842  1.00  0.00    -0.408 OA 
HETATM    4  C   UNL     1     -10.106  15.098  67.161  1.00  0.00    -0.239 A  
HETATM    5  C   UNL     1     -10.413  16.312  66.507  1.00  0.00    -0.290 A  
HETATM    6  C   UNL     1      -9.412  17.159  66.034  1.00  0.00    -0.167 A  
HETATM    7  C   UNL     1      -8.080  16.815  66.210  1.00  0.00    -0.365 A  
HETATM    8  C   UNL     1      -7.750  15.623  66.860  1.00  0.00    -0.238 A  
HETATM    9  C   UNL     1      -8.752  14.744  67.322  1.00  0.00    -0.226 A  
ENDROOT
BRANCH   9  10
HETATM   10  C   UNL     1      -8.316  13.513  68.032  1.00  0.00    -0.168 C  
HETATM   11  O   UNL     1      -7.555  13.662  68.982  1.00  0.00    -0.064 OA 
HETATM   12  N   UNL     1      -8.764  12.302  67.520  1.00  0.00    -0.167 N  
HETATM   13  H   UNL     1      -9.388  12.349  66.715  1.00  0.00     0.000 HD 
BRANCH  12  14
HETATM   14  C   UNL     1      -8.444  11.008  68.000  1.00  0.00    -0.129 A  
HETATM   15  C   UNL     1      -7.418  10.218  67.476  1.00  0.00    -0.090 A  
HETATM   16  C   UNL     1      -7.165   8.935  67.980  1.00  0.00    -0.083 A  
HETATM   17  C   UNL     1      -7.939   8.434  69.027  1.00  0.00    -0.111 A  
HETATM   18  C   UNL     1      -9.213  10.492  69.055  1.00  0.00    -0.193 A  
HETATM   19  C   UNL     1      -8.972   9.206  69.563  1.00  0.00    -0.151 A  
BRANCH  17  20
HETATM   20  S   UNL     1      -7.686   6.756  69.588  1.00  0.00    -0.112 S  
HETATM   21  O   UNL     1      -7.268   6.807  70.975  1.00  0.00    -0.074 OA 
HETATM   22  O   UNL     1      -6.861   6.111  68.590  1.00  0.00    -0.065 OA 
BRANCH  20  23
HETATM   23  N   UNL     1      -9.217   6.045  69.467  1.00  0.00    -0.136 N  
HETATM   24  H   UNL     1      -9.922   6.098  70.203  1.00  0.00     0.000 HD 
BRANCH  23  25
HETATM   25  C   UNL     1      -9.417   5.372  68.244  1.00  0.00    -0.119 A  
HETATM   26  N   UNL     1      -9.212   4.080  68.216  1.00  0.00    -0.138 NA 
HETATM   27  C   UNL     1      -9.475   3.612  66.942  1.00  0.00    -0.187 A  
HETATM   28  C   UNL     1      -9.972   4.546  66.057  1.00  0.00    -0.248 A  
HETATM   29  S   UNL     1     -10.043   6.081  66.824  1.00  0.00    -0.191 SA 
ENDBRANCH  23  25
ENDBRANCH  20  23
ENDBRANCH  17  20
ENDBRANCH  12  14
ENDBRANCH   9  10
TORSDOF 5
ENDMDL
MODEL      171
REMARK 921   NORMALIZED FREE ENERGY PREDICTED BY IDOCK:   -3.50 KCAL/MOL
REMARK 922        TOTAL FREE ENERGY PREDICTED BY IDOCK:   -5.49 KCAL/MOL
REMARK 923 INTER-LIGAND FREE ENERGY PREDICTED BY IDOCK:   -4.67 KCAL/MOL
REMARK 924 INTRA-LIGAND FREE ENERGY PREDICTED BY IDOCK:   -0.82 KCAL/MOL
REMARK 927      BINDING AFFINITY PREDICTED BY RF-SCORE:    0.00 PKD
ROOT
HETATM    1  O   UNL     1     -11.145   7.648  67.070  1.00  0.00    -0.171 OA 
HETATM    2  C   UNL     1     -10.412   6.529  67.172  1.00  0.00    -0.287 C  
HETATM    3  O   UNL     1     -10.620   5.713  68.061  1.00  0.00    -0.221 OA 
HETATM    4  C   UNL     1      -9.427   6.230  66.090  1.00  0.00    -0.092 A  
HETATM    5  C   UNL     1      -9.328   4.857  65.774  1.00  0.00    -0.165 A  
HETATM    6  C   UNL     1      -8.413   4.389  64.831  1.00  0.00    -0.126 A  
HETATM    7  C   UNL     1      -7.581   5.285  64.178  1.00  0.00    -0.071 A  
HETATM    8  C   UNL     1      -7.663   6.649  64.468  1.00  0.00    -0.112 A  
HETATM    9  C   UNL     1      -8.567   7.135  65.437  1.00  0.00    -0.046 A  
ENDROOT
BRANCH   9  10
HETATM   10  C   UNL     1      -8.614   8.603  65.661  1.00  0.00    -0.168 C  
HETATM   11  O   UNL     1      -9.003   9.294  64.726  1.00  0.00    -0.205 OA 
HETATM   12  N   UNL     1      -8.160   9.064  66.890  1.00  0.00    -0.111 N  
HETATM   13  H   UNL     1      -7.859   8.358  67.561  1.00  0.00     0.000 HD 
BRANCH  12  14
HETATM   14  C   UNL     1      -8.070  10.415  67.308  1.00  0.00    -0.114 A  
HETATM   15  C   UNL     1      -9.137  11.130  67.857  1.00  0.00    -0.150 A  
HETATM   16  C   UNL     1      -8.992  12.473  68.231  1.00  0.00    -0.178 A  
HETATM   17  C   UNL     1      -7.762  13.111  68.065  1.00  0.00    -0.146 A  
HETATM   18  C   UNL     1      -6.838  11.070  67.150  1.00  0.00    -0.098 A  
HETATM   19  C   UNL     1      -6.682  12.416  67.516  1.00  0.00    -0.146 A  
BRANCH  17  20
HETATM   20  S   UNL     1      -7.613  14.853  68.438  1.00  0.00    -0.121 S  
HETATM   21  O   UNL     1      -7.257  15.543  67.214  1.00  0.00    -0.197 OA 
HETATM   22  O   UNL     1      -6.774  14.949  69.612  1.00  0.00    -0.147 OA 
BRANCH  20  23
HETATM   23  N   UNL     1      -9.168  15.304  68.930  1.00  0.00    -0.199 N  
HETATM   24  H   UNL     1      -9.732  14.759  69.581  1.00  0.00     0.000 HD 
BRANCH  23  25
HETATM   25  C   UNL     1      -9.603  16.512  68.346  1.00  0.00    -0.233 A  
HETATM   26  N   UNL     1      -9.223  17.633  68.904  1.00  0.00    -0.200 NA 
HETATM   27  C   UNL     1      -9.737  18.691  68.179  1.00  0.00    -0.336 A  
HETATM   28  C   UNL     1     -10.412  18.349  67.026  1.00  0.00    -0.399 A  
HETATM   29  S   UNL     1     -10.471  16.639  66.883  1.00  0.00    -0.230 SA 
ENDBRANCH  23  25
ENDBRANCH  20  23
ENDBRANCH  17  20
ENDBRANCH  12  14
ENDBRANCH   9  10
TORSDOF 5
ENDMDL
MODEL      172
REMARK 921   NORMALIZED FREE ENERGY PREDICTED BY IDOCK:   -3.46 KCAL/MOL
REMARK 922        TOTAL FREE ENERGY PREDICTED BY IDOCK:   -5.44 KCAL/MOL
REMARK 923 INTER-LIGAND FREE ENERGY PREDICTED BY IDOCK:   -5.17 KCAL/MOL
REMARK 924 INTRA-LIGAND FREE ENERGY PREDICTED BY IDOCK:   -0.27 KCAL/MOL
REMARK 927      BINDING AFFINITY PREDICTED BY RF-SCORE:    0.00 PKD
ROOT
HETATM    1  O   UNL     1     -10.862  14.738  70.362  1.00  0.00    -0.133 OA 
HETATM    2  C   UNL     1     -11.362  15.584  69.449  1.00  0.00    -0.316 C  
HETATM    3  O   UNL     1     -12.491  16.044  69.562  1.00  0.00    -0.090 OA 
HETATM    4  C   UNL     1     -10.458  16.066  68.362  1.00  0.00    -0.263 A  
HETATM    5  C   UNL     1     -10.669  17.415  68.003  1.00  0.00    -0.359 A  
HETATM    6  C   UNL     1      -9.958  18.014  66.963  1.00  0.00    -0.330 A  
HETATM    7  C   UNL     1      -9.013  17.278  66.265  1.00  0.00    -0.250 A  
HETATM    8  C   UNL     1      -8.780  15.943  66.605  1.00  0.00    -0.324 A  
HETATM    9  C   UNL     1      -9.509  15.317  67.638  1.00  0.00    -0.205 A  
ENDROOT
BRANCH   9  10
HETATM   10  C   UNL     1      -9.177  13.904  67.959  1.00  0.00    -0.193 C  
HETATM   11  O   UNL     1      -8.017  13.667  68.279  1.00  0.00    -0.134 OA 
HETATM   12  N   UNL     1     -10.196  12.971  67.812  1.00  0.00    -0.223 N  
HETATM   13  H   UNL     1     -11.107  13.331  67.528  1.00  0.00     0.000 HD 
BRANCH  12  14
HETATM   14  C   UNL     1     -10.101  11.572  68.016  1.00  0.00    -0.186 A  
HETATM   15  C   UNL     1     -10.926  10.639  67.385  1.00  0.00    -0.361 A  
HETATM   16  C   UNL     1     -10.798   9.268  67.646  1.00  0.00    -0.188 A  
HETATM   17  C   UNL     1      -9.827   8.819  68.541  1.00  0.00    -0.168 A  
HETATM   18  C   UNL     1      -9.126  11.105  68.912  1.00  0.00    -0.098 A  
HETATM   19  C   UNL     1      -8.992   9.735  69.184  1.00  0.00    -0.161 A  
BRANCH  17  20
HETATM   20  S   UNL     1      -9.743   7.082  68.955  1.00  0.00    -0.145 S  
HETATM   21  O   UNL     1     -10.711   6.825  70.003  1.00  0.00    -0.221 OA 
HETATM   22  O   UNL     1      -8.342   6.776  69.151  1.00  0.00    -0.122 OA 
BRANCH  20  23
HETATM   23  N   UNL     1     -10.204   6.295  67.530  1.00  0.00    -0.152 N  
HETATM   24  H   UNL     1     -11.148   6.335  67.145  1.00  0.00     0.000 HD 
BRANCH  23  25
HETATM   25  C   UNL     1      -9.148   5.577  66.930  1.00  0.00    -0.115 A  
HETATM   26  N   UNL     1      -8.965   4.335  67.299  1.00  0.00    -0.117 NA 
HETATM   27  C   UNL     1      -7.901   3.810  66.590  1.00  0.00    -0.088 A  
HETATM   28  C   UNL     1      -7.365   4.635  65.625  1.00  0.00    -0.077 A  
HETATM   29  S   UNL     1      -8.171   6.151  65.655  1.00  0.00    -0.146 SA 
ENDBRANCH  23  25
ENDBRANCH  20  23
ENDBRANCH  17  20
ENDBRANCH  12  14
ENDBRANCH   9  10
TORSDOF 5
ENDMDL
MODEL      173
REMARK 921   NORMALIZED FREE ENERGY PREDICTED BY IDOCK:   -3.44 KCAL/MOL
REMARK 922        TOTAL FREE ENERGY PREDICTED BY IDOCK:   -5.41 KCAL/MOL
REMARK 923 INTER-LIGAND FREE ENERGY PREDICTED BY IDOCK:   -4.81 KCAL/MOL
REMARK 924 INTRA-LIGAND FREE ENERGY PREDICTED BY IDOCK:   -0.60 KCAL/MOL
REMARK 927      BINDING AFFINITY PREDICTED BY RF-SCORE:    0.00 PKD
ROOT
HETATM    1  O   UNL     1      -7.628   6.800  64.580  1.00  0.00    -0.090 OA 
HETATM    2  C   UNL     1      -7.932   5.819  63.717  1.00  0.00    -0.120 C  
HETATM    3  O   UNL     1      -8.408   6.068  62.617  1.00  0.00    -0.104 OA 
HETATM    4  C   UNL     1      -7.542   4.422  64.071  1.00  0.00    -0.071 A  
HETATM    5  C   UNL     1      -7.111   3.654  62.966  1.00  0.00    -0.048 A  
HETATM    6  C   UNL     1      -6.769   2.309  63.101  1.00  0.00    -0.026 A  
HETATM    7  C   UNL     1      -6.843   1.702  64.346  1.00  0.00    -0.034 A  
HETATM    8  C   UNL     1      -7.260   2.442  65.456  1.00  0.00    -0.061 A  
HETATM    9  C   UNL     1      -7.632   3.797  65.330  1.00  0.00    -0.081 A  
ENDROOT
BRANCH   9  10
HETATM   10  C   UNL     1      -8.031   4.519  66.566  1.00  0.00    -0.103 C  
HETATM   11  O   UNL     1      -7.137   5.066  67.202  1.00  0.00    -0.066 OA 
HETATM   12  N   UNL     1      -9.374   4.461  66.920  1.00  0.00    -0.141 N  
HETATM   13  H   UNL     1      -9.992   3.955  66.286  1.00  0.00     0.000 HD 
BRANCH  12  14
HETATM   14  C   UNL     1      -9.973   5.031  68.070  1.00  0.00    -0.130 A  
HETATM   15  C   UNL     1     -10.860   6.110  68.029  1.00  0.00    -0.398 A  
HETATM   16  C   UNL     1     -11.402   6.645  69.205  1.00  0.00    -0.301 A  
HETATM   17  C   UNL     1     -11.065   6.091  70.441  1.00  0.00    -0.329 A  
HETATM   18  C   UNL     1      -9.644   4.483  69.320  1.00  0.00    -0.258 A  
HETATM   19  C   UNL     1     -10.177   5.014  70.505  1.00  0.00    -0.316 A  
BRANCH  17  20
HETATM   20  S   UNL     1     -11.670   6.848  71.943  1.00  0.00    -0.313 S  
HETATM   21  O   UNL     1     -11.213   6.048  73.062  1.00  0.00    -0.254 OA 
HETATM   22  O   UNL     1     -13.080   7.093  71.737  1.00  0.00    -0.356 OA 
BRANCH  20  23
HETATM   23  N   UNL     1     -10.924   8.366  71.969  1.00  0.00    -0.299 N  
HETATM   24  H   UNL     1     -11.437   9.246  71.909  1.00  0.00     0.000 HD 
BRANCH  23  25
HETATM   25  C   UNL     1      -9.520   8.290  72.083  1.00  0.00    -0.258 A  
HETATM   26  N   UNL     1      -8.803   8.630  71.044  1.00  0.00    -0.172 NA 
HETATM   27  C   UNL     1      -7.464   8.501  71.361  1.00  0.00    -0.102 A  
HETATM   28  C   UNL     1      -7.195   8.161  72.671  1.00  0.00    -0.102 A  
HETATM   29  S   UNL     1      -8.670   7.922  73.516  1.00  0.00    -0.273 SA 
ENDBRANCH  23  25
ENDBRANCH  20  23
ENDBRANCH  17  20
ENDBRANCH  12  14
ENDBRANCH   9  10
TORSDOF 5
ENDMDL
MODEL      174
REMARK 921   NORMALIZED FREE ENERGY PREDICTED BY IDOCK:   -3.39 KCAL/MOL
REMARK 922        TOTAL FREE ENERGY PREDICTED BY IDOCK:   -5.35 KCAL/MOL
REMARK 923 INTER-LIGAND FREE ENERGY PREDICTED BY IDOCK:   -4.78 KCAL/MOL
REMARK 924 INTRA-LIGAND FREE ENERGY PREDICTED BY IDOCK:   -0.58 KCAL/MOL
REMARK 927      BINDING AFFINITY PREDICTED BY RF-SCORE:    0.00 PKD
ROOT
HETATM    1  O   UNL     1     -10.407   5.564  67.819  1.00  0.00    -0.188 OA 
HETATM    2  C   UNL     1      -9.649   4.496  67.529  1.00  0.00    -0.172 C  
HETATM    3  O   UNL     1      -9.710   3.474  68.200  1.00  0.00    -0.138 OA 
HETATM    4  C   UNL     1      -8.831   4.530  66.280  1.00  0.00    -0.113 A  
HETATM    5  C   UNL     1      -8.760   3.287  65.612  1.00  0.00    -0.124 A  
HETATM    6  C   UNL     1      -7.988   3.118  64.463  1.00  0.00    -0.082 A  
HETATM    7  C   UNL     1      -7.275   4.192  63.951  1.00  0.00    -0.051 A  
HETATM    8  C   UNL     1      -7.335   5.434  64.588  1.00  0.00    -0.064 A  
HETATM    9  C   UNL     1      -8.092   5.613  65.765  1.00  0.00    -0.114 A  
ENDROOT
BRANCH   9  10
HETATM   10  C   UNL     1      -8.128   6.974  66.361  1.00  0.00    -0.112 C  
HETATM   11  O   UNL     1      -7.206   7.276  67.110  1.00  0.00    -0.087 OA 
HETATM   12  N   UNL     1      -9.234   7.760  66.061  1.00  0.00    -0.352 N  
HETATM   13  H   UNL     1      -9.922   7.358  65.425  1.00  0.00     0.000 HD 
BRANCH  12  14
HETATM   14  C   UNL     1      -9.504   9.064  66.546  1.00  0.00    -0.206 A  
HETATM   15  C   UNL     1     -10.778   9.508  66.907  1.00  0.00    -0.184 A  
HETATM   16  C   UNL     1     -10.986  10.819  67.359  1.00  0.00    -0.361 A  
HETATM   17  C   UNL     1      -9.907  11.697  67.462  1.00  0.00    -0.188 A  
HETATM   18  C   UNL     1      -8.428   9.958  66.657  1.00  0.00    -0.126 A  
HETATM   19  C   UNL     1      -8.625  11.274  67.104  1.00  0.00    -0.147 A  
BRANCH  17  20
HETATM   20  S   UNL     1     -10.194  13.398  67.931  1.00  0.00    -0.246 S  
HETATM   21  O   UNL     1     -11.005  13.400  69.132  1.00  0.00    -0.237 OA 
HETATM   22  O   UNL     1     -10.641  14.080  66.736  1.00  0.00    -0.275 OA 
BRANCH  20  23
HETATM   23  N   UNL     1      -8.649  13.999  68.269  1.00  0.00    -0.175 N  
HETATM   24  H   UNL     1      -7.878  13.418  68.597  1.00  0.00     0.000 HD 
BRANCH  23  25
HETATM   25  C   UNL     1      -8.538  15.388  68.050  1.00  0.00    -0.151 A  
HETATM   26  N   UNL     1      -7.677  15.800  67.155  1.00  0.00    -0.199 NA 
HETATM   27  C   UNL     1      -7.732  17.179  67.081  1.00  0.00    -0.177 A  
HETATM   28  C   UNL     1      -8.707  17.776  67.852  1.00  0.00    -0.251 A  
HETATM   29  S   UNL     1      -9.537  16.577  68.757  1.00  0.00    -0.256 SA 
ENDBRANCH  23  25
ENDBRANCH  20  23
ENDBRANCH  17  20
ENDBRANCH  12  14
ENDBRANCH   9  10
TORSDOF 5
ENDMDL
MODEL      175
REMARK 921   NORMALIZED FREE ENERGY PREDICTED BY IDOCK:   -3.38 KCAL/MOL
REMARK 922        TOTAL FREE ENERGY PREDICTED BY IDOCK:   -5.33 KCAL/MOL
REMARK 923 INTER-LIGAND FREE ENERGY PREDICTED BY IDOCK:   -4.64 KCAL/MOL
REMARK 924 INTRA-LIGAND FREE ENERGY PREDICTED BY IDOCK:   -0.69 KCAL/MOL
REMARK 927      BINDING AFFINITY PREDICTED BY RF-SCORE:    0.00 PKD
ROOT
HETATM    1  O   UNL     1      -7.853   8.196  70.518  1.00  0.00    -0.082 OA 
HETATM    2  C   UNL     1      -6.938   7.291  70.138  1.00  0.00    -0.060 C  
HETATM    3  O   UNL     1      -6.307   6.642  70.963  1.00  0.00    -0.039 OA 
HETATM    4  C   UNL     1      -6.806   6.989  68.682  1.00  0.00    -0.076 A  
HETATM    5  C   UNL     1      -6.544   5.629  68.404  1.00  0.00    -0.052 A  
HETATM    6  C   UNL     1      -6.329   5.177  67.103  1.00  0.00    -0.036 A  
HETATM    7  C   UNL     1      -6.379   6.075  66.047  1.00  0.00    -0.042 A  
HETATM    8  C   UNL     1      -6.644   7.425  66.294  1.00  0.00    -0.049 A  
HETATM    9  C   UNL     1      -6.839   7.900  67.608  1.00  0.00    -0.070 A  
ENDROOT
BRANCH   9  10
HETATM   10  C   UNL     1      -7.148   9.344  67.780  1.00  0.00    -0.082 C  
HETATM   11  O   UNL     1      -6.227  10.069  68.139  1.00  0.00    -0.053 OA 
HETATM   12  N   UNL     1      -8.466   9.731  67.574  1.00  0.00    -0.121 N  
HETATM   13  H   UNL     1      -9.118   9.001  67.286  1.00  0.00     0.000 HD 
BRANCH  12  14
HETATM   14  C   UNL     1      -9.000  11.035  67.723  1.00  0.00    -0.140 A  
HETATM   15  C   UNL     1     -10.068  11.345  68.569  1.00  0.00    -0.211 A  
HETATM   16  C   UNL     1     -10.567  12.651  68.655  1.00  0.00    -0.245 A  
HETATM   17  C   UNL     1      -9.987  13.668  67.896  1.00  0.00    -0.244 A  
HETATM   18  C   UNL     1      -8.425  12.069  66.967  1.00  0.00    -0.183 A  
HETATM   19  C   UNL     1      -8.920  13.380  67.042  1.00  0.00    -0.228 A  
BRANCH  17  20
HETATM   20  S   UNL     1     -10.698  15.307  67.924  1.00  0.00    -0.283 S  
HETATM   21  O   UNL     1     -10.515  15.851  69.256  1.00  0.00    -0.218 OA 
HETATM   22  O   UNL     1     -12.021  15.189  67.349  1.00  0.00    -0.200 OA 
BRANCH  20  23
HETATM   23  N   UNL     1      -9.773  16.178  66.807  1.00  0.00    -0.233 N  
HETATM   24  H   UNL     1      -9.339  15.757  65.986  1.00  0.00     0.000 HD 
BRANCH  23  25
HETATM   25  C   UNL     1      -9.665  17.547  67.129  1.00  0.00    -0.279 A  
HETATM   26  N   UNL     1     -10.651  18.336  66.788  1.00  0.00    -0.351 NA 
HETATM   27  C   UNL     1     -10.360  19.622  67.203  1.00  0.00    -0.457 A  
HETATM   28  C   UNL     1      -9.203  19.761  67.940  1.00  0.00    -0.340 A  
HETATM   29  S   UNL     1      -8.412  18.242  68.056  1.00  0.00    -0.268 SA 
ENDBRANCH  23  25
ENDBRANCH  20  23
ENDBRANCH  17  20
ENDBRANCH  12  14
ENDBRANCH   9  10
TORSDOF 5
ENDMDL
MODEL      176
REMARK 921   NORMALIZED FREE ENERGY PREDICTED BY IDOCK:   -3.36 KCAL/MOL
REMARK 922        TOTAL FREE ENERGY PREDICTED BY IDOCK:   -5.30 KCAL/MOL
REMARK 923 INTER-LIGAND FREE ENERGY PREDICTED BY IDOCK:   -4.53 KCAL/MOL
REMARK 924 INTRA-LIGAND FREE ENERGY PREDICTED BY IDOCK:   -0.78 KCAL/MOL
REMARK 927      BINDING AFFINITY PREDICTED BY RF-SCORE:    0.00 PKD
ROOT
HETATM    1  O   UNL     1      -6.218  12.467  68.399  1.00  0.00    -0.053 OA 
HETATM    2  C   UNL     1      -6.793  13.610  68.803  1.00  0.00    -0.107 C  
HETATM    3  O   UNL     1      -6.207  14.386  69.547  1.00  0.00    -0.105 OA 
HETATM    4  C   UNL     1      -8.110  13.987  68.210  1.00  0.00    -0.148 A  
HETATM    5  C   UNL     1      -8.256  15.373  67.980  1.00  0.00    -0.146 A  
HETATM    6  C   UNL     1      -9.446  15.910  67.489  1.00  0.00    -0.219 A  
HETATM    7  C   UNL     1     -10.514  15.072  67.209  1.00  0.00    -0.265 A  
HETATM    8  C   UNL     1     -10.393  13.696  67.421  1.00  0.00    -0.244 A  
HETATM    9  C   UNL     1      -9.205  13.141  67.940  1.00  0.00    -0.207 A  
ENDROOT
BRANCH   9  10
HETATM   10  C   UNL     1      -9.147  11.665  68.104  1.00  0.00    -0.183 C  
HETATM   11  O   UNL     1      -9.519  10.987  67.152  1.00  0.00    -0.163 OA 
HETATM   12  N   UNL     1      -8.731  11.187  69.340  1.00  0.00    -0.356 N  
HETATM   13  H   UNL     1      -8.463  11.886  70.034  1.00  0.00     0.000 HD 
BRANCH  12  14
HETATM   14  C   UNL     1      -8.641   9.831  69.739  1.00  0.00    -0.201 A  
HETATM   15  C   UNL     1      -7.601   8.978  69.361  1.00  0.00    -0.078 A  
HETATM   16  C   UNL     1      -7.581   7.638  69.770  1.00  0.00    -0.093 A  
HETATM   17  C   UNL     1      -8.606   7.141  70.575  1.00  0.00    -0.144 A  
HETATM   18  C   UNL     1      -9.665   9.317  70.552  1.00  0.00    -0.316 A  
HETATM   19  C   UNL     1      -9.657   7.975  70.962  1.00  0.00    -0.184 A  
BRANCH  17  20
HETATM   20  S   UNL     1      -8.634   5.405  70.999  1.00  0.00    -0.125 S  
HETATM   21  O   UNL     1      -8.900   5.296  72.420  1.00  0.00    -0.127 OA 
HETATM   22  O   UNL     1      -7.439   4.825  70.424  1.00  0.00    -0.049 OA 
BRANCH  20  23
HETATM   23  N   UNL     1      -9.934   4.784  70.113  1.00  0.00    -0.240 N  
HETATM   24  H   UNL     1     -10.905   4.849  70.418  1.00  0.00     0.000 HD 
BRANCH  23  25
HETATM   25  C   UNL     1      -9.537   4.168  68.908  1.00  0.00    -0.152 A  
HETATM   26  N   UNL     1      -9.428   2.864  68.894  1.00  0.00    -0.155 NA 
HETATM   27  C   UNL     1      -9.046   2.459  67.629  1.00  0.00    -0.178 A  
HETATM   28  C   UNL     1      -8.971   3.460  66.683  1.00  0.00    -0.152 A  
HETATM   29  S   UNL     1      -9.319   4.972  67.419  1.00  0.00    -0.133 SA 
ENDBRANCH  23  25
ENDBRANCH  20  23
ENDBRANCH  17  20
ENDBRANCH  12  14
ENDBRANCH   9  10
TORSDOF 5
ENDMDL
MODEL      177
REMARK 921   NORMALIZED FREE ENERGY PREDICTED BY IDOCK:   -3.35 KCAL/MOL
REMARK 922        TOTAL FREE ENERGY PREDICTED BY IDOCK:   -5.30 KCAL/MOL
REMARK 923 INTER-LIGAND FREE ENERGY PREDICTED BY IDOCK:   -4.96 KCAL/MOL
REMARK 924 INTRA-LIGAND FREE ENERGY PREDICTED BY IDOCK:   -0.33 KCAL/MOL
REMARK 927      BINDING AFFINITY PREDICTED BY RF-SCORE:    0.00 PKD
ROOT
HETATM    1  O   UNL     1     -11.087  14.464  69.524  1.00  0.00    -0.251 OA 
HETATM    2  C   UNL     1     -11.390  15.741  69.248  1.00  0.00    -0.350 C  
HETATM    3  O   UNL     1     -12.494  16.202  69.507  1.00  0.00    -0.051 OA 
HETATM    4  C   UNL     1     -10.301  16.632  68.747  1.00  0.00    -0.301 A  
HETATM    5  C   UNL     1     -10.375  17.954  69.238  1.00  0.00    -0.001 A  
HETATM    6  C   UNL     1      -9.477  18.938  68.826  1.00  0.00    -0.407 A  
HETATM    7  C   UNL     1      -8.478  18.620  67.918  1.00  0.00    -0.297 A  
HETATM    8  C   UNL     1      -8.379  17.318  67.422  1.00  0.00    -0.211 A  
HETATM    9  C   UNL     1      -9.295  16.318  67.811  1.00  0.00    -0.216 A  
ENDROOT
BRANCH   9  10
HETATM   10  C   UNL     1      -9.098  14.951  67.263  1.00  0.00    -0.201 C  
HETATM   11  O   UNL     1      -9.336  14.792  66.070  1.00  0.00    -0.284 OA 
HETATM   12  N   UNL     1      -8.717  13.963  68.162  1.00  0.00    -0.175 N  
HETATM   13  H   UNL     1      -8.567  14.257  69.128  1.00  0.00     0.000 HD 
BRANCH  12  14
HETATM   14  C   UNL     1      -8.515  12.590  67.879  1.00  0.00    -0.171 A  
HETATM   15  C   UNL     1      -7.323  11.910  68.140  1.00  0.00    -0.092 A  
HETATM   16  C   UNL     1      -7.177  10.555  67.815  1.00  0.00    -0.085 A  
HETATM   17  C   UNL     1      -8.238   9.863  67.231  1.00  0.00    -0.121 A  
HETATM   18  C   UNL     1      -9.575  11.879  67.293  1.00  0.00    -0.181 A  
HETATM   19  C   UNL     1      -9.438  10.523  66.959  1.00  0.00    -0.188 A  
BRANCH  17  20
HETATM   20  S   UNL     1      -8.008   8.166  66.716  1.00  0.00    -0.104 S  
HETATM   21  O   UNL     1      -6.734   8.076  66.030  1.00  0.00    -0.052 OA 
HETATM   22  O   UNL     1      -9.233   7.771  66.055  1.00  0.00    -0.161 OA 
BRANCH  20  23
HETATM   23  N   UNL     1      -7.953   7.298  68.167  1.00  0.00    -0.121 N  
HETATM   24  H   UNL     1      -7.124   6.801  68.493  1.00  0.00     0.000 HD 
BRANCH  23  25
HETATM   25  C   UNL     1      -9.170   7.333  68.878  1.00  0.00    -0.141 A  
HETATM   26  N   UNL     1      -9.439   8.406  69.577  1.00  0.00    -0.165 NA 
HETATM   27  C   UNL     1     -10.672   8.249  70.181  1.00  0.00    -0.239 A  
HETATM   28  C   UNL     1     -11.358   7.101  69.843  1.00  0.00    -0.163 A  
HETATM   29  S   UNL     1     -10.393   6.148  68.790  1.00  0.00    -0.236 SA 
ENDBRANCH  23  25
ENDBRANCH  20  23
ENDBRANCH  17  20
ENDBRANCH  12  14
ENDBRANCH   9  10
TORSDOF 5
ENDMDL
MODEL      178
REMARK 921   NORMALIZED FREE ENERGY PREDICTED BY IDOCK:   -3.35 KCAL/MOL
REMARK 922        TOTAL FREE ENERGY PREDICTED BY IDOCK:   -5.29 KCAL/MOL
REMARK 923 INTER-LIGAND FREE ENERGY PREDICTED BY IDOCK:   -4.61 KCAL/MOL
REMARK 924 INTRA-LIGAND FREE ENERGY PREDICTED BY IDOCK:   -0.67 KCAL/MOL
REMARK 927      BINDING AFFINITY PREDICTED BY RF-SCORE:    0.00 PKD
ROOT
HETATM    1  O   UNL     1      -7.900   5.886  65.464  1.00  0.00    -0.094 OA 
HETATM    2  C   UNL     1      -8.910   5.123  65.907  1.00  0.00    -0.142 C  
HETATM    3  O   UNL     1      -9.748   4.671  65.137  1.00  0.00    -0.162 OA 
HETATM    4  C   UNL     1      -8.910   4.716  67.344  1.00  0.00    -0.110 A  
HETATM    5  C   UNL     1      -9.381   3.402  67.564  1.00  0.00    -0.248 A  
HETATM    6  C   UNL     1      -9.510   2.878  68.849  1.00  0.00    -0.174 A  
HETATM    7  C   UNL     1      -9.163   3.654  69.945  1.00  0.00    -0.215 A  
HETATM    8  C   UNL     1      -8.688   4.954  69.754  1.00  0.00    -0.110 A  
HETATM    9  C   UNL     1      -8.575   5.506  68.461  1.00  0.00    -0.102 A  
ENDROOT
BRANCH   9  10
HETATM   10  C   UNL     1      -8.030   6.884  68.344  1.00  0.00    -0.122 C  
HETATM   11  O   UNL     1      -6.810   7.001  68.369  1.00  0.00    -0.068 OA 
HETATM   12  N   UNL     1      -8.954   7.920  68.275  1.00  0.00    -0.133 N  
HETATM   13  H   UNL     1      -9.939   7.655  68.275  1.00  0.00     0.000 HD 
BRANCH  12  14
HETATM   14  C   UNL     1      -8.669   9.306  68.205  1.00  0.00    -0.125 A  
HETATM   15  C   UNL     1      -8.332  10.086  69.314  1.00  0.00    -0.154 A  
HETATM   16  C   UNL     1      -8.085  11.459  69.183  1.00  0.00     0.074 A  
HETATM   17  C   UNL     1      -8.163  12.063  67.928  1.00  0.00    -0.153 A  
HETATM   18  C   UNL     1      -8.743   9.927  66.948  1.00  0.00    -0.135 A  
HETATM   19  C   UNL     1      -8.502  11.303  66.807  1.00  0.00    -0.161 A  
BRANCH  17  20
HETATM   20  S   UNL     1      -7.958  13.833  67.785  1.00  0.00    -0.186 S  
HETATM   21  O   UNL     1      -6.679  14.085  67.152  1.00  0.00    -0.168 OA 
HETATM   22  O   UNL     1      -8.259  14.386  69.088  1.00  0.00    -0.085 OA 
BRANCH  20  23
HETATM   23  N   UNL     1      -9.218  14.314  66.765  1.00  0.00    -0.259 N  
HETATM   24  H   UNL     1      -9.713  13.675  66.142  1.00  0.00     0.000 HD 
BRANCH  23  25
HETATM   25  C   UNL     1      -9.515  15.690  66.865  1.00  0.00    -0.229 A  
HETATM   26  N   UNL     1      -8.937  16.503  66.018  1.00  0.00    -0.462 NA 
HETATM   27  C   UNL     1      -9.366  17.792  66.271  1.00  0.00    -0.201 A  
HETATM   28  C   UNL     1     -10.339  17.914  67.240  1.00  0.00    -0.369 A  
HETATM   29  S   UNL     1     -10.676  16.370  67.912  1.00  0.00    -0.321 SA 
ENDBRANCH  23  25
ENDBRANCH  20  23
ENDBRANCH  17  20
ENDBRANCH  12  14
ENDBRANCH   9  10
TORSDOF 5
ENDMDL
MODEL      179
REMARK 921   NORMALIZED FREE ENERGY PREDICTED BY IDOCK:   -3.34 KCAL/MOL
REMARK 922        TOTAL FREE ENERGY PREDICTED BY IDOCK:   -5.28 KCAL/MOL
REMARK 923 INTER-LIGAND FREE ENERGY PREDICTED BY IDOCK:   -4.42 KCAL/MOL
REMARK 924 INTRA-LIGAND FREE ENERGY PREDICTED BY IDOCK:   -0.86 KCAL/MOL
REMARK 927      BINDING AFFINITY PREDICTED BY RF-SCORE:    0.00 PKD
ROOT
HETATM    1  O   UNL     1     -10.011   6.091  71.236  1.00  0.00    -0.179 OA 
HETATM    2  C   UNL     1      -9.379   4.908  71.238  1.00  0.00    -0.150 C  
HETATM    3  O   UNL     1      -9.106   4.337  72.287  1.00  0.00    -0.114 OA 
HETATM    4  C   UNL     1      -9.142   4.231  69.929  1.00  0.00    -0.173 A  
HETATM    5  C   UNL     1      -9.279   2.826  69.980  1.00  0.00    -0.205 A  
HETATM    6  C   UNL     1      -9.032   2.026  68.865  1.00  0.00    -0.162 A  
HETATM    7  C   UNL     1      -8.649   2.615  67.669  1.00  0.00    -0.121 A  
HETATM    8  C   UNL     1      -8.513   4.003  67.590  1.00  0.00    -0.104 A  
HETATM    9  C   UNL     1      -8.736   4.823  68.716  1.00  0.00    -0.109 A  
ENDROOT
BRANCH   9  10
HETATM   10  C   UNL     1      -8.602   6.292  68.537  1.00  0.00    -0.114 C  
HETATM   11  O   UNL     1      -7.468   6.755  68.584  1.00  0.00    -0.094 OA 
HETATM   12  N   UNL     1      -9.779   7.015  68.390  1.00  0.00    -0.138 N  
HETATM   13  H   UNL     1     -10.647   6.480  68.381  1.00  0.00     0.000 HD 
BRANCH  12  14
HETATM   14  C   UNL     1      -9.899   8.421  68.251  1.00  0.00    -0.169 A  
HETATM   15  C   UNL     1      -9.474   9.128  67.125  1.00  0.00    -0.197 A  
HETATM   16  C   UNL     1      -9.599  10.522  67.057  1.00  0.00    -0.202 A  
HETATM   17  C   UNL     1     -10.167  11.221  68.123  1.00  0.00    -0.180 A  
HETATM   18  C   UNL     1     -10.470   9.137  69.315  1.00  0.00    -0.231 A  
HETATM   19  C   UNL     1     -10.596  10.534  69.260  1.00  0.00    -0.265 A  
BRANCH  17  20
HETATM   20  S   UNL     1     -10.221  13.008  68.078  1.00  0.00    -0.239 S  
HETATM   21  O   UNL     1     -11.550  13.425  68.480  1.00  0.00    -0.287 OA 
HETATM   22  O   UNL     1      -9.679  13.401  66.796  1.00  0.00    -0.247 OA 
BRANCH  20  23
HETATM   23  N   UNL     1      -9.085  13.484  69.238  1.00  0.00    -0.007 N  
HETATM   24  H   UNL     1      -9.100  13.162  70.206  1.00  0.00     0.000 HD 
BRANCH  23  25
HETATM   25  C   UNL     1      -8.115  14.372  68.728  1.00  0.00    -0.127 A  
HETATM   26  N   UNL     1      -6.983  13.866  68.310  1.00  0.00    -0.095 NA 
HETATM   27  C   UNL     1      -6.182  14.890  67.839  1.00  0.00    -0.160 A  
HETATM   28  C   UNL     1      -6.766  16.139  67.818  1.00  0.00    -0.148 A  
HETATM   29  S   UNL     1      -8.348  16.043  68.480  1.00  0.00    -0.202 SA 
ENDBRANCH  23  25
ENDBRANCH  20  23
ENDBRANCH  17  20
ENDBRANCH  12  14
ENDBRANCH   9  10
TORSDOF 5
ENDMDL
MODEL      180
REMARK 921   NORMALIZED FREE ENERGY PREDICTED BY IDOCK:   -3.32 KCAL/MOL
REMARK 922        TOTAL FREE ENERGY PREDICTED BY IDOCK:   -5.26 KCAL/MOL
REMARK 923 INTER-LIGAND FREE ENERGY PREDICTED BY IDOCK:   -4.54 KCAL/MOL
REMARK 924 INTRA-LIGAND FREE ENERGY PREDICTED BY IDOCK:   -0.72 KCAL/MOL
REMARK 927      BINDING AFFINITY PREDICTED BY RF-SCORE:    0.00 PKD
ROOT
HETATM    1  O   UNL     1     -11.273  12.782  66.028  1.00  0.00    -0.281 OA 
HETATM    2  C   UNL     1     -11.328  13.924  66.730  1.00  0.00    -0.333 C  
HETATM    3  O   UNL     1     -11.234  15.013  66.179  1.00  0.00    -0.342 OA 
HETATM    4  C   UNL     1     -11.649  13.843  68.186  1.00  0.00    -0.370 A  
HETATM    5  C   UNL     1     -12.465  14.899  68.649  1.00  0.00     0.179 A  
HETATM    6  C   UNL     1     -12.812  15.018  69.995  1.00  0.00    -0.118 A  
HETATM    7  C   UNL     1     -12.358  14.078  70.907  1.00  0.00    -0.443 A  
HETATM    8  C   UNL     1     -11.556  13.019  70.474  1.00  0.00     0.189 A  
HETATM    9  C   UNL     1     -11.176  12.899  69.120  1.00  0.00    -0.293 A  
ENDROOT
BRANCH   9  10
HETATM   10  C   UNL     1     -10.349  11.725  68.737  1.00  0.00    -0.179 C  
HETATM   11  O   UNL     1      -9.137  11.899  68.670  1.00  0.00    -0.144 OA 
HETATM   12  N   UNL     1     -11.029  10.552  68.433  1.00  0.00    -0.242 N  
HETATM   13  H   UNL     1     -12.044  10.574  68.529  1.00  0.00     0.000 HD 
BRANCH  12  14
HETATM   14  C   UNL     1     -10.458   9.329  68.004  1.00  0.00    -0.223 A  
HETATM   15  C   UNL     1     -10.170   9.033  66.669  1.00  0.00    -0.333 A  
HETATM   16  C   UNL     1      -9.627   7.794  66.304  1.00  0.00    -0.179 A  
HETATM   17  C   UNL     1      -9.357   6.838  67.284  1.00  0.00    -0.134 A  
HETATM   18  C   UNL     1     -10.179   8.358  68.979  1.00  0.00    -0.217 A  
HETATM   19  C   UNL     1      -9.640   7.112  68.624  1.00  0.00    -0.140 A  
BRANCH  17  20
HETATM   20  S   UNL     1      -8.770   5.220  66.801  1.00  0.00    -0.112 S  
HETATM   21  O   UNL     1      -9.468   4.234  67.603  1.00  0.00    -0.154 OA 
HETATM   22  O   UNL     1      -7.326   5.290  66.808  1.00  0.00    -0.083 OA 
BRANCH  20  23
HETATM   23  N   UNL     1      -9.230   5.081  65.179  1.00  0.00    -0.272 N  
HETATM   24  H   UNL     1     -10.159   5.322  64.835  1.00  0.00     0.000 HD 
BRANCH  23  25
HETATM   25  C   UNL     1      -8.194   4.598  64.352  1.00  0.00    -0.112 A  
HETATM   26  N   UNL     1      -7.758   5.380  63.398  1.00  0.00    -0.079 NA 
HETATM   27  C   UNL     1      -6.743   4.734  62.718  1.00  0.00    -0.030 A  
HETATM   28  C   UNL     1      -6.364   3.514  63.237  1.00  0.00    -0.022 A  
HETATM   29  S   UNL     1      -7.362   3.127  64.579  1.00  0.00    -0.072 SA 
ENDBRANCH  23  25
ENDBRANCH  20  23
ENDBRANCH  17  20
ENDBRANCH  12  14
ENDBRANCH   9  10
TORSDOF 5
ENDMDL
MODEL      181
REMARK 921   NORMALIZED FREE ENERGY PREDICTED BY IDOCK:   -3.30 KCAL/MOL
REMARK 922        TOTAL FREE ENERGY PREDICTED BY IDOCK:   -5.23 KCAL/MOL
REMARK 923 INTER-LIGAND FREE ENERGY PREDICTED BY IDOCK:   -4.76 KCAL/MOL
REMARK 924 INTRA-LIGAND FREE ENERGY PREDICTED BY IDOCK:   -0.47 KCAL/MOL
REMARK 927      BINDING AFFINITY PREDICTED BY RF-SCORE:    0.00 PKD
ROOT
HETATM    1  O   UNL     1      -6.849   6.304  64.968  1.00  0.00    -0.048 OA 
HETATM    2  C   UNL     1      -7.566   5.694  64.013  1.00  0.00    -0.077 C  
HETATM    3  O   UNL     1      -7.813   6.251  62.951  1.00  0.00    -0.090 OA 
HETATM    4  C   UNL     1      -7.937   4.261  64.215  1.00  0.00    -0.090 A  
HETATM    5  C   UNL     1      -7.901   3.491  63.031  1.00  0.00    -0.071 A  
HETATM    6  C   UNL     1      -8.278   2.148  63.022  1.00  0.00    -0.069 A  
HETATM    7  C   UNL     1      -8.692   1.543  64.199  1.00  0.00    -0.085 A  
HETATM    8  C   UNL     1      -8.729   2.281  65.385  1.00  0.00    -0.119 A  
HETATM    9  C   UNL     1      -8.374   3.646  65.405  1.00  0.00    -0.105 A  
ENDROOT
BRANCH   9  10
HETATM   10  C   UNL     1      -8.410   4.349  66.714  1.00  0.00    -0.105 C  
HETATM   11  O   UNL     1      -7.602   3.984  67.561  1.00  0.00    -0.068 OA 
HETATM   12  N   UNL     1      -9.393   5.317  66.879  1.00  0.00    -0.123 N  
HETATM   13  H   UNL     1      -9.996   5.497  66.077  1.00  0.00     0.000 HD 
BRANCH  12  14
HETATM   14  C   UNL     1      -9.645   6.078  68.047  1.00  0.00    -0.117 A  
HETATM   15  C   UNL     1      -8.888   7.188  68.428  1.00  0.00    -0.127 A  
HETATM   16  C   UNL     1      -9.173   7.888  69.608  1.00  0.00    -0.153 A  
HETATM   17  C   UNL     1     -10.235   7.482  70.417  1.00  0.00    -0.202 A  
HETATM   18  C   UNL     1     -10.713   5.683  68.869  1.00  0.00    -0.280 A  
HETATM   19  C   UNL     1     -11.004   6.373  70.056  1.00  0.00    -0.397 A  
BRANCH  17  20
HETATM   20  S   UNL     1     -10.524   8.307  71.976  1.00  0.00    -0.307 S  
HETATM   21  O   UNL     1      -9.595   9.416  72.074  1.00  0.00    -0.091 OA 
HETATM   22  O   UNL     1     -10.549   7.272  72.987  1.00  0.00    -0.260 OA 
BRANCH  20  23
HETATM   23  N   UNL     1     -12.109   8.885  71.850  1.00  0.00    -0.348 N  
HETATM   24  H   UNL     1     -12.927   8.352  72.148  1.00  0.00     0.000 HD 
BRANCH  23  25
HETATM   25  C   UNL     1     -12.182  10.178  71.292  1.00  0.00    -0.398 A  
HETATM   26  N   UNL     1     -11.598  10.380  70.139  1.00  0.00    -0.289 NA 
HETATM   27  C   UNL     1     -11.796  11.694  69.761  1.00  0.00    -0.357 A  
HETATM   28  C   UNL     1     -12.614  12.434  70.589  1.00  0.00    -0.153 A  
HETATM   29  S   UNL     1     -13.092  11.472  71.929  1.00  0.00    -0.234 SA 
ENDBRANCH  23  25
ENDBRANCH  20  23
ENDBRANCH  17  20
ENDBRANCH  12  14
ENDBRANCH   9  10
TORSDOF 5
ENDMDL
MODEL      182
REMARK 921   NORMALIZED FREE ENERGY PREDICTED BY IDOCK:   -3.29 KCAL/MOL
REMARK 922        TOTAL FREE ENERGY PREDICTED BY IDOCK:   -5.22 KCAL/MOL
REMARK 923 INTER-LIGAND FREE ENERGY PREDICTED BY IDOCK:   -5.24 KCAL/MOL
REMARK 924 INTRA-LIGAND FREE ENERGY PREDICTED BY IDOCK:    0.01 KCAL/MOL
REMARK 927      BINDING AFFINITY PREDICTED BY RF-SCORE:    0.00 PKD
ROOT
HETATM    1  O   UNL     1     -10.056  17.598  67.605  1.00  0.00    -0.310 OA 
HETATM    2  C   UNL     1      -9.370  18.749  67.667  1.00  0.00    -0.292 C  
HETATM    3  O   UNL     1      -9.816  19.781  67.181  1.00  0.00    -0.339 OA 
HETATM    4  C   UNL     1      -8.110  18.778  68.468  1.00  0.00    -0.379 A  
HETATM    5  C   UNL     1      -7.908  19.989  69.167  1.00  0.00     0.064 A  
HETATM    6  C   UNL     1      -6.753  20.216  69.916  1.00  0.00    -0.211 A  
HETATM    7  C   UNL     1      -5.778  19.233  69.989  1.00  0.00    -0.274 A  
HETATM    8  C   UNL     1      -5.957  18.023  69.313  1.00  0.00    -0.232 A  
HETATM    9  C   UNL     1      -7.109  17.789  68.532  1.00  0.00    -0.245 A  
ENDROOT
BRANCH   9  10
HETATM   10  C   UNL     1      -7.237  16.464  67.872  1.00  0.00    -0.137 C  
HETATM   11  O   UNL     1      -6.332  16.132  67.114  1.00  0.00    -0.199 OA 
HETATM   12  N   UNL     1      -8.397  15.745  68.130  1.00  0.00    -0.158 N  
HETATM   13  H   UNL     1      -9.060  16.165  68.781  1.00  0.00     0.000 HD 
BRANCH  12  14
HETATM   14  C   UNL     1      -8.756  14.488  67.583  1.00  0.00    -0.183 A  
HETATM   15  C   UNL     1      -9.233  14.316  66.282  1.00  0.00    -0.181 A  
HETATM   16  C   UNL     1      -9.593  13.048  65.805  1.00  0.00    -0.073 A  
HETATM   17  C   UNL     1      -9.466  11.933  66.634  1.00  0.00    -0.209 A  
HETATM   18  C   UNL     1      -8.631  13.356  68.405  1.00  0.00    -0.134 A  
HETATM   19  C   UNL     1      -8.994  12.082  67.940  1.00  0.00    -0.182 A  
BRANCH  17  20
HETATM   20  S   UNL     1     -10.033  10.337  66.060  1.00  0.00    -0.246 S  
HETATM   21  O   UNL     1     -10.404  10.470  64.665  1.00  0.00    -0.344 OA 
HETATM   22  O   UNL     1     -10.989   9.868  67.039  1.00  0.00    -0.177 OA 
BRANCH  20  23
HETATM   23  N   UNL     1      -8.675   9.339  66.209  1.00  0.00    -0.137 N  
HETATM   24  H   UNL     1      -7.775   9.546  65.776  1.00  0.00     0.000 HD 
BRANCH  23  25
HETATM   25  C   UNL     1      -8.917   8.192  66.993  1.00  0.00    -0.141 A  
HETATM   26  N   UNL     1      -9.035   8.350  68.287  1.00  0.00    -0.139 NA 
HETATM   27  C   UNL     1      -9.282   7.120  68.867  1.00  0.00    -0.137 A  
HETATM   28  C   UNL     1      -9.446   6.070  67.988  1.00  0.00    -0.113 A  
HETATM   29  S   UNL     1      -9.210   6.627  66.381  1.00  0.00    -0.126 SA 
ENDBRANCH  23  25
ENDBRANCH  20  23
ENDBRANCH  17  20
ENDBRANCH  12  14
ENDBRANCH   9  10
TORSDOF 5
ENDMDL
MODEL      183
REMARK 921   NORMALIZED FREE ENERGY PREDICTED BY IDOCK:   -3.24 KCAL/MOL
REMARK 922        TOTAL FREE ENERGY PREDICTED BY IDOCK:   -5.15 KCAL/MOL
REMARK 923 INTER-LIGAND FREE ENERGY PREDICTED BY IDOCK:   -4.40 KCAL/MOL
REMARK 924 INTRA-LIGAND FREE ENERGY PREDICTED BY IDOCK:   -0.75 KCAL/MOL
REMARK 927      BINDING AFFINITY PREDICTED BY RF-SCORE:    0.00 PKD
ROOT
HETATM    1  O   UNL     1     -11.620  12.005  65.461  1.00  0.00    -0.350 OA 
HETATM    2  C   UNL     1     -10.994  13.134  65.095  1.00  0.00    -0.298 C  
HETATM    3  O   UNL     1     -11.178  13.632  63.992  1.00  0.00    -0.321 OA 
HETATM    4  C   UNL     1     -10.176  13.851  66.118  1.00  0.00    -0.307 A  
HETATM    5  C   UNL     1     -10.252  15.258  66.023  1.00  0.00    -0.335 A  
HETATM    6  C   UNL     1      -9.503  16.088  66.857  1.00  0.00    -0.242 A  
HETATM    7  C   UNL     1      -8.667  15.528  67.811  1.00  0.00    -0.170 A  
HETATM    8  C   UNL     1      -8.579  14.138  67.930  1.00  0.00    -0.178 A  
HETATM    9  C   UNL     1      -9.312  13.287  67.077  1.00  0.00    -0.242 A  
ENDROOT
BRANCH   9  10
HETATM   10  C   UNL     1      -9.187  11.822  67.292  1.00  0.00    -0.173 C  
HETATM   11  O   UNL     1      -9.698  11.365  68.309  1.00  0.00    -0.187 OA 
HETATM   12  N   UNL     1      -8.453  11.110  66.351  1.00  0.00    -0.164 N  
HETATM   13  H   UNL     1      -8.083  11.641  65.563  1.00  0.00     0.000 HD 
BRANCH  12  14
HETATM   14  C   UNL     1      -8.165   9.723  66.372  1.00  0.00    -0.120 A  
HETATM   15  C   UNL     1      -7.291   9.126  67.284  1.00  0.00    -0.087 A  
HETATM   16  C   UNL     1      -7.029   7.750  67.239  1.00  0.00    -0.078 A  
HETATM   17  C   UNL     1      -7.653   6.955  66.278  1.00  0.00    -0.088 A  
HETATM   18  C   UNL     1      -8.787   8.909  65.412  1.00  0.00    -0.234 A  
HETATM   19  C   UNL     1      -8.528   7.531  65.355  1.00  0.00    -0.105 A  
BRANCH  17  20
HETATM   20  S   UNL     1      -7.229   5.223  66.154  1.00  0.00    -0.074 S  
HETATM   21  O   UNL     1      -6.015   5.115  65.370  1.00  0.00    -0.024 OA 
HETATM   22  O   UNL     1      -8.435   4.535  65.747  1.00  0.00    -0.113 OA 
BRANCH  20  23
HETATM   23  N   UNL     1      -6.934   4.754  67.753  1.00  0.00    -0.060 N  
HETATM   24  H   UNL     1      -6.252   5.212  68.357  1.00  0.00     0.000 HD 
BRANCH  23  25
HETATM   25  C   UNL     1      -7.730   3.664  68.164  1.00  0.00    -0.065 A  
HETATM   26  N   UNL     1      -7.308   2.458  67.881  1.00  0.00    -0.051 NA 
HETATM   27  C   UNL     1      -8.213   1.539  68.378  1.00  0.00    -0.056 A  
HETATM   28  C   UNL     1      -9.252   2.068  69.115  1.00  0.00    -0.131 A  
HETATM   29  S   UNL     1      -9.134   3.781  69.125  1.00  0.00    -0.151 SA 
ENDBRANCH  23  25
ENDBRANCH  20  23
ENDBRANCH  17  20
ENDBRANCH  12  14
ENDBRANCH   9  10
TORSDOF 5
ENDMDL
MODEL      184
REMARK 921   NORMALIZED FREE ENERGY PREDICTED BY IDOCK:   -3.23 KCAL/MOL
REMARK 922        TOTAL FREE ENERGY PREDICTED BY IDOCK:   -5.14 KCAL/MOL
REMARK 923 INTER-LIGAND FREE ENERGY PREDICTED BY IDOCK:   -4.23 KCAL/MOL
REMARK 924 INTRA-LIGAND FREE ENERGY PREDICTED BY IDOCK:   -0.91 KCAL/MOL
REMARK 927      BINDING AFFINITY PREDICTED BY RF-SCORE:    0.00 PKD
ROOT
HETATM    1  O   UNL     1      -9.833   5.029  66.051  1.00  0.00    -0.168 OA 
HETATM    2  C   UNL     1      -9.274   3.848  65.748  1.00  0.00    -0.154 C  
HETATM    3  O   UNL     1      -9.624   2.818  66.309  1.00  0.00     0.013 OA 
HETATM    4  C   UNL     1      -8.313   3.794  64.606  1.00  0.00    -0.097 A  
HETATM    5  C   UNL     1      -8.408   2.613  63.837  1.00  0.00    -0.086 A  
HETATM    6  C   UNL     1      -7.545   2.364  62.771  1.00  0.00    -0.053 A  
HETATM    7  C   UNL     1      -6.571   3.296  62.443  1.00  0.00    -0.022 A  
HETATM    8  C   UNL     1      -6.461   4.476  63.183  1.00  0.00    -0.026 A  
HETATM    9  C   UNL     1      -7.311   4.730  64.280  1.00  0.00    -0.062 A  
ENDROOT
BRANCH   9  10
HETATM   10  C   UNL     1      -7.149   6.024  64.993  1.00  0.00    -0.061 C  
HETATM   11  O   UNL     1      -6.318   6.060  65.894  1.00  0.00    -0.039 OA 
HETATM   12  N   UNL     1      -7.994   7.059  64.613  1.00  0.00    -0.144 N  
HETATM   13  H   UNL     1      -8.640   6.864  63.848  1.00  0.00     0.000 HD 
BRANCH  12  14
HETATM   14  C   UNL     1      -8.052   8.357  65.177  1.00  0.00    -0.147 A  
HETATM   15  C   UNL     1      -6.971   9.241  65.204  1.00  0.00    -0.085 A  
HETATM   16  C   UNL     1      -7.084  10.505  65.798  1.00  0.00    -0.124 A  
HETATM   17  C   UNL     1      -8.296  10.899  66.365  1.00  0.00    -0.162 A  
HETATM   18  C   UNL     1      -9.267   8.770  65.749  1.00  0.00    -0.269 A  
HETATM   19  C   UNL     1      -9.390  10.031  66.351  1.00  0.00    -0.211 A  
BRANCH  17  20
HETATM   20  S   UNL     1      -8.403  12.466  67.220  1.00  0.00    -0.185 S  
HETATM   21  O   UNL     1      -7.066  13.020  67.306  1.00  0.00    -0.141 OA 
HETATM   22  O   UNL     1      -9.182  12.226  68.416  1.00  0.00    -0.192 OA 
BRANCH  20  23
HETATM   23  N   UNL     1      -9.367  13.422  66.211  1.00  0.00    -0.450 N  
HETATM   24  H   UNL     1      -9.495  13.239  65.216  1.00  0.00     0.000 HD 
BRANCH  23  25
HETATM   25  C   UNL     1      -9.975  14.499  66.889  1.00  0.00    -0.259 A  
HETATM   26  N   UNL     1      -9.279  15.596  67.043  1.00  0.00    -0.213 NA 
HETATM   27  C   UNL     1     -10.051  16.527  67.712  1.00  0.00    -0.264 A  
HETATM   28  C   UNL     1     -11.354  16.149  67.961  1.00  0.00    -0.234 A  
HETATM   29  S   UNL     1     -11.600  14.543  67.405  1.00  0.00    -0.395 SA 
ENDBRANCH  23  25
ENDBRANCH  20  23
ENDBRANCH  17  20
ENDBRANCH  12  14
ENDBRANCH   9  10
TORSDOF 5
ENDMDL
MODEL      185
REMARK 921   NORMALIZED FREE ENERGY PREDICTED BY IDOCK:   -3.22 KCAL/MOL
REMARK 922        TOTAL FREE ENERGY PREDICTED BY IDOCK:   -5.13 KCAL/MOL
REMARK 923 INTER-LIGAND FREE ENERGY PREDICTED BY IDOCK:   -5.02 KCAL/MOL
REMARK 924 INTRA-LIGAND FREE ENERGY PREDICTED BY IDOCK:   -0.11 KCAL/MOL
REMARK 927      BINDING AFFINITY PREDICTED BY RF-SCORE:    0.00 PKD
ROOT
HETATM    1  O   UNL     1      -8.052  13.500  67.627  1.00  0.00    -0.152 OA 
HETATM    2  C   UNL     1      -9.154  13.896  66.971  1.00  0.00    -0.250 C  
HETATM    3  O   UNL     1      -9.615  15.019  67.126  1.00  0.00    -0.210 OA 
HETATM    4  C   UNL     1      -9.725  12.983  65.936  1.00  0.00    -0.187 A  
HETATM    5  C   UNL     1     -10.241  13.655  64.806  1.00  0.00    -0.363 A  
HETATM    6  C   UNL     1     -10.869  12.966  63.770  1.00  0.00    -0.351 A  
HETATM    7  C   UNL     1     -10.988  11.586  63.836  1.00  0.00    -0.474 A  
HETATM    8  C   UNL     1     -10.480  10.896  64.940  1.00  0.00    -0.352 A  
HETATM    9  C   UNL     1      -9.863  11.583  66.007  1.00  0.00    -0.255 A  
ENDROOT
BRANCH   9  10
HETATM   10  C   UNL     1      -9.320  10.771  67.127  1.00  0.00    -0.155 C  
HETATM   11  O   UNL     1      -8.191  10.314  66.983  1.00  0.00    -0.120 OA 
HETATM   12  N   UNL     1     -10.161  10.556  68.211  1.00  0.00    -0.157 N  
HETATM   13  H   UNL     1     -11.079  11.000  68.174  1.00  0.00     0.000 HD 
BRANCH  12  14
HETATM   14  C   UNL     1      -9.878   9.782  69.364  1.00  0.00    -0.205 A  
HETATM   15  C   UNL     1     -10.659   9.801  70.522  1.00  0.00    -0.376 A  
HETATM   16  C   UNL     1     -10.313   9.030  71.640  1.00  0.00    -0.420 A  
HETATM   17  C   UNL     1      -9.178   8.220  71.601  1.00  0.00    -0.185 A  
HETATM   18  C   UNL     1      -8.740   8.960  69.339  1.00  0.00    -0.142 A  
HETATM   19  C   UNL     1      -8.382   8.188  70.454  1.00  0.00    -0.120 A  
BRANCH  17  20
HETATM   20  S   UNL     1      -8.680   7.326  73.067  1.00  0.00    -0.137 S  
HETATM   21  O   UNL     1      -9.120   5.953  72.924  1.00  0.00    -0.124 OA 
HETATM   22  O   UNL     1      -9.104   8.125  74.196  1.00  0.00    -0.059 OA 
BRANCH  20  23
HETATM   23  N   UNL     1      -6.990   7.403  73.042  1.00  0.00    -0.068 N  
HETATM   24  H   UNL     1      -6.464   8.267  73.169  1.00  0.00     0.000 HD 
BRANCH  23  25
HETATM   25  C   UNL     1      -6.384   6.147  72.827  1.00  0.00    -0.062 A  
HETATM   26  N   UNL     1      -6.119   5.409  73.874  1.00  0.00    -0.055 NA 
HETATM   27  C   UNL     1      -5.547   4.223  73.453  1.00  0.00    -0.008 A  
HETATM   28  C   UNL     1      -5.484   4.047  72.086  1.00  0.00     0.000 A  
HETATM   29  S   UNL     1      -6.094   5.446  71.299  1.00  0.00    -0.034 SA 
ENDBRANCH  23  25
ENDBRANCH  20  23
ENDBRANCH  17  20
ENDBRANCH  12  14
ENDBRANCH   9  10
TORSDOF 5
ENDMDL
MODEL      186
REMARK 921   NORMALIZED FREE ENERGY PREDICTED BY IDOCK:   -3.05 KCAL/MOL
REMARK 922        TOTAL FREE ENERGY PREDICTED BY IDOCK:   -4.90 KCAL/MOL
REMARK 923 INTER-LIGAND FREE ENERGY PREDICTED BY IDOCK:   -4.20 KCAL/MOL
REMARK 924 INTRA-LIGAND FREE ENERGY PREDICTED BY IDOCK:   -0.71 KCAL/MOL
REMARK 927      BINDING AFFINITY PREDICTED BY RF-SCORE:    0.00 PKD
ROOT
HETATM    1  O   UNL     1      -7.489   4.193  66.139  1.00  0.00    -0.082 OA 
HETATM    2  C   UNL     1      -8.588   3.514  66.501  1.00  0.00    -0.116 C  
HETATM    3  O   UNL     1      -9.360   3.064  65.663  1.00  0.00    -0.150 OA 
HETATM    4  C   UNL     1      -8.776   3.193  67.947  1.00  0.00    -0.134 A  
HETATM    5  C   UNL     1      -9.348   1.923  68.179  1.00  0.00    -0.241 A  
HETATM    6  C   UNL     1      -9.653   1.484  69.467  1.00  0.00    -0.077 A  
HETATM    7  C   UNL     1      -9.385   2.303  70.554  1.00  0.00    -0.198 A  
HETATM    8  C   UNL     1      -8.812   3.561  70.351  1.00  0.00    -0.143 A  
HETATM    9  C   UNL     1      -8.521   4.029  69.053  1.00  0.00    -0.099 A  
ENDROOT
BRANCH   9  10
HETATM   10  C   UNL     1      -7.882   5.365  68.928  1.00  0.00    -0.083 C  
HETATM   11  O   UNL     1      -6.658   5.401  68.978  1.00  0.00    -0.047 OA 
HETATM   12  N   UNL     1      -8.732   6.459  68.824  1.00  0.00    -0.122 N  
HETATM   13  H   UNL     1      -9.733   6.260  68.806  1.00  0.00     0.000 HD 
BRANCH  12  14
HETATM   14  C   UNL     1      -8.355   7.822  68.740  1.00  0.00    -0.128 A  
HETATM   15  C   UNL     1      -8.155   8.641  69.853  1.00  0.00    -0.111 A  
HETATM   16  C   UNL     1      -7.804   9.990  69.705  1.00  0.00    -0.171 A  
HETATM   17  C   UNL     1      -7.639  10.528  68.428  1.00  0.00    -0.097 A  
HETATM   18  C   UNL     1      -8.183   8.377  67.462  1.00  0.00    -0.125 A  
HETATM   19  C   UNL     1      -7.837   9.728  67.301  1.00  0.00    -0.098 A  
BRANCH  17  20
HETATM   20  S   UNL     1      -7.303  12.274  68.242  1.00  0.00    -0.117 S  
HETATM   21  O   UNL     1      -7.094  12.542  66.833  1.00  0.00    -0.028 OA 
HETATM   22  O   UNL     1      -6.283  12.599  69.216  1.00  0.00    -0.091 OA 
BRANCH  20  23
HETATM   23  N   UNL     1      -8.722  13.027  68.774  1.00  0.00    -0.377 N  
HETATM   24  H   UNL     1      -8.791  13.539  69.654  1.00  0.00     0.000 HD 
BRANCH  23  25
HETATM   25  C   UNL     1      -9.798  12.873  67.875  1.00  0.00    -0.227 A  
HETATM   26  N   UNL     1     -10.620  11.875  68.071  1.00  0.00    -0.200 NA 
HETATM   27  C   UNL     1     -11.604  11.908  67.100  1.00  0.00    -0.290 A  
HETATM   28  C   UNL     1     -11.562  12.993  66.250  1.00  0.00    -0.360 A  
HETATM   29  S   UNL     1     -10.200  13.967  66.630  1.00  0.00    -0.280 SA 
ENDBRANCH  23  25
ENDBRANCH  20  23
ENDBRANCH  17  20
ENDBRANCH  12  14
ENDBRANCH   9  10
TORSDOF 5
ENDMDL
MODEL      187
REMARK 921   NORMALIZED FREE ENERGY PREDICTED BY IDOCK:   -2.94 KCAL/MOL
REMARK 922        TOTAL FREE ENERGY PREDICTED BY IDOCK:   -4.76 KCAL/MOL
REMARK 923 INTER-LIGAND FREE ENERGY PREDICTED BY IDOCK:   -3.98 KCAL/MOL
REMARK 924 INTRA-LIGAND FREE ENERGY PREDICTED BY IDOCK:   -0.79 KCAL/MOL
REMARK 927      BINDING AFFINITY PREDICTED BY RF-SCORE:    0.00 PKD
ROOT
HETATM    1  O   UNL     1      -9.875   5.337  65.719  1.00  0.00    -0.130 OA 
HETATM    2  C   UNL     1      -9.353   4.130  65.984  1.00  0.00    -0.164 C  
HETATM    3  O   UNL     1     -10.070   3.148  66.131  1.00  0.00     0.338 OA 
HETATM    4  C   UNL     1      -7.868   3.981  65.953  1.00  0.00    -0.090 A  
HETATM    5  C   UNL     1      -7.430   2.748  65.420  1.00  0.00    -0.072 A  
HETATM    6  C   UNL     1      -6.078   2.411  65.373  1.00  0.00    -0.023 A  
HETATM    7  C   UNL     1      -5.131   3.305  65.851  1.00  0.00    -0.008 A  
HETATM    8  C   UNL     1      -5.537   4.534  66.376  1.00  0.00    -0.014 A  
HETATM    9  C   UNL     1      -6.903   4.878  66.453  1.00  0.00    -0.062 A  
ENDROOT
BRANCH   9  10
HETATM   10  C   UNL     1      -7.248   6.218  66.994  1.00  0.00    -0.075 C  
HETATM   11  O   UNL     1      -7.445   6.294  68.202  1.00  0.00    -0.087 OA 
HETATM   12  N   UNL     1      -7.371   7.253  66.075  1.00  0.00    -0.074 N  
HETATM   13  H   UNL     1      -7.181   7.023  65.100  1.00  0.00     0.000 HD 
BRANCH  12  14
HETATM   14  C   UNL     1      -7.732   8.595  66.352  1.00  0.00    -0.095 A  
HETATM   15  C   UNL     1      -6.955   9.698  65.991  1.00  0.00    -0.093 A  
HETATM   16  C   UNL     1      -7.356  11.001  66.314  1.00  0.00    -0.097 A  
HETATM   17  C   UNL     1      -8.554  11.210  66.998  1.00  0.00    -0.147 A  
HETATM   18  C   UNL     1      -8.936   8.821  67.038  1.00  0.00    -0.151 A  
HETATM   19  C   UNL     1      -9.345  10.122  67.371  1.00  0.00    -0.167 A  
BRANCH  17  20
HETATM   20  S   UNL     1      -9.004  12.864  67.506  1.00  0.00    -0.204 S  
HETATM   21  O   UNL     1      -8.017  13.321  68.465  1.00  0.00    -0.136 OA 
HETATM   22  O   UNL     1     -10.407  12.817  67.855  1.00  0.00    -0.215 OA 
BRANCH  20  23
HETATM   23  N   UNL     1      -8.901  13.775  66.085  1.00  0.00    -0.344 N  
HETATM   24  H   UNL     1      -8.048  14.244  65.777  1.00  0.00     0.000 HD 
BRANCH  23  25
HETATM   25  C   UNL     1     -10.115  13.820  65.369  1.00  0.00    -0.286 A  
HETATM   26  N   UNL     1     -10.917  14.831  65.588  1.00  0.00    -0.330 NA 
HETATM   27  C   UNL     1     -12.035  14.698  64.786  1.00  0.00    -0.433 A  
HETATM   28  C   UNL     1     -12.009  13.640  63.902  1.00  0.00    -0.408 A  
HETATM   29  S   UNL     1     -10.567  12.736  64.132  1.00  0.00    -0.410 SA 
ENDBRANCH  23  25
ENDBRANCH  20  23
ENDBRANCH  17  20
ENDBRANCH  12  14
ENDBRANCH   9  10
TORSDOF 5
ENDMDL
MODEL      188
REMARK 921   NORMALIZED FREE ENERGY PREDICTED BY IDOCK:   -2.83 KCAL/MOL
REMARK 922        TOTAL FREE ENERGY PREDICTED BY IDOCK:   -4.62 KCAL/MOL
REMARK 923 INTER-LIGAND FREE ENERGY PREDICTED BY IDOCK:   -3.92 KCAL/MOL
REMARK 924 INTRA-LIGAND FREE ENERGY PREDICTED BY IDOCK:   -0.69 KCAL/MOL
REMARK 927      BINDING AFFINITY PREDICTED BY RF-SCORE:    0.00 PKD
ROOT
HETATM    1  O   UNL     1     -10.210   8.794  66.814  1.00  0.00    -0.266 OA 
HETATM    2  C   UNL     1     -10.067   9.874  66.031  1.00  0.00    -0.244 C  
HETATM    3  O   UNL     1     -10.377   9.844  64.847  1.00  0.00    -0.058 OA 
HETATM    4  C   UNL     1      -9.657  11.160  66.670  1.00  0.00    -0.215 A  
HETATM    5  C   UNL     1     -10.283  12.297  66.113  1.00  0.00    -0.263 A  
HETATM    6  C   UNL     1      -9.971  13.587  66.543  1.00  0.00    -0.287 A  
HETATM    7  C   UNL     1      -9.032  13.767  67.547  1.00  0.00    -0.201 A  
HETATM    8  C   UNL     1      -8.404  12.658  68.120  1.00  0.00    -0.175 A  
HETATM    9  C   UNL     1      -8.691  11.349  67.678  1.00  0.00    -0.136 A  
ENDROOT
BRANCH   9  10
HETATM   10  C   UNL     1      -8.004  10.224  68.362  1.00  0.00    -0.108 C  
HETATM   11  O   UNL     1      -6.933   9.859  67.890  1.00  0.00    -0.079 OA 
HETATM   12  N   UNL     1      -8.664   9.649  69.441  1.00  0.00    -0.157 N  
HETATM   13  H   UNL     1      -9.557  10.066  69.705  1.00  0.00     0.000 HD 
BRANCH  12  14
HETATM   14  C   UNL     1      -8.227   8.545  70.213  1.00  0.00    -0.115 A  
HETATM   15  C   UNL     1      -8.409   7.212  69.835  1.00  0.00    -0.135 A  
HETATM   16  C   UNL     1      -7.974   6.162  70.654  1.00  0.00    -0.111 A  
HETATM   17  C   UNL     1      -7.338   6.442  71.864  1.00  0.00    -0.092 A  
HETATM   18  C   UNL     1      -7.584   8.811  71.433  1.00  0.00    -0.131 A  
HETATM   19  C   UNL     1      -7.148   7.767  72.263  1.00  0.00    -0.079 A  
BRANCH  17  20
HETATM   20  S   UNL     1      -6.887   5.101  72.956  1.00  0.00    -0.076 S  
HETATM   21  O   UNL     1      -5.570   5.384  73.491  1.00  0.00    -0.022 OA 
HETATM   22  O   UNL     1      -7.142   3.877  72.227  1.00  0.00    -0.047 OA 
BRANCH  20  23
HETATM   23  N   UNL     1      -8.044   5.166  74.189  1.00  0.00    -0.100 N  
HETATM   24  H   UNL     1      -7.811   5.122  75.181  1.00  0.00     0.000 HD 
BRANCH  23  25
HETATM   25  C   UNL     1      -9.362   5.287  73.703  1.00  0.00    -0.133 A  
HETATM   26  N   UNL     1     -10.005   4.188  73.398  1.00  0.00    -0.126 NA 
HETATM   27  C   UNL     1     -11.273   4.519  72.959  1.00  0.00    -0.187 A  
HETATM   28  C   UNL     1     -11.599   5.856  73.037  1.00  0.00    -0.021 A  
HETATM   29  S   UNL     1     -10.244   6.743  73.610  1.00  0.00    -0.359 SA 
ENDBRANCH  23  25
ENDBRANCH  20  23
ENDBRANCH  17  20
ENDBRANCH  12  14
ENDBRANCH   9  10
TORSDOF 5
ENDMDL
MODEL      189
REMARK 921   NORMALIZED FREE ENERGY PREDICTED BY IDOCK:   -2.71 KCAL/MOL
REMARK 922        TOTAL FREE ENERGY PREDICTED BY IDOCK:   -4.47 KCAL/MOL
REMARK 923 INTER-LIGAND FREE ENERGY PREDICTED BY IDOCK:   -4.28 KCAL/MOL
REMARK 924 INTRA-LIGAND FREE ENERGY PREDICTED BY IDOCK:   -0.19 KCAL/MOL
REMARK 927      BINDING AFFINITY PREDICTED BY RF-SCORE:    0.00 PKD
ROOT
HETATM    1  O   UNL     1      -9.305   5.658  71.191  1.00  0.00    -0.150 OA 
HETATM    2  C   UNL     1      -8.977   4.393  70.889  1.00  0.00    -0.112 C  
HETATM    3  O   UNL     1      -8.926   3.528  71.753  1.00  0.00    -0.098 OA 
HETATM    4  C   UNL     1      -8.814   4.030  69.449  1.00  0.00    -0.143 A  
HETATM    5  C   UNL     1      -9.287   2.738  69.131  1.00  0.00    -0.206 A  
HETATM    6  C   UNL     1      -9.158   2.209  67.847  1.00  0.00    -0.218 A  
HETATM    7  C   UNL     1      -8.560   2.964  66.850  1.00  0.00    -0.114 A  
HETATM    8  C   UNL     1      -8.089   4.248  67.137  1.00  0.00    -0.100 A  
HETATM    9  C   UNL     1      -8.191   4.787  68.437  1.00  0.00    -0.084 A  
ENDROOT
BRANCH   9  10
HETATM   10  C   UNL     1      -7.696   6.172  68.650  1.00  0.00    -0.100 C  
HETATM   11  O   UNL     1      -6.867   6.334  69.539  1.00  0.00    -0.060 OA 
HETATM   12  N   UNL     1      -8.259   7.167  67.861  1.00  0.00    -0.118 N  
HETATM   13  H   UNL     1      -8.946   6.868  67.169  1.00  0.00     0.000 HD 
BRANCH  12  14
HETATM   14  C   UNL     1      -7.978   8.555  67.917  1.00  0.00    -0.108 A  
HETATM   15  C   UNL     1      -7.671   9.237  69.096  1.00  0.00    -0.078 A  
HETATM   16  C   UNL     1      -7.425  10.617  69.090  1.00  0.00    -0.123 A  
HETATM   17  C   UNL     1      -7.476  11.326  67.890  1.00  0.00    -0.094 A  
HETATM   18  C   UNL     1      -8.023   9.282  66.716  1.00  0.00    -0.108 A  
HETATM   19  C   UNL     1      -7.784  10.664  66.699  1.00  0.00    -0.132 A  
BRANCH  17  20
HETATM   20  S   UNL     1      -7.274  13.102  67.904  1.00  0.00    -0.153 S  
HETATM   21  O   UNL     1      -5.984  13.410  67.319  1.00  0.00    -0.341 OA 
HETATM   22  O   UNL     1      -7.601  13.540  69.244  1.00  0.00     0.097 OA 
BRANCH  20  23
HETATM   23  N   UNL     1      -8.516  13.667  66.905  1.00  0.00    -0.411 N  
HETATM   24  H   UNL     1      -8.442  13.720  65.889  1.00  0.00     0.000 HD 
BRANCH  23  25
HETATM   25  C   UNL     1      -9.666  14.058  67.623  1.00  0.00    -0.228 A  
HETATM   26  N   UNL     1      -9.831  15.334  67.866  1.00  0.00    -0.216 NA 
HETATM   27  C   UNL     1     -11.013  15.508  68.560  1.00  0.00    -0.288 A  
HETATM   28  C   UNL     1     -11.770  14.369  68.739  1.00  0.00    -0.337 A  
HETATM   29  S   UNL     1     -10.938  13.019  68.081  1.00  0.00    -0.257 SA 
ENDBRANCH  23  25
ENDBRANCH  20  23
ENDBRANCH  17  20
ENDBRANCH  12  14
ENDBRANCH   9  10
TORSDOF 5
ENDMDL
MODEL      190
REMARK 921   NORMALIZED FREE ENERGY PREDICTED BY IDOCK:   -2.70 KCAL/MOL
REMARK 922        TOTAL FREE ENERGY PREDICTED BY IDOCK:   -4.45 KCAL/MOL
REMARK 923 INTER-LIGAND FREE ENERGY PREDICTED BY IDOCK:   -4.07 KCAL/MOL
REMARK 924 INTRA-LIGAND FREE ENERGY PREDICTED BY IDOCK:   -0.38 KCAL/MOL
REMARK 927      BINDING AFFINITY PREDICTED BY RF-SCORE:    0.00 PKD
ROOT
HETATM    1  O   UNL     1      -5.146   7.744  65.760  1.00  0.00    -0.024 OA 
HETATM    2  C   UNL     1      -5.904   6.652  65.580  1.00  0.00    -0.030 C  
HETATM    3  O   UNL     1      -5.966   6.094  64.491  1.00  0.00    -0.024 OA 
HETATM    4  C   UNL     1      -6.562   6.044  66.775  1.00  0.00    -0.056 A  
HETATM    5  C   UNL     1      -6.601   4.633  66.748  1.00  0.00    -0.050 A  
HETATM    6  C   UNL     1      -7.233   3.900  67.752  1.00  0.00    -0.063 A  
HETATM    7  C   UNL     1      -7.836   4.563  68.810  1.00  0.00    -0.071 A  
HETATM    8  C   UNL     1      -7.805   5.959  68.864  1.00  0.00    -0.095 A  
HETATM    9  C   UNL     1      -7.190   6.714  67.844  1.00  0.00    -0.091 A  
ENDROOT
BRANCH   9  10
HETATM   10  C   UNL     1      -7.173   8.193  67.995  1.00  0.00    -0.094 C  
HETATM   11  O   UNL     1      -6.303   8.666  68.717  1.00  0.00    -0.047 OA 
HETATM   12  N   UNL     1      -8.180   8.900  67.349  1.00  0.00    -0.108 N  
HETATM   13  H   UNL     1      -8.836   8.355  66.791  1.00  0.00     0.000 HD 
BRANCH  12  14
HETATM   14  C   UNL     1      -8.390  10.301  67.387  1.00  0.00    -0.118 A  
HETATM   15  C   UNL     1      -8.221  11.081  68.533  1.00  0.00    -0.146 A  
HETATM   16  C   UNL     1      -8.467  12.460  68.512  1.00  0.00    -0.069 A  
HETATM   17  C   UNL     1      -8.877  13.075  67.329  1.00  0.00    -0.208 A  
HETATM   18  C   UNL     1      -8.801  10.934  66.203  1.00  0.00    -0.195 A  
HETATM   19  C   UNL     1      -9.054  12.314  66.171  1.00  0.00    -0.076 A  
BRANCH  17  20
HETATM   20  S   UNL     1      -9.297  14.812  67.336  1.00  0.00    -0.203 S  
HETATM   21  O   UNL     1      -8.764  15.406  66.126  1.00  0.00    -0.282 OA 
HETATM   22  O   UNL     1      -8.920  15.319  68.637  1.00  0.00    -0.174 OA 
BRANCH  20  23
HETATM   23  N   UNL     1     -10.989  14.828  67.295  1.00  0.00    -0.309 N  
HETATM   24  H   UNL     1     -11.529  15.010  66.449  1.00  0.00     0.000 HD 
BRANCH  23  25
HETATM   25  C   UNL     1     -11.573  14.562  68.551  1.00  0.00    -0.313 A  
HETATM   26  N   UNL     1     -11.965  15.582  69.271  1.00  0.00    -0.340 NA 
HETATM   27  C   UNL     1     -12.518  15.114  70.447  1.00  0.00    -0.368 A  
HETATM   28  C   UNL     1     -12.626  13.743  70.548  1.00  0.00    -0.291 A  
HETATM   29  S   UNL     1     -11.942  13.010  69.154  1.00  0.00    -0.220 SA 
ENDBRANCH  23  25
ENDBRANCH  20  23
ENDBRANCH  17  20
ENDBRANCH  12  14
ENDBRANCH   9  10
TORSDOF 5
ENDMDL
MODEL      191
REMARK 921   NORMALIZED FREE ENERGY PREDICTED BY IDOCK:   -2.65 KCAL/MOL
REMARK 922        TOTAL FREE ENERGY PREDICTED BY IDOCK:   -4.39 KCAL/MOL
REMARK 923 INTER-LIGAND FREE ENERGY PREDICTED BY IDOCK:   -5.52 KCAL/MOL
REMARK 924 INTRA-LIGAND FREE ENERGY PREDICTED BY IDOCK:    1.13 KCAL/MOL
REMARK 927      BINDING AFFINITY PREDICTED BY RF-SCORE:    0.00 PKD
ROOT
HETATM    1  O   UNL     1     -10.701  15.221  65.392  1.00  0.00    -0.337 OA 
HETATM    2  C   UNL     1     -10.727  16.562  65.431  1.00  0.00    -0.259 C  
HETATM    3  O   UNL     1     -11.269  17.212  64.546  1.00  0.00    -1.104 OA 
HETATM    4  C   UNL     1     -10.204  17.243  66.653  1.00  0.00    -0.319 A  
HETATM    5  C   UNL     1     -10.936  18.394  67.021  1.00  0.00    -0.065 A  
HETATM    6  C   UNL     1     -10.552  19.190  68.099  1.00  0.00    -0.342 A  
HETATM    7  C   UNL     1      -9.430  18.849  68.839  1.00  0.00    -0.356 A  
HETATM    8  C   UNL     1      -8.692  17.712  68.500  1.00  0.00    -0.285 A  
HETATM    9  C   UNL     1      -9.054  16.911  67.397  1.00  0.00    -0.221 A  
ENDROOT
BRANCH   9  10
HETATM   10  C   UNL     1      -8.236  15.701  67.125  1.00  0.00    -0.213 C  
HETATM   11  O   UNL     1      -7.191  15.866  66.505  1.00  0.00    -0.143 OA 
HETATM   12  N   UNL     1      -8.756  14.484  67.547  1.00  0.00    -0.177 N  
HETATM   13  H   UNL     1      -9.647  14.515  68.044  1.00  0.00     0.000 HD 
BRANCH  12  14
HETATM   14  C   UNL     1      -8.179  13.203  67.359  1.00  0.00    -0.187 A  
HETATM   15  C   UNL     1      -8.718  12.225  66.520  1.00  0.00    -0.084 A  
HETATM   16  C   UNL     1      -8.112  10.967  66.394  1.00  0.00    -0.166 A  
HETATM   17  C   UNL     1      -6.947  10.683  67.107  1.00  0.00    -0.088 A  
HETATM   18  C   UNL     1      -7.005  12.904  68.068  1.00  0.00    -0.108 A  
HETATM   19  C   UNL     1      -6.393  11.646  67.953  1.00  0.00    -0.054 A  
BRANCH  17  20
HETATM   20  S   UNL     1      -6.243   9.042  67.030  1.00  0.00    -0.059 S  
HETATM   21  O   UNL     1      -5.711   8.722  68.340  1.00  0.00    -0.037 OA 
HETATM   22  O   UNL     1      -5.391   9.017  65.860  1.00  0.00    -0.039 OA 
BRANCH  20  23
HETATM   23  N   UNL     1      -7.561   8.043  66.676  1.00  0.00    -0.092 N  
HETATM   24  H   UNL     1      -7.555   7.345  65.932  1.00  0.00     0.000 HD 
BRANCH  23  25
HETATM   25  C   UNL     1      -8.670   8.275  67.517  1.00  0.00    -0.129 A  
HETATM   26  N   UNL     1      -8.489   9.021  68.576  1.00  0.00    -0.127 NA 
HETATM   27  C   UNL     1      -9.688   9.138  69.252  1.00  0.00    -0.164 A  
HETATM   28  C   UNL     1     -10.777   8.559  68.635  1.00  0.00    -0.041 A  
HETATM   29  S   UNL     1     -10.269   7.777  67.193  1.00  0.00    -0.322 SA 
ENDBRANCH  23  25
ENDBRANCH  20  23
ENDBRANCH  17  20
ENDBRANCH  12  14
ENDBRANCH   9  10
TORSDOF 5
ENDMDL
MODEL      192
REMARK 921   NORMALIZED FREE ENERGY PREDICTED BY IDOCK:   -2.45 KCAL/MOL
REMARK 922        TOTAL FREE ENERGY PREDICTED BY IDOCK:   -4.14 KCAL/MOL
REMARK 923 INTER-LIGAND FREE ENERGY PREDICTED BY IDOCK:   -5.53 KCAL/MOL
REMARK 924 INTRA-LIGAND FREE ENERGY PREDICTED BY IDOCK:    1.39 KCAL/MOL
REMARK 927      BINDING AFFINITY PREDICTED BY RF-SCORE:    0.00 PKD
ROOT
HETATM    1  O   UNL     1      -9.622   9.512  71.120  1.00  0.00    -0.213 OA 
HETATM    2  C   UNL     1      -8.444   8.899  71.307  1.00  0.00    -0.182 C  
HETATM    3  O   UNL     1      -7.866   8.951  72.385  1.00  0.00    -0.368 OA 
HETATM    4  C   UNL     1      -7.920   8.027  70.213  1.00  0.00    -0.104 A  
HETATM    5  C   UNL     1      -7.260   6.867  70.676  1.00  0.00    -0.069 A  
HETATM    6  C   UNL     1      -6.654   5.972  69.796  1.00  0.00    -0.047 A  
HETATM    7  C   UNL     1      -6.700   6.213  68.431  1.00  0.00    -0.064 A  
HETATM    8  C   UNL     1      -7.352   7.350  67.947  1.00  0.00    -0.093 A  
HETATM    9  C   UNL     1      -7.949   8.277  68.827  1.00  0.00    -0.114 A  
ENDROOT
BRANCH   9  10
HETATM   10  C   UNL     1      -8.651   9.442  68.228  1.00  0.00    -0.120 C  
HETATM   11  O   UNL     1      -9.668   9.206  67.585  1.00  0.00    -0.149 OA 
HETATM   12  N   UNL     1      -8.061  10.687  68.404  1.00  0.00    -0.116 N  
HETATM   13  H   UNL     1      -7.206  10.714  68.961  1.00  0.00     0.000 HD 
BRANCH  12  14
HETATM   14  C   UNL     1      -8.522  11.925  67.890  1.00  0.00    -0.154 A  
HETATM   15  C   UNL     1      -7.961  13.160  68.222  1.00  0.00    -0.148 A  
HETATM   16  C   UNL     1      -8.478  14.353  67.698  1.00  0.00    -0.191 A  
HETATM   17  C   UNL     1      -9.562  14.314  66.821  1.00  0.00    -0.280 A  
HETATM   18  C   UNL     1      -9.611  11.901  67.004  1.00  0.00    -0.196 A  
HETATM   19  C   UNL     1     -10.139  13.090  66.477  1.00  0.00    -0.270 A  
BRANCH  17  20
HETATM   20  S   UNL     1     -10.287  15.843  66.244  1.00  0.00    -0.327 S  
HETATM   21  O   UNL     1     -11.272  16.266  67.219  1.00  0.00    -0.128 OA 
HETATM   22  O   UNL     1     -10.660  15.623  64.864  1.00  0.00    -0.427 OA 
BRANCH  20  23
HETATM   23  N   UNL     1      -8.991  16.930  66.217  1.00  0.00    -0.278 N  
HETATM   24  H   UNL     1      -8.219  16.869  65.552  1.00  0.00     0.000 HD 
BRANCH  23  25
HETATM   25  C   UNL     1      -9.087  17.928  67.208  1.00  0.00    -0.251 A  
HETATM   26  N   UNL     1      -8.147  18.837  67.255  1.00  0.00    -0.242 NA 
HETATM   27  C   UNL     1      -8.431  19.723  68.276  1.00  0.00    -0.270 A  
HETATM   28  C   UNL     1      -9.636  19.525  68.917  1.00  0.00    -0.395 A  
HETATM   29  S   UNL     1     -10.407  18.135  68.268  1.00  0.00    -0.334 SA 
ENDBRANCH  23  25
ENDBRANCH  20  23
ENDBRANCH  17  20
ENDBRANCH  12  14
ENDBRANCH   9  10
TORSDOF 5
ENDMDL
MODEL      193
REMARK 921   NORMALIZED FREE ENERGY PREDICTED BY IDOCK:   -2.39 KCAL/MOL
REMARK 922        TOTAL FREE ENERGY PREDICTED BY IDOCK:   -4.05 KCAL/MOL
REMARK 923 INTER-LIGAND FREE ENERGY PREDICTED BY IDOCK:   -4.52 KCAL/MOL
REMARK 924 INTRA-LIGAND FREE ENERGY PREDICTED BY IDOCK:    0.47 KCAL/MOL
REMARK 927      BINDING AFFINITY PREDICTED BY RF-SCORE:    0.00 PKD
ROOT
HETATM    1  O   UNL     1     -10.965   6.447  68.146  1.00  0.00    -0.290 OA 
HETATM    2  C   UNL     1     -10.193   5.437  68.576  1.00  0.00    -0.169 C  
HETATM    3  O   UNL     1     -10.475   4.811  69.590  1.00  0.00    -0.144 OA 
HETATM    4  C   UNL     1      -9.059   4.998  67.711  1.00  0.00    -0.123 A  
HETATM    5  C   UNL     1      -8.847   3.601  67.715  1.00  0.00    -0.141 A  
HETATM    6  C   UNL     1      -7.791   3.021  67.013  1.00  0.00    -0.075 A  
HETATM    7  C   UNL     1      -6.927   3.824  66.284  1.00  0.00    -0.062 A  
HETATM    8  C   UNL     1      -7.118   5.207  66.258  1.00  0.00    -0.072 A  
HETATM    9  C   UNL     1      -8.168   5.811  66.983  1.00  0.00    -0.101 A  
ENDROOT
BRANCH   9  10
HETATM   10  C   UNL     1      -8.322   7.285  66.874  1.00  0.00    -0.118 C  
HETATM   11  O   UNL     1      -8.560   7.737  65.760  1.00  0.00    -0.142 OA 
HETATM   12  N   UNL     1      -8.126   8.023  68.035  1.00  0.00    -0.127 N  
HETATM   13  H   UNL     1      -7.924   7.495  68.884  1.00  0.00     0.000 HD 
BRANCH  12  14
HETATM   14  C   UNL     1      -8.176   9.433  68.162  1.00  0.00    -0.118 A  
HETATM   15  C   UNL     1      -9.305  10.200  67.862  1.00  0.00    -0.151 A  
HETATM   16  C   UNL     1      -9.285  11.595  67.987  1.00  0.00    -0.178 A  
HETATM   17  C   UNL     1      -8.127  12.237  68.426  1.00  0.00    -0.151 A  
HETATM   18  C   UNL     1      -7.019  10.093  68.606  1.00  0.00    -0.062 A  
HETATM   19  C   UNL     1      -6.986  11.491  68.729  1.00  0.00    -0.096 A  
BRANCH  17  20
HETATM   20  S   UNL     1      -8.071  14.023  68.475  1.00  0.00    -0.119 S  
HETATM   21  O   UNL     1      -7.821  14.500  67.129  1.00  0.00    -0.191 OA 
HETATM   22  O   UNL     1      -7.181  14.375  69.560  1.00  0.00    -0.126 OA 
BRANCH  20  23
HETATM   23  N   UNL     1      -9.624  14.472  68.972  1.00  0.00    -0.366 N  
HETATM   24  H   UNL     1      -9.857  14.722  69.933  1.00  0.00     0.000 HD 
BRANCH  23  25
HETATM   25  C   UNL     1     -10.564  14.463  67.921  1.00  0.00    -0.240 A  
HETATM   26  N   UNL     1     -10.222  15.025  66.789  1.00  0.00    -0.256 NA 
HETATM   27  C   UNL     1     -11.265  14.898  65.892  1.00  0.00    -0.328 A  
HETATM   28  C   UNL     1     -12.339  14.152  66.332  1.00  0.00    -0.400 A  
HETATM   29  S   UNL     1     -12.066  13.654  67.952  1.00  0.00    -0.180 SA 
ENDBRANCH  23  25
ENDBRANCH  20  23
ENDBRANCH  17  20
ENDBRANCH  12  14
ENDBRANCH   9  10
TORSDOF 5
ENDMDL
MODEL      194
REMARK 921   NORMALIZED FREE ENERGY PREDICTED BY IDOCK:   -2.34 KCAL/MOL
REMARK 922        TOTAL FREE ENERGY PREDICTED BY IDOCK:   -3.99 KCAL/MOL
REMARK 923 INTER-LIGAND FREE ENERGY PREDICTED BY IDOCK:   -4.02 KCAL/MOL
REMARK 924 INTRA-LIGAND FREE ENERGY PREDICTED BY IDOCK:    0.03 KCAL/MOL
REMARK 927      BINDING AFFINITY PREDICTED BY RF-SCORE:    0.00 PKD
ROOT
HETATM    1  O   UNL     1      -9.994  10.294  65.470  1.00  0.00    -0.267 OA 
HETATM    2  C   UNL     1      -9.569  10.359  64.199  1.00  0.00    -0.322 C  
HETATM    3  O   UNL     1     -10.268  10.846  63.321  1.00  0.00    -0.337 OA 
HETATM    4  C   UNL     1      -8.162   9.955  63.904  1.00  0.00    -0.156 A  
HETATM    5  C   UNL     1      -7.538  10.745  62.913  1.00  0.00     0.052 A  
HETATM    6  C   UNL     1      -6.246  10.471  62.466  1.00  0.00    -0.148 A  
HETATM    7  C   UNL     1      -5.545   9.403  63.006  1.00  0.00    -0.080 A  
HETATM    8  C   UNL     1      -6.137   8.610  63.992  1.00  0.00    -0.071 A  
HETATM    9  C   UNL     1      -7.452   8.860  64.437  1.00  0.00    -0.106 A  
ENDROOT
BRANCH   9  10
HETATM   10  C   UNL     1      -7.994   7.990  65.512  1.00  0.00    -0.117 C  
HETATM   11  O   UNL     1      -8.375   6.872  65.181  1.00  0.00    -0.134 OA 
HETATM   12  N   UNL     1      -8.074   8.542  66.785  1.00  0.00    -0.097 N  
HETATM   13  H   UNL     1      -7.721   9.493  66.894  1.00  0.00     0.000 HD 
BRANCH  12  14
HETATM   14  C   UNL     1      -8.593   7.921  67.948  1.00  0.00    -0.125 A  
HETATM   15  C   UNL     1      -9.273   6.700  67.938  1.00  0.00    -0.111 A  
HETATM   16  C   UNL     1      -9.785   6.148  69.120  1.00  0.00    -0.164 A  
HETATM   17  C   UNL     1      -9.608   6.816  70.332  1.00  0.00    -0.169 A  
HETATM   18  C   UNL     1      -8.421   8.580  69.175  1.00  0.00    -0.125 A  
HETATM   19  C   UNL     1      -8.934   8.039  70.364  1.00  0.00    -0.146 A  
BRANCH  17  20
HETATM   20  S   UNL     1     -10.359   6.164  71.817  1.00  0.00    -0.216 S  
HETATM   21  O   UNL     1     -10.042   7.063  72.910  1.00  0.00    -0.173 OA 
HETATM   22  O   UNL     1      -9.994   4.766  71.880  1.00  0.00    -0.175 OA 
BRANCH  20  23
HETATM   23  N   UNL     1     -12.019   6.206  71.492  1.00  0.00    -0.173 N  
HETATM   24  H   UNL     1     -12.576   5.373  71.301  1.00  0.00     0.000 HD 
BRANCH  23  25
HETATM   25  C   UNL     1     -12.553   7.511  71.513  1.00  0.00    -0.355 A  
HETATM   26  N   UNL     1     -12.075   8.381  70.660  1.00  0.00    -0.059 NA 
HETATM   27  C   UNL     1     -12.734   9.584  70.830  1.00  0.00    -0.159 A  
HETATM   28  C   UNL     1     -13.769   9.570  71.742  1.00  0.00    -0.309 A  
HETATM   29  S   UNL     1     -13.873   8.017  72.467  1.00  0.00     0.221 SA 
ENDBRANCH  23  25
ENDBRANCH  20  23
ENDBRANCH  17  20
ENDBRANCH  12  14
ENDBRANCH   9  10
TORSDOF 5
ENDMDL
MODEL      195
REMARK 921   NORMALIZED FREE ENERGY PREDICTED BY IDOCK:   -2.29 KCAL/MOL
REMARK 922        TOTAL FREE ENERGY PREDICTED BY IDOCK:   -3.92 KCAL/MOL
REMARK 923 INTER-LIGAND FREE ENERGY PREDICTED BY IDOCK:   -4.43 KCAL/MOL
REMARK 924 INTRA-LIGAND FREE ENERGY PREDICTED BY IDOCK:    0.51 KCAL/MOL
REMARK 927      BINDING AFFINITY PREDICTED BY RF-SCORE:    0.00 PKD
ROOT
HETATM    1  O   UNL     1     -12.394  12.704  64.583  1.00  0.00    -0.435 OA 
HETATM    2  C   UNL     1     -12.171  14.014  64.760  1.00  0.00    -0.433 C  
HETATM    3  O   UNL     1     -12.866  14.857  64.206  1.00  0.00    -0.607 OA 
HETATM    4  C   UNL     1     -11.145  14.427  65.763  1.00  0.00    -0.316 A  
HETATM    5  C   UNL     1     -11.490  15.590  66.486  1.00  0.00     0.080 A  
HETATM    6  C   UNL     1     -10.622  16.154  67.420  1.00  0.00    -0.311 A  
HETATM    7  C   UNL     1      -9.390  15.563  67.657  1.00  0.00    -0.203 A  
HETATM    8  C   UNL     1      -9.027  14.408  66.960  1.00  0.00    -0.257 A  
HETATM    9  C   UNL     1      -9.885  13.840  65.995  1.00  0.00    -0.298 A  
ENDROOT
BRANCH   9  10
HETATM   10  C   UNL     1      -9.437  12.592  65.324  1.00  0.00     0.200 C  
HETATM   11  O   UNL     1      -9.854  12.393  64.188  1.00  0.00    -0.230 OA 
HETATM   12  N   UNL     1      -8.631  11.736  66.064  1.00  0.00    -0.389 N  
HETATM   13  H   UNL     1      -8.378  12.044  67.003  1.00  0.00     0.000 HD 
BRANCH  12  14
HETATM   14  C   UNL     1      -8.124  10.479  65.651  1.00  0.00    -0.161 A  
HETATM   15  C   UNL     1      -6.839  10.292  65.136  1.00  0.00    -0.120 A  
HETATM   16  C   UNL     1      -6.404   9.026  64.723  1.00  0.00    -0.066 A  
HETATM   17  C   UNL     1      -7.257   7.927  64.833  1.00  0.00    -0.066 A  
HETATM   18  C   UNL     1      -8.971   9.364  65.758  1.00  0.00    -0.227 A  
HETATM   19  C   UNL     1      -8.547   8.092  65.342  1.00  0.00    -0.154 A  
BRANCH  17  20
HETATM   20  S   UNL     1      -6.737   6.338  64.200  1.00  0.00    -0.038 S  
HETATM   21  O   UNL     1      -6.383   5.501  65.330  1.00  0.00    -0.036 OA 
HETATM   22  O   UNL     1      -5.778   6.610  63.152  1.00  0.00    -0.033 OA 
BRANCH  20  23
HETATM   23  N   UNL     1      -8.116   5.728  63.433  1.00  0.00    -0.130 N  
HETATM   24  H   UNL     1      -8.522   6.142  62.593  1.00  0.00     0.000 HD 
BRANCH  23  25
HETATM   25  C   UNL     1      -8.646   4.590  64.075  1.00  0.00    -0.133 A  
HETATM   26  N   UNL     1      -7.945   3.485  64.038  1.00  0.00    -0.084 NA 
HETATM   27  C   UNL     1      -8.624   2.501  64.731  1.00  0.00    -0.098 A  
HETATM   28  C   UNL     1      -9.779   2.909  65.363  1.00  0.00     0.137 A  
HETATM   29  S   UNL     1     -10.066   4.567  65.019  1.00  0.00    -0.027 SA 
ENDBRANCH  23  25
ENDBRANCH  20  23
ENDBRANCH  17  20
ENDBRANCH  12  14
ENDBRANCH   9  10
TORSDOF 5
ENDMDL
MODEL      196
REMARK 921   NORMALIZED FREE ENERGY PREDICTED BY IDOCK:   -1.06 KCAL/MOL
REMARK 922        TOTAL FREE ENERGY PREDICTED BY IDOCK:   -2.33 KCAL/MOL
REMARK 923 INTER-LIGAND FREE ENERGY PREDICTED BY IDOCK:   -2.83 KCAL/MOL
REMARK 924 INTRA-LIGAND FREE ENERGY PREDICTED BY IDOCK:    0.49 KCAL/MOL
REMARK 927      BINDING AFFINITY PREDICTED BY RF-SCORE:    0.00 PKD
ROOT
HETATM    1  O   UNL     1      -6.677  12.109  69.646  1.00  0.00    -0.075 OA 
HETATM    2  C   UNL     1      -6.773  10.900  69.073  1.00  0.00    -0.070 C  
HETATM    3  O   UNL     1      -5.813  10.141  69.029  1.00  0.00    -0.038 OA 
HETATM    4  C   UNL     1      -8.118  10.441  68.615  1.00  0.00    -0.118 A  
HETATM    5  C   UNL     1      -8.347   9.061  68.814  1.00  0.00    -0.122 A  
HETATM    6  C   UNL     1      -9.524   8.448  68.388  1.00  0.00    -0.145 A  
HETATM    7  C   UNL     1     -10.504   9.202  67.760  1.00  0.00    -0.306 A  
HETATM    8  C   UNL     1     -10.305  10.570  67.557  1.00  0.00    -0.265 A  
HETATM    9  C   UNL     1      -9.108  11.200  67.960  1.00  0.00    -0.153 A  
ENDROOT
BRANCH   9  10
HETATM   10  C   UNL     1      -8.991  12.664  67.738  1.00  0.00    -0.189 C  
HETATM   11  O   UNL     1      -8.919  13.044  66.574  1.00  0.00    -0.178 OA 
HETATM   12  N   UNL     1      -8.917  13.467  68.869  1.00  0.00    -0.375 N  
HETATM   13  H   UNL     1      -8.983  12.993  69.770  1.00  0.00     0.000 HD 
BRANCH  12  14
HETATM   14  C   UNL     1      -8.759  14.874  68.902  1.00  0.00    -0.180 A  
HETATM   15  C   UNL     1      -7.525  15.519  68.788  1.00  0.00    -0.141 A  
HETATM   16  C   UNL     1      -7.430  16.916  68.851  1.00  0.00    -0.238 A  
HETATM   17  C   UNL     1      -8.583  17.683  69.021  1.00  0.00    -0.010 A  
HETATM   18  C   UNL     1      -9.910  15.660  69.071  1.00  0.00    -0.236 A  
HETATM   19  C   UNL     1      -9.827  17.059  69.141  1.00  0.00    -0.198 A  
BRANCH  17  20
HETATM   20  S   UNL     1      -8.445  19.455  69.215  1.00  0.00     0.164 S  
HETATM   21  O   UNL     1      -7.046  19.774  69.422  1.00  0.00    -0.351 OA 
HETATM   22  O   UNL     1      -9.442  19.838  70.189  1.00  0.00     0.366 OA 
BRANCH  20  23
HETATM   23  N   UNL     1      -8.970  20.074  67.731  1.00  0.00    -0.325 N  
HETATM   24  H   UNL     1      -8.933  21.065  67.490  1.00  0.00     0.000 HD 
BRANCH  23  25
HETATM   25  C   UNL     1      -9.464  19.079  66.861  1.00  0.00    -0.316 A  
HETATM   26  N   UNL     1     -10.751  19.057  66.626  1.00  0.00    -0.389 NA 
HETATM   27  C   UNL     1     -11.028  18.028  65.747  1.00  0.00     0.249 A  
HETATM   28  C   UNL     1      -9.930  17.355  65.256  1.00  0.00     0.706 A  
HETATM   29  S   UNL     1      -8.503  17.984  65.976  1.00  0.00     0.107 SA 
ENDBRANCH  23  25
ENDBRANCH  20  23
ENDBRANCH  17  20
ENDBRANCH  12  14
ENDBRANCH   9  10
TORSDOF 5
ENDMDL
MODEL      197
REMARK 921   NORMALIZED FREE ENERGY PREDICTED BY IDOCK:   -0.84 KCAL/MOL
REMARK 922        TOTAL FREE ENERGY PREDICTED BY IDOCK:   -2.06 KCAL/MOL
REMARK 923 INTER-LIGAND FREE ENERGY PREDICTED BY IDOCK:   -2.70 KCAL/MOL
REMARK 924 INTRA-LIGAND FREE ENERGY PREDICTED BY IDOCK:    0.64 KCAL/MOL
REMARK 927      BINDING AFFINITY PREDICTED BY RF-SCORE:    0.00 PKD
ROOT
HETATM    1  O   UNL     1     -10.339  10.434  64.971  1.00  0.00    -0.306 OA 
HETATM    2  C   UNL     1      -9.615   9.969  63.943  1.00  0.00    -0.152 C  
HETATM    3  O   UNL     1     -10.146   9.638  62.891  1.00  0.00     0.939 OA 
HETATM    4  C   UNL     1      -8.126   9.997  64.058  1.00  0.00    -0.153 A  
HETATM    5  C   UNL     1      -7.467  10.311  62.848  1.00  0.00    -0.140 A  
HETATM    6  C   UNL     1      -6.076  10.320  62.756  1.00  0.00    -0.139 A  
HETATM    7  C   UNL     1      -5.311  10.023  63.874  1.00  0.00    -0.101 A  
HETATM    8  C   UNL     1      -5.938   9.716  65.084  1.00  0.00    -0.074 A  
HETATM    9  C   UNL     1      -7.345   9.679  65.187  1.00  0.00    -0.115 A  
ENDROOT
BRANCH   9  10
HETATM   10  C   UNL     1      -7.931   9.377  66.518  1.00  0.00    -0.108 C  
HETATM   11  O   UNL     1      -8.246  10.336  67.216  1.00  0.00    -0.120 OA 
HETATM   12  N   UNL     1      -8.017   8.038  66.876  1.00  0.00    -0.103 N  
HETATM   13  H   UNL     1      -7.703   7.358  66.184  1.00  0.00     0.000 HD 
BRANCH  12  14
HETATM   14  C   UNL     1      -8.496   7.517  68.104  1.00  0.00    -0.124 A  
HETATM   15  C   UNL     1      -9.738   7.842  68.653  1.00  0.00    -0.162 A  
HETATM   16  C   UNL     1     -10.146   7.311  69.884  1.00  0.00    -0.196 A  
HETATM   17  C   UNL     1      -9.308   6.434  70.574  1.00  0.00    -0.162 A  
HETATM   18  C   UNL     1      -7.665   6.631  68.809  1.00  0.00    -0.109 A  
HETATM   19  C   UNL     1      -8.061   6.097  70.045  1.00  0.00    -0.119 A  
BRANCH  17  20
HETATM   20  S   UNL     1      -9.784   5.849  72.195  1.00  0.00    -0.154 S  
HETATM   21  O   UNL     1      -8.856   4.807  72.584  1.00  0.00    -0.114 OA 
HETATM   22  O   UNL     1     -11.206   5.589  72.134  1.00  0.00    -0.243 OA 
BRANCH  20  23
HETATM   23  N   UNL     1      -9.594   7.201  73.194  1.00  0.00    -0.159 N  
HETATM   24  H   UNL     1     -10.344   7.586  73.769  1.00  0.00     0.000 HD 
BRANCH  23  25
HETATM   25  C   UNL     1      -8.291   7.741  73.150  1.00  0.00    -0.157 A  
HETATM   26  N   UNL     1      -7.890   8.277  72.025  1.00  0.00    -0.121 NA 
HETATM   27  C   UNL     1      -6.604   8.757  72.192  1.00  0.00    -0.031 A  
HETATM   28  C   UNL     1      -6.097   8.664  73.471  1.00  0.00    -0.104 A  
HETATM   29  S   UNL     1      -7.240   7.881  74.485  1.00  0.00    -0.172 SA 
ENDBRANCH  23  25
ENDBRANCH  20  23
ENDBRANCH  17  20
ENDBRANCH  12  14
ENDBRANCH   9  10
TORSDOF 5
ENDMDL
MODEL      198
REMARK 921   NORMALIZED FREE ENERGY PREDICTED BY IDOCK:   -0.47 KCAL/MOL
REMARK 922        TOTAL FREE ENERGY PREDICTED BY IDOCK:   -1.57 KCAL/MOL
REMARK 923 INTER-LIGAND FREE ENERGY PREDICTED BY IDOCK:   -1.70 KCAL/MOL
REMARK 924 INTRA-LIGAND FREE ENERGY PREDICTED BY IDOCK:    0.13 KCAL/MOL
REMARK 927      BINDING AFFINITY PREDICTED BY RF-SCORE:    0.00 PKD
ROOT
HETATM    1  O   UNL     1     -10.233   7.966  66.314  1.00  0.00    -0.111 OA 
HETATM    2  C   UNL     1      -9.712   6.731  66.375  1.00  0.00    -0.064 C  
HETATM    3  O   UNL     1     -10.424   5.738  66.308  1.00  0.00    -0.164 OA 
HETATM    4  C   UNL     1      -8.225   6.593  66.382  1.00  0.00    -0.117 A  
HETATM    5  C   UNL     1      -7.754   5.480  65.650  1.00  0.00    -0.088 A  
HETATM    6  C   UNL     1      -6.397   5.160  65.601  1.00  0.00    -0.035 A  
HETATM    7  C   UNL     1      -5.480   5.951  66.275  1.00  0.00    -0.013 A  
HETATM    8  C   UNL     1      -5.919   7.062  67.000  1.00  0.00    -0.026 A  
HETATM    9  C   UNL     1      -7.291   7.384  67.079  1.00  0.00    -0.097 A  
ENDROOT
BRANCH   9  10
HETATM   10  C   UNL     1      -7.670   8.601  67.843  1.00  0.00    -0.102 C  
HETATM   11  O   UNL     1      -7.758   8.486  69.061  1.00  0.00    -0.092 OA 
HETATM   12  N   UNL     1      -7.947   9.744  67.104  1.00  0.00    -0.102 N  
HETATM   13  H   UNL     1      -7.835   9.672  66.092  1.00  0.00     0.000 HD 
BRANCH  12  14
HETATM   14  C   UNL     1      -8.368  10.999  67.608  1.00  0.00    -0.117 A  
HETATM   15  C   UNL     1      -8.771  11.209  68.929  1.00  0.00    -0.086 A  
HETATM   16  C   UNL     1      -9.199  12.471  69.362  1.00  0.00     1.217 A  
HETATM   17  C   UNL     1      -9.218  13.542  68.470  1.00  0.00    -0.101 A  
HETATM   18  C   UNL     1      -8.391  12.088  66.721  1.00  0.00    -0.135 A  
HETATM   19  C   UNL     1      -8.823  13.354  67.143  1.00  0.00    -0.225 A  
BRANCH  17  20
HETATM   20  S   UNL     1      -9.872  15.120  68.997  1.00  0.00    -0.246 S  
HETATM   21  O   UNL     1     -10.096  15.056  70.428  1.00  0.00     0.009 OA 
HETATM   22  O   UNL     1     -10.957  15.436  68.093  1.00  0.00    -0.273 OA 
BRANCH  20  23
HETATM   23  N   UNL     1      -8.633  16.218  68.650  1.00  0.00    -0.210 N  
HETATM   24  H   UNL     1      -7.666  15.940  68.482  1.00  0.00     0.000 HD 
BRANCH  23  25
HETATM   25  C   UNL     1      -9.075  17.557  68.618  1.00  0.00    -0.263 A  
HETATM   26  N   UNL     1      -8.340  18.428  67.976  1.00  0.00    -0.265 NA 
HETATM   27  C   UNL     1      -8.947  19.667  68.049  1.00  0.00    -0.322 A  
HETATM   28  C   UNL     1     -10.183  19.688  68.661  1.00  0.00    -0.394 A  
HETATM   29  S   UNL     1     -10.566  18.114  69.231  1.00  0.00     0.717 SA 
ENDBRANCH  23  25
ENDBRANCH  20  23
ENDBRANCH  17  20
ENDBRANCH  12  14
ENDBRANCH   9  10
TORSDOF 5
ENDMDL
MODEL      199
REMARK 921   NORMALIZED FREE ENERGY PREDICTED BY IDOCK:    0.03 KCAL/MOL
REMARK 922        TOTAL FREE ENERGY PREDICTED BY IDOCK:   -0.92 KCAL/MOL
REMARK 923 INTER-LIGAND FREE ENERGY PREDICTED BY IDOCK:   -2.48 KCAL/MOL
REMARK 924 INTRA-LIGAND FREE ENERGY PREDICTED BY IDOCK:    1.56 KCAL/MOL
REMARK 927      BINDING AFFINITY PREDICTED BY RF-SCORE:    0.00 PKD
ROOT
HETATM    1  O   UNL     1      -9.051   5.170  71.431  1.00  0.00    -0.140 OA 
HETATM    2  C   UNL     1      -8.798   4.121  70.634  1.00  0.00    -0.079 C  
HETATM    3  O   UNL     1      -8.525   3.022  71.099  1.00  0.00    -0.061 OA 
HETATM    4  C   UNL     1      -8.998   4.288  69.164  1.00  0.00    -0.157 A  
HETATM    5  C   UNL     1      -9.525   3.142  68.527  1.00  0.00    -0.207 A  
HETATM    6  C   UNL     1      -9.718   3.097  67.147  1.00  0.00     0.116 A  
HETATM    7  C   UNL     1      -9.394   4.200  66.372  1.00  0.00    -0.178 A  
HETATM    8  C   UNL     1      -8.878   5.348  66.978  1.00  0.00    -0.110 A  
HETATM    9  C   UNL     1      -8.655   5.400  68.370  1.00  0.00    -0.095 A  
ENDROOT
BRANCH   9  10
HETATM   10  C   UNL     1      -8.134   6.671  68.938  1.00  0.00    -0.116 C  
HETATM   11  O   UNL     1      -7.740   6.638  70.099  1.00  0.00    -0.097 OA 
HETATM   12  N   UNL     1      -8.194   7.793  68.122  1.00  0.00    -0.123 N  
HETATM   13  H   UNL     1      -8.559   7.655  67.180  1.00  0.00     0.000 HD 
BRANCH  12  14
HETATM   14  C   UNL     1      -7.800   9.111  68.462  1.00  0.00    -0.101 A  
HETATM   15  C   UNL     1      -7.685   9.572  69.776  1.00  0.00    -0.123 A  
HETATM   16  C   UNL     1      -7.313  10.896  70.047  1.00  0.00     0.219 A  
HETATM   17  C   UNL     1      -7.042  11.771  68.996  1.00  0.00    -0.100 A  
HETATM   18  C   UNL     1      -7.522  10.003  67.414  1.00  0.00    -0.091 A  
HETATM   19  C   UNL     1      -7.153  11.332  67.674  1.00  0.00    -0.090 A  
BRANCH  17  20
HETATM   20  S   UNL     1      -6.679  13.486  69.345  1.00  0.00     0.000 S  
HETATM   21  O   UNL     1      -5.730  13.528  70.440  1.00  0.00    -0.134 OA 
HETATM   22  O   UNL     1      -7.954  14.161  69.446  1.00  0.00     0.099 OA 
BRANCH  20  23
HETATM   23  N   UNL     1      -5.955  14.052  67.925  1.00  0.00    -0.144 N  
HETATM   24  H   UNL     1      -5.113  13.642  67.520  1.00  0.00     0.000 HD 
BRANCH  23  25
HETATM   25  C   UNL     1      -6.635  15.151  67.359  1.00  0.00    -0.056 A  
HETATM   26  N   UNL     1      -5.985  16.281  67.246  1.00  0.00    -0.234 NA 
HETATM   27  C   UNL     1      -6.815  17.218  66.660  1.00  0.00    -0.237 A  
HETATM   28  C   UNL     1      -8.045  16.748  66.249  1.00  0.00    -0.330 A  
HETATM   29  S   UNL     1      -8.197  15.092  66.677  1.00  0.00     0.085 SA 
ENDBRANCH  23  25
ENDBRANCH  20  23
ENDBRANCH  17  20
ENDBRANCH  12  14
ENDBRANCH   9  10
TORSDOF 5
ENDMDL
MODEL      200
REMARK 921   NORMALIZED FREE ENERGY PREDICTED BY IDOCK:    1.17 KCAL/MOL
REMARK 922        TOTAL FREE ENERGY PREDICTED BY IDOCK:    0.54 KCAL/MOL
REMARK 923 INTER-LIGAND FREE ENERGY PREDICTED BY IDOCK:    0.26 KCAL/MOL
REMARK 924 INTRA-LIGAND FREE ENERGY PREDICTED BY IDOCK:    0.28 KCAL/MOL
REMARK 927      BINDING AFFINITY PREDICTED BY RF-SCORE:    0.00 PKD
ROOT
HETATM    1  O   UNL     1      -9.687   7.714  72.598  1.00  0.00    -0.165 OA 
HETATM    2  C   UNL     1     -10.327   6.537  72.657  1.00  0.00    -0.192 C  
HETATM    3  O   UNL     1      -9.847   5.583  73.256  1.00  0.00    -0.159 OA 
HETATM    4  C   UNL     1     -11.709   6.456  72.097  1.00  0.00    -0.366 A  
HETATM    5  C   UNL     1     -12.577   5.628  72.842  1.00  0.00     0.586 A  
HETATM    6  C   UNL     1     -13.888   5.386  72.430  1.00  0.00     1.732 A  
HETATM    7  C   UNL     1     -14.361   5.974  71.267  1.00  0.00     1.968 A  
HETATM    8  C   UNL     1     -13.525   6.803  70.516  1.00  0.00     1.260 A  
HETATM    9  C   UNL     1     -12.189   7.037  70.907  1.00  0.00    -0.388 A  
ENDROOT
BRANCH   9  10
HETATM   10  C   UNL     1     -11.377   7.958  70.070  1.00  0.00    -0.027 C  
HETATM   11  O   UNL     1     -10.533   7.447  69.342  1.00  0.00    -0.209 OA 
HETATM   12  N   UNL     1     -11.608   9.319  70.230  1.00  0.00    -0.440 N  
HETATM   13  H   UNL     1     -12.343   9.584  70.886  1.00  0.00     0.000 HD 
BRANCH  12  14
HETATM   14  C   UNL     1     -10.929  10.377  69.578  1.00  0.00    -0.262 A  
HETATM   15  C   UNL     1     -11.321  11.716  69.656  1.00  0.00    -0.308 A  
HETATM   16  C   UNL     1     -10.620  12.716  68.968  1.00  0.00    -0.079 A  
HETATM   17  C   UNL     1      -9.506  12.379  68.198  1.00  0.00    -0.214 A  
HETATM   18  C   UNL     1      -9.805  10.054  68.801  1.00  0.00    -0.173 A  
HETATM   19  C   UNL     1      -9.099  11.047  68.104  1.00  0.00    -0.155 A  
BRANCH  17  20
HETATM   20  S   UNL     1      -8.686  13.640  67.233  1.00  0.00    -0.217 S  
HETATM   21  O   UNL     1      -7.259  13.387  67.288  1.00  0.00    -0.139 OA 
HETATM   22  O   UNL     1      -9.229  14.908  67.672  1.00  0.00    -0.183 OA 
BRANCH  20  23
HETATM   23  N   UNL     1      -9.261  13.397  65.661  1.00  0.00    -0.308 N  
HETATM   24  H   UNL     1      -8.680  13.056  64.896  1.00  0.00     0.000 HD 
BRANCH  23  25
HETATM   25  C   UNL     1     -10.628  13.716  65.519  1.00  0.00    -0.296 A  
HETATM   26  N   UNL     1     -11.507  12.830  65.914  1.00  0.00    -0.338 NA 
HETATM   27  C   UNL     1     -12.776  13.335  65.705  1.00  0.00    -0.308 A  
HETATM   28  C   UNL     1     -12.831  14.636  65.249  1.00  0.00     0.024 A  
HETATM   29  S   UNL     1     -11.236  15.223  65.003  1.00  0.00    -0.378 SA 
ENDBRANCH  23  25
ENDBRANCH  20  23
ENDBRANCH  17  20
ENDBRANCH  12  14
ENDBRANCH   9  10
TORSDOF 5
ENDMDL
MODEL      201
REMARK 921   NORMALIZED FREE ENERGY PREDICTED BY IDOCK:    2.86 KCAL/MOL
REMARK 922        TOTAL FREE ENERGY PREDICTED BY IDOCK:    2.73 KCAL/MOL
REMARK 923 INTER-LIGAND FREE ENERGY PREDICTED BY IDOCK:    0.02 KCAL/MOL
REMARK 924 INTRA-LIGAND FREE ENERGY PREDICTED BY IDOCK:    2.70 KCAL/MOL
REMARK 927      BINDING AFFINITY PREDICTED BY RF-SCORE:    0.00 PKD
ROOT
HETATM    1  O   UNL     1     -10.666   7.377  67.102  1.00  0.00    -0.323 OA 
HETATM    2  C   UNL     1     -10.383   8.421  66.309  1.00  0.00     0.215 C  
HETATM    3  O   UNL     1     -10.619   8.388  65.108  1.00  0.00     2.941 OA 
HETATM    4  C   UNL     1      -9.904   9.683  66.948  1.00  0.00    -0.257 A  
HETATM    5  C   UNL     1     -10.393  10.856  66.330  1.00  0.00    -0.306 A  
HETATM    6  C   UNL     1     -10.000  12.124  66.755  1.00  0.00    -0.218 A  
HETATM    7  C   UNL     1      -9.113  12.249  67.814  1.00  0.00    -0.191 A  
HETATM    8  C   UNL     1      -8.620  11.105  68.447  1.00  0.00    -0.152 A  
HETATM    9  C   UNL     1      -8.990   9.815  68.012  1.00  0.00    -0.118 A  
ENDROOT
BRANCH   9  10
HETATM   10  C   UNL     1      -8.447   8.653  68.761  1.00  0.00    -0.129 C  
HETATM   11  O   UNL     1      -7.232   8.488  68.725  1.00  0.00    -0.075 OA 
HETATM   12  N   UNL     1      -9.369   7.824  69.389  1.00  0.00    -0.153 N  
HETATM   13  H   UNL     1     -10.350   8.095  69.317  1.00  0.00     0.000 HD 
BRANCH  12  14
HETATM   14  C   UNL     1      -9.089   6.642  70.117  1.00  0.00    -0.155 A  
HETATM   15  C   UNL     1      -9.324   6.500  71.487  1.00  0.00    -0.149 A  
HETATM   16  C   UNL     1      -9.004   5.311  72.156  1.00  0.00    -0.138 A  
HETATM   17  C   UNL     1      -8.451   4.243  71.450  1.00  0.00    -0.098 A  
HETATM   18  C   UNL     1      -8.534   5.557  69.419  1.00  0.00    -0.105 A  
HETATM   19  C   UNL     1      -8.205   4.364  70.080  1.00  0.00    -0.067 A  
BRANCH  17  20
HETATM   20  S   UNL     1      -7.941   2.773  72.328  1.00  0.00    -0.055 S  
HETATM   21  O   UNL     1      -7.322   1.874  71.374  1.00  0.00    -0.032 OA 
HETATM   22  O   UNL     1      -9.081   2.348  73.111  1.00  0.00    -0.073 OA 
BRANCH  20  23
HETATM   23  N   UNL     1      -6.789   3.331  73.434  1.00  0.00    -0.034 N  
HETATM   24  H   UNL     1      -6.224   2.714  74.017  1.00  0.00     0.000 HD 
BRANCH  23  25
HETATM   25  C   UNL     1      -6.692   4.738  73.466  1.00  0.00    -0.068 A  
HETATM   26  N   UNL     1      -6.009   5.325  72.518  1.00  0.00    -0.025 NA 
HETATM   27  C   UNL     1      -6.046   6.692  72.719  1.00  0.00    -0.053 A  
HETATM   28  C   UNL     1      -6.844   7.117  73.761  1.00  0.00    -0.072 A  
HETATM   29  S   UNL     1      -7.512   5.754  74.564  1.00  0.00    -0.086 SA 
ENDBRANCH  23  25
ENDBRANCH  20  23
ENDBRANCH  17  20
ENDBRANCH  12  14
ENDBRANCH   9  10
TORSDOF 5
ENDMDL
MODEL      202
REMARK 921   NORMALIZED FREE ENERGY PREDICTED BY IDOCK:    4.23 KCAL/MOL
REMARK 922        TOTAL FREE ENERGY PREDICTED BY IDOCK:    4.50 KCAL/MOL
REMARK 923 INTER-LIGAND FREE ENERGY PREDICTED BY IDOCK:    2.92 KCAL/MOL
REMARK 924 INTRA-LIGAND FREE ENERGY PREDICTED BY IDOCK:    1.58 KCAL/MOL
REMARK 927      BINDING AFFINITY PREDICTED BY RF-SCORE:    0.00 PKD
ROOT
HETATM    1  O   UNL     1      -7.577  12.362  66.367  1.00  0.00     0.317 OA 
HETATM    2  C   UNL     1      -8.405  11.329  66.148  1.00  0.00    -0.111 C  
HETATM    3  O   UNL     1      -7.992  10.271  65.693  1.00  0.00    -0.138 OA 
HETATM    4  C   UNL     1      -9.821  11.451  66.607  1.00  0.00    -0.233 A  
HETATM    5  C   UNL     1     -10.360  10.248  67.117  1.00  0.00    -0.292 A  
HETATM    6  C   UNL     1     -11.688  10.161  67.532  1.00  0.00     1.105 A  
HETATM    7  C   UNL     1     -12.506  11.278  67.454  1.00  0.00     2.174 A  
HETATM    8  C   UNL     1     -11.996  12.481  66.960  1.00  0.00    -0.295 A  
HETATM    9  C   UNL     1     -10.661  12.578  66.513  1.00  0.00    -0.266 A  
ENDROOT
BRANCH   9  10
HETATM   10  C   UNL     1     -10.189  13.903  66.034  1.00  0.00    -0.310 C  
HETATM   11  O   UNL     1     -10.295  14.128  64.833  1.00  0.00    -0.411 OA 
HETATM   12  N   UNL     1      -9.617  14.744  66.980  1.00  0.00    -0.233 N  
HETATM   13  H   UNL     1      -9.595  14.403  67.941  1.00  0.00     0.000 HD 
BRANCH  12  14
HETATM   14  C   UNL     1      -9.060  16.026  66.749  1.00  0.00    -0.244 A  
HETATM   15  C   UNL     1      -7.687  16.280  66.708  1.00  0.00    -0.295 A  
HETATM   16  C   UNL     1      -7.198  17.577  66.498  1.00  0.00    -0.298 A  
HETATM   17  C   UNL     1      -8.089  18.634  66.315  1.00  0.00    -0.244 A  
HETATM   18  C   UNL     1      -9.945  17.101  66.561  1.00  0.00    -0.308 A  
HETATM   19  C   UNL     1      -9.466  18.403  66.355  1.00  0.00    -0.297 A  
BRANCH  17  20
HETATM   20  S   UNL     1      -7.461  20.301  66.161  1.00  0.00    -0.178 S  
HETATM   21  O   UNL     1      -7.119  20.523  64.770  1.00  0.00    -0.164 OA 
HETATM   22  O   UNL     1      -6.469  20.462  67.201  1.00  0.00    -0.198 OA 
BRANCH  20  23
HETATM   23  N   UNL     1      -8.771  21.278  66.601  1.00  0.00     0.258 N  
HETATM   24  H   UNL     1      -8.987  22.166  66.149  1.00  0.00     0.000 HD 
BRANCH  23  25
HETATM   25  C   UNL     1      -9.532  20.736  67.658  1.00  0.00    -0.215 A  
HETATM   26  N   UNL     1     -10.821  20.605  67.479  1.00  0.00     0.672 NA 
HETATM   27  C   UNL     1     -11.377  20.048  68.615  1.00  0.00     1.965 A  
HETATM   28  C   UNL     1     -10.479  19.675  69.594  1.00  0.00     0.534 A  
HETATM   29  S   UNL     1      -8.890  20.104  69.106  1.00  0.00     0.629 SA 
ENDBRANCH  23  25
ENDBRANCH  20  23
ENDBRANCH  17  20
ENDBRANCH  12  14
ENDBRANCH   9  10
TORSDOF 5
ENDMDL
MODEL      203
REMARK 921   NORMALIZED FREE ENERGY PREDICTED BY IDOCK:    4.25 KCAL/MOL
REMARK 922        TOTAL FREE ENERGY PREDICTED BY IDOCK:    4.52 KCAL/MOL
REMARK 923 INTER-LIGAND FREE ENERGY PREDICTED BY IDOCK:    4.50 KCAL/MOL
REMARK 924 INTRA-LIGAND FREE ENERGY PREDICTED BY IDOCK:    0.02 KCAL/MOL
REMARK 927      BINDING AFFINITY PREDICTED BY RF-SCORE:    0.00 PKD
ROOT
HETATM    1  O   UNL     1     -11.607  14.582  63.680  1.00  0.00     0.164 OA 
HETATM    2  C   UNL     1     -11.561  13.344  63.163  1.00  0.00     0.361 C  
HETATM    3  O   UNL     1     -12.386  12.970  62.339  1.00  0.00     0.917 OA 
HETATM    4  C   UNL     1     -10.395  12.478  63.509  1.00  0.00    -0.311 A  
HETATM    5  C   UNL     1      -9.952  11.666  62.441  1.00  0.00     0.819 A  
HETATM    6  C   UNL     1      -8.915  10.749  62.603  1.00  0.00    -0.326 A  
HETATM    7  C   UNL     1      -8.291  10.628  63.835  1.00  0.00    -0.023 A  
HETATM    8  C   UNL     1      -8.705  11.423  64.906  1.00  0.00     0.280 A  
HETATM    9  C   UNL     1      -9.770  12.338  64.764  1.00  0.00    -0.033 A  
ENDROOT
BRANCH   9  10
HETATM   10  C   UNL     1     -10.126  13.170  65.943  1.00  0.00    -0.290 C  
HETATM   11  O   UNL     1      -9.485  14.203  66.107  1.00  0.00    -0.272 OA 
HETATM   12  N   UNL     1     -11.114  12.674  66.785  1.00  0.00    -0.266 N  
HETATM   13  H   UNL     1     -11.546  11.792  66.512  1.00  0.00     0.000 HD 
BRANCH  12  14
HETATM   14  C   UNL     1     -11.583  13.267  67.983  1.00  0.00    -0.336 A  
HETATM   15  C   UNL     1     -12.619  14.202  68.032  1.00  0.00     0.521 A  
HETATM   16  C   UNL     1     -13.023  14.770  69.248  1.00  0.00     0.766 A  
HETATM   17  C   UNL     1     -12.393  14.394  70.434  1.00  0.00    -0.342 A  
HETATM   18  C   UNL     1     -10.959  12.896  69.185  1.00  0.00    -0.184 A  
HETATM   19  C   UNL     1     -11.352  13.463  70.408  1.00  0.00     0.314 A  
BRANCH  17  20
HETATM   20  S   UNL     1     -12.835  15.205  71.965  1.00  0.00    -0.377 S  
HETATM   21  O   UNL     1     -12.836  14.206  73.015  1.00  0.00    -0.424 OA 
HETATM   22  O   UNL     1     -14.020  15.986  71.686  1.00  0.00    -0.240 OA 
BRANCH  20  23
HETATM   23  N   UNL     1     -11.585  16.316  72.219  1.00  0.00    -0.395 N  
HETATM   24  H   UNL     1     -11.406  16.766  73.117  1.00  0.00     0.000 HD 
BRANCH  23  25
HETATM   25  C   UNL     1     -10.816  16.556  71.061  1.00  0.00     0.497 A  
HETATM   26  N   UNL     1     -11.327  17.328  70.137  1.00  0.00     0.957 NA 
HETATM   27  C   UNL     1     -10.420  17.448  69.102  1.00  0.00    -0.231 A  
HETATM   28  C   UNL     1      -9.197  16.845  69.310  1.00  0.00    -0.005 A  
HETATM   29  S   UNL     1      -9.209  16.035  70.824  1.00  0.00     2.964 SA 
ENDBRANCH  23  25
ENDBRANCH  20  23
ENDBRANCH  17  20
ENDBRANCH  12  14
ENDBRANCH   9  10
TORSDOF 5
ENDMDL
MODEL      204
REMARK 921   NORMALIZED FREE ENERGY PREDICTED BY IDOCK:    4.42 KCAL/MOL
REMARK 922        TOTAL FREE ENERGY PREDICTED BY IDOCK:    4.74 KCAL/MOL
REMARK 923 INTER-LIGAND FREE ENERGY PREDICTED BY IDOCK:    3.29 KCAL/MOL
REMARK 924 INTRA-LIGAND FREE ENERGY PREDICTED BY IDOCK:    1.45 KCAL/MOL
REMARK 927      BINDING AFFINITY PREDICTED BY RF-SCORE:    0.00 PKD
ROOT
HETATM    1  O   UNL     1      -9.675   8.268  71.554  1.00  0.00    -0.165 OA 
HETATM    2  C   UNL     1      -8.640   7.543  72.005  1.00  0.00    -0.107 C  
HETATM    3  O   UNL     1      -8.285   7.605  73.175  1.00  0.00    -0.113 OA 
HETATM    4  C   UNL     1      -8.019   6.548  71.082  1.00  0.00    -0.112 A  
HETATM    5  C   UNL     1      -7.610   5.356  71.720  1.00  0.00    -0.098 A  
HETATM    6  C   UNL     1      -6.953   4.342  71.024  1.00  0.00    -0.036 A  
HETATM    7  C   UNL     1      -6.698   4.494  69.669  1.00  0.00    -0.041 A  
HETATM    8  C   UNL     1      -7.099   5.660  69.012  1.00  0.00    -0.068 A  
HETATM    9  C   UNL     1      -7.742   6.705  69.709  1.00  0.00    -0.113 A  
ENDROOT
BRANCH   9  10
HETATM   10  C   UNL     1      -8.165   7.896  68.929  1.00  0.00    -0.126 C  
HETATM   11  O   UNL     1      -9.148   7.766  68.207  1.00  0.00    -0.132 OA 
HETATM   12  N   UNL     1      -7.375   9.034  69.043  1.00  0.00    -0.072 N  
HETATM   13  H   UNL     1      -6.582   8.977  69.682  1.00  0.00     0.000 HD 
BRANCH  12  14
HETATM   14  C   UNL     1      -7.556  10.264  68.365  1.00  0.00    -0.092 A  
HETATM   15  C   UNL     1      -6.772  11.398  68.591  1.00  0.00    -0.070 A  
HETATM   16  C   UNL     1      -7.016  12.594  67.904  1.00  0.00    -0.110 A  
HETATM   17  C   UNL     1      -8.050  12.661  66.969  1.00  0.00    -0.085 A  
HETATM   18  C   UNL     1      -8.592  10.345  67.420  1.00  0.00    -0.125 A  
HETATM   19  C   UNL     1      -8.848  11.540  66.729  1.00  0.00    -0.183 A  
BRANCH  17  20
HETATM   20  S   UNL     1      -8.428  14.219  66.179  1.00  0.00     1.172 S  
HETATM   21  O   UNL     1      -9.296  14.970  67.065  1.00  0.00    -0.206 OA 
HETATM   22  O   UNL     1      -8.845  13.903  64.830  1.00  0.00     1.959 OA 
BRANCH  20  23
HETATM   23  N   UNL     1      -6.928  14.988  66.043  1.00  0.00     3.139 N  
HETATM   24  H   UNL     1      -6.193  14.679  65.407  1.00  0.00     0.000 HD 
BRANCH  23  25
HETATM   25  C   UNL     1      -6.799  16.100  66.901  1.00  0.00    -0.113 A  
HETATM   26  N   UNL     1      -5.689  16.792  66.843  1.00  0.00    -0.260 NA 
HETATM   27  C   UNL     1      -5.766  17.838  67.742  1.00  0.00    -0.142 A  
HETATM   28  C   UNL     1      -6.975  17.977  68.390  1.00  0.00    -0.236 A  
HETATM   29  S   UNL     1      -8.029  16.708  67.913  1.00  0.00    -0.175 SA 
ENDBRANCH  23  25
ENDBRANCH  20  23
ENDBRANCH  17  20
ENDBRANCH  12  14
ENDBRANCH   9  10
TORSDOF 5
ENDMDL
MODEL      205
REMARK 921   NORMALIZED FREE ENERGY PREDICTED BY IDOCK:    6.70 KCAL/MOL
REMARK 922        TOTAL FREE ENERGY PREDICTED BY IDOCK:    7.69 KCAL/MOL
REMARK 923 INTER-LIGAND FREE ENERGY PREDICTED BY IDOCK:    6.38 KCAL/MOL
REMARK 924 INTRA-LIGAND FREE ENERGY PREDICTED BY IDOCK:    1.31 KCAL/MOL
REMARK 927      BINDING AFFINITY PREDICTED BY RF-SCORE:    0.00 PKD
ROOT
HETATM    1  O   UNL     1      -9.766   8.428  71.992  1.00  0.00    -0.226 OA 
HETATM    2  C   UNL     1      -8.995   8.310  73.083  1.00  0.00    -0.231 C  
HETATM    3  O   UNL     1      -9.394   8.671  74.183  1.00  0.00     1.025 OA 
HETATM    4  C   UNL     1      -7.691   7.596  72.952  1.00  0.00    -0.122 A  
HETATM    5  C   UNL     1      -7.358   6.806  74.075  1.00  0.00    -0.093 A  
HETATM    6  C   UNL     1      -6.147   6.119  74.153  1.00  0.00    -0.065 A  
HETATM    7  C   UNL     1      -5.244   6.200  73.104  1.00  0.00    -0.031 A  
HETATM    8  C   UNL     1      -5.552   6.968  71.978  1.00  0.00    -0.037 A  
HETATM    9  C   UNL     1      -6.762   7.688  71.896  1.00  0.00    -0.054 A  
ENDROOT
BRANCH   9  10
HETATM   10  C   UNL     1      -7.027   8.453  70.650  1.00  0.00    -0.040 C  
HETATM   11  O   UNL     1      -6.947   7.836  69.593  1.00  0.00    -0.046 OA 
HETATM   12  N   UNL     1      -7.284   9.811  70.791  1.00  0.00    -0.069 N  
HETATM   13  H   UNL     1      -7.306  10.176  71.743  1.00  0.00     0.000 HD 
BRANCH  12  14
HETATM   14  C   UNL     1      -7.518  10.743  69.749  1.00  0.00    -0.018 A  
HETATM   15  C   UNL     1      -7.932  12.060  69.965  1.00  0.00     2.316 A  
HETATM   16  C   UNL     1      -8.169  12.927  68.890  1.00  0.00     0.247 A  
HETATM   17  C   UNL     1      -7.982  12.481  67.582  1.00  0.00    -0.170 A  
HETATM   18  C   UNL     1      -7.331  10.308  68.427  1.00  0.00    -0.084 A  
HETATM   19  C   UNL     1      -7.571  11.167  67.344  1.00  0.00    -0.113 A  
BRANCH  17  20
HETATM   20  S   UNL     1      -8.394  13.555  66.214  1.00  0.00     1.178 S  
HETATM   21  O   UNL     1      -9.838  13.582  66.086  1.00  0.00    -0.286 OA 
HETATM   22  O   UNL     1      -7.562  13.143  65.105  1.00  0.00     4.961 OA 
BRANCH  20  23
HETATM   23  N   UNL     1      -7.824  15.073  66.695  1.00  0.00    -0.252 N  
HETATM   24  H   UNL     1      -6.877  15.236  67.037  1.00  0.00     0.000 HD 
BRANCH  23  25
HETATM   25  C   UNL     1      -8.794  16.090  66.574  1.00  0.00    -0.305 A  
HETATM   26  N   UNL     1      -8.452  17.306  66.917  1.00  0.00    -0.215 NA 
HETATM   27  C   UNL     1      -9.528  18.149  66.712  1.00  0.00    -0.294 A  
HETATM   28  C   UNL     1     -10.632  17.570  66.123  1.00  0.00    -0.211 A  
HETATM   29  S   UNL     1     -10.341  15.895  65.883  1.00  0.00    -0.385 SA 
ENDBRANCH  23  25
ENDBRANCH  20  23
ENDBRANCH  17  20
ENDBRANCH  12  14
ENDBRANCH   9  10
TORSDOF 5
ENDMDL
MODEL      206
REMARK 921   NORMALIZED FREE ENERGY PREDICTED BY IDOCK:   10.05 KCAL/MOL
REMARK 922        TOTAL FREE ENERGY PREDICTED BY IDOCK:   12.02 KCAL/MOL
REMARK 923 INTER-LIGAND FREE ENERGY PREDICTED BY IDOCK:   11.39 KCAL/MOL
REMARK 924 INTRA-LIGAND FREE ENERGY PREDICTED BY IDOCK:    0.63 KCAL/MOL
REMARK 927      BINDING AFFINITY PREDICTED BY RF-SCORE:    0.00 PKD
ROOT
HETATM    1  O   UNL     1     -10.419   8.365  73.458  1.00  0.00     0.496 OA 
HETATM    2  C   UNL     1     -10.950   7.150  73.253  1.00  0.00    -0.286 C  
HETATM    3  O   UNL     1     -10.898   6.282  74.114  1.00  0.00    -0.074 OA 
HETATM    4  C   UNL     1     -11.736   6.925  72.003  1.00  0.00    -0.336 A  
HETATM    5  C   UNL     1     -12.862   6.091  72.181  1.00  0.00     0.379 A  
HETATM    6  C   UNL     1     -13.674   5.722  71.109  1.00  0.00     3.384 A  
HETATM    7  C   UNL     1     -13.383   6.186  69.835  1.00  0.00     5.659 A  
HETATM    8  C   UNL     1     -12.279   7.019  69.634  1.00  0.00     0.615 A  
HETATM    9  C   UNL     1     -11.434   7.380  70.704  1.00  0.00    -0.307 A  
ENDROOT
BRANCH   9  10
HETATM   10  C   UNL     1     -10.302   8.296  70.410  1.00  0.00    -0.205 C  
HETATM   11  O   UNL     1      -9.173   7.823  70.485  1.00  0.00    -0.160 OA 
HETATM   12  N   UNL     1     -10.621   9.619  70.131  1.00  0.00    -0.250 N  
HETATM   13  H   UNL     1     -11.613   9.856  70.116  1.00  0.00     0.000 HD 
BRANCH  12  14
HETATM   14  C   UNL     1      -9.713  10.674  69.867  1.00  0.00     0.290 A  
HETATM   15  C   UNL     1     -10.083  11.890  69.288  1.00  0.00     0.272 A  
HETATM   16  C   UNL     1      -9.132  12.887  69.030  1.00  0.00     0.498 A  
HETATM   17  C   UNL     1      -7.794  12.674  69.363  1.00  0.00     0.742 A  
HETATM   18  C   UNL     1      -8.363  10.475  70.199  1.00  0.00     0.574 A  
HETATM   19  C   UNL     1      -7.402  11.464  69.941  1.00  0.00     0.479 A  
BRANCH  17  20
HETATM   20  S   UNL     1      -6.570  13.901  68.929  1.00  0.00    -0.108 S  
HETATM   21  O   UNL     1      -5.406  13.687  69.767  1.00  0.00    -0.085 OA 
HETATM   22  O   UNL     1      -7.253  15.176  68.926  1.00  0.00    -0.116 OA 
BRANCH  20  23
HETATM   23  N   UNL     1      -6.197  13.560  67.315  1.00  0.00    -0.066 N  
HETATM   24  H   UNL     1      -6.039  14.280  66.610  1.00  0.00     0.000 HD 
BRANCH  23  25
HETATM   25  C   UNL     1      -6.126  12.177  67.046  1.00  0.00    -0.097 A  
HETATM   26  N   UNL     1      -5.286  11.459  67.747  1.00  0.00    -0.044 NA 
HETATM   27  C   UNL     1      -5.380  10.141  67.345  1.00  0.00    -0.041 A  
HETATM   28  C   UNL     1      -6.362   9.871  66.415  1.00  0.00    -0.071 A  
HETATM   29  S   UNL     1      -7.149  11.332  65.974  1.00  0.00     0.249 SA 
ENDBRANCH  23  25
ENDBRANCH  20  23
ENDBRANCH  17  20
ENDBRANCH  12  14
ENDBRANCH   9  10
TORSDOF 5
ENDMDL
MODEL      207
REMARK 921   NORMALIZED FREE ENERGY PREDICTED BY IDOCK:   14.84 KCAL/MOL
REMARK 922        TOTAL FREE ENERGY PREDICTED BY IDOCK:   18.22 KCAL/MOL
REMARK 923 INTER-LIGAND FREE ENERGY PREDICTED BY IDOCK:   17.26 KCAL/MOL
REMARK 924 INTRA-LIGAND FREE ENERGY PREDICTED BY IDOCK:    0.96 KCAL/MOL
REMARK 927      BINDING AFFINITY PREDICTED BY RF-SCORE:    0.00 PKD
ROOT
HETATM    1  O   UNL     1      -7.703  12.068  65.892  1.00  0.00     0.576 OA 
HETATM    2  C   UNL     1      -7.872  11.091  64.989  1.00  0.00     0.352 C  
HETATM    3  O   UNL     1      -7.039  10.204  64.850  1.00  0.00    -0.133 OA 
HETATM    4  C   UNL     1      -9.170  11.027  64.253  1.00  0.00    -0.171 A  
HETATM    5  C   UNL     1      -9.627   9.711  64.018  1.00  0.00     0.149 A  
HETATM    6  C   UNL     1     -10.790   9.461  63.290  1.00  0.00     6.129 A  
HETATM    7  C   UNL     1     -11.526  10.522  62.786  1.00  0.00     2.561 A  
HETATM    8  C   UNL     1     -11.100  11.834  63.011  1.00  0.00    -0.075 A  
HETATM    9  C   UNL     1      -9.913  12.101  63.725  1.00  0.00    -0.343 A  
ENDROOT
BRANCH   9  10
HETATM   10  C   UNL     1      -9.548  13.525  63.948  1.00  0.00     2.371 C  
HETATM   11  O   UNL     1      -8.753  14.023  63.159  1.00  0.00     9.073 OA 
HETATM   12  N   UNL     1     -10.098  14.145  65.063  1.00  0.00    -0.569 N  
HETATM   13  H   UNL     1     -10.739  13.587  65.627  1.00  0.00     0.000 HD 
BRANCH  12  14
HETATM   14  C   UNL     1      -9.861  15.472  65.498  1.00  0.00    -0.313 A  
HETATM   15  C   UNL     1      -8.586  16.022  65.652  1.00  0.00     0.637 A  
HETATM   16  C   UNL     1      -8.416  17.336  66.109  1.00  0.00    -0.216 A  
HETATM   17  C   UNL     1      -9.532  18.118  66.408  1.00  0.00    -0.278 A  
HETATM   18  C   UNL     1     -10.975  16.272  65.801  1.00  0.00    -0.063 A  
HETATM   19  C   UNL     1     -10.816  17.587  66.264  1.00  0.00     0.062 A  
BRANCH  17  20
HETATM   20  S   UNL     1      -9.307  19.752  67.097  1.00  0.00    -0.374 S  
HETATM   21  O   UNL     1     -10.568  20.459  66.992  1.00  0.00    -0.202 OA 
HETATM   22  O   UNL     1      -8.107  20.288  66.494  1.00  0.00    -0.286 OA 
BRANCH  20  23
HETATM   23  N   UNL     1      -8.933  19.466  68.722  1.00  0.00    -0.372 N  
HETATM   24  H   UNL     1      -9.610  19.556  69.480  1.00  0.00     0.000 HD 
BRANCH  23  25
HETATM   25  C   UNL     1      -7.587  19.091  68.921  1.00  0.00    -0.320 A  
HETATM   26  N   UNL     1      -6.872  19.799  69.757  1.00  0.00    -0.300 NA 
HETATM   27  C   UNL     1      -5.599  19.266  69.821  1.00  0.00    -0.219 A  
HETATM   28  C   UNL     1      -5.407  18.102  69.106  1.00  0.00    -0.193 A  
HETATM   29  S   UNL     1      -6.849  17.701  68.265  1.00  0.00    -0.221 SA 
ENDBRANCH  23  25
ENDBRANCH  20  23
ENDBRANCH  17  20
ENDBRANCH  12  14
ENDBRANCH   9  10
TORSDOF 5
ENDMDL
MODEL      208
REMARK 921   NORMALIZED FREE ENERGY PREDICTED BY IDOCK:   26.24 KCAL/MOL
REMARK 922        TOTAL FREE ENERGY PREDICTED BY IDOCK:   32.94 KCAL/MOL
REMARK 923 INTER-LIGAND FREE ENERGY PREDICTED BY IDOCK:   32.26 KCAL/MOL
REMARK 924 INTRA-LIGAND FREE ENERGY PREDICTED BY IDOCK:    0.68 KCAL/MOL
REMARK 927      BINDING AFFINITY PREDICTED BY RF-SCORE:    0.00 PKD
ROOT
HETATM    1  O   UNL     1      -7.840  18.842  69.530  1.00  0.00     0.092 OA 
HETATM    2  C   UNL     1      -7.723  19.170  70.826  1.00  0.00     2.491 C  
HETATM    3  O   UNL     1      -6.645  19.505  71.300  1.00  0.00     0.360 OA 
HETATM    4  C   UNL     1      -8.967  19.256  71.647  1.00  0.00     5.131 A  
HETATM    5  C   UNL     1      -8.951  20.301  72.597  1.00  0.00     3.041 A  
HETATM    6  C   UNL     1     -10.003  20.490  73.493  1.00  0.00     6.591 A  
HETATM    7  C   UNL     1     -11.100  19.642  73.453  1.00  0.00     5.946 A  
HETATM    8  C   UNL     1     -11.143  18.604  72.519  1.00  0.00     3.519 A  
HETATM    9  C   UNL     1     -10.075  18.386  71.623  1.00  0.00     4.627 A  
ENDROOT
BRANCH   9  10
HETATM   10  C   UNL     1     -10.216  17.282  70.638  1.00  0.00     1.858 C  
HETATM   11  O   UNL     1     -10.211  17.592  69.452  1.00  0.00    -0.249 OA 
HETATM   12  N   UNL     1     -10.399  16.004  71.152  1.00  0.00     0.850 N  
HETATM   13  H   UNL     1     -10.388  15.913  72.168  1.00  0.00     0.000 HD 
BRANCH  12  14
HETATM   14  C   UNL     1     -10.599  14.812  70.411  1.00  0.00     0.158 A  
HETATM   15  C   UNL     1     -11.641  13.914  70.653  1.00  0.00    -0.073 A  
HETATM   16  C   UNL     1     -11.772  12.740  69.900  1.00  0.00    -0.321 A  
HETATM   17  C   UNL     1     -10.858  12.460  68.883  1.00  0.00    -0.197 A  
HETATM   18  C   UNL     1      -9.688  14.519  69.384  1.00  0.00     0.093 A  
HETATM   19  C   UNL     1      -9.806  13.343  68.627  1.00  0.00    -0.116 A  
BRANCH  17  20
HETATM   20  S   UNL     1     -10.963  10.908  68.003  1.00  0.00    -0.288 S  
HETATM   21  O   UNL     1     -10.907  11.195  66.583  1.00  0.00    -0.266 OA 
HETATM   22  O   UNL     1     -12.086  10.193  68.569  1.00  0.00     0.058 OA 
BRANCH  20  23
HETATM   23  N   UNL     1      -9.576  10.067  68.482  1.00  0.00    -0.148 N  
HETATM   24  H   UNL     1      -8.911  10.423  69.168  1.00  0.00     0.000 HD 
BRANCH  23  25
HETATM   25  C   UNL     1      -9.435   8.822  67.833  1.00  0.00    -0.142 A  
HETATM   26  N   UNL     1     -10.512   8.260  67.346  1.00  0.00    -0.280 NA 
HETATM   27  C   UNL     1     -10.161   7.067  66.744  1.00  0.00    -0.211 A  
HETATM   28  C   UNL     1      -8.809   6.798  66.700  1.00  0.00    -0.137 A  
HETATM   29  S   UNL     1      -7.950   8.048  67.506  1.00  0.00    -0.124 SA 
ENDBRANCH  23  25
ENDBRANCH  20  23
ENDBRANCH  17  20
ENDBRANCH  12  14
ENDBRANCH   9  10
TORSDOF 5
ENDMDL
MODEL      209
REMARK 921   NORMALIZED FREE ENERGY PREDICTED BY IDOCK:   39.38 KCAL/MOL
REMARK 922        TOTAL FREE ENERGY PREDICTED BY IDOCK:   49.92 KCAL/MOL
REMARK 923 INTER-LIGAND FREE ENERGY PREDICTED BY IDOCK:   50.37 KCAL/MOL
REMARK 924 INTRA-LIGAND FREE ENERGY PREDICTED BY IDOCK:   -0.45 KCAL/MOL
REMARK 927      BINDING AFFINITY PREDICTED BY RF-SCORE:    0.00 PKD
ROOT
HETATM    1  O   UNL     1     -11.769  16.577  63.688  1.00  0.00    -0.871 OA 
HETATM    2  C   UNL     1     -12.019  15.365  63.171  1.00  0.00     2.578 C  
HETATM    3  O   UNL     1     -12.909  15.198  62.346  1.00  0.00     3.045 OA 
HETATM    4  C   UNL     1     -11.093  14.245  63.515  1.00  0.00     1.505 A  
HETATM    5  C   UNL     1     -10.856  13.353  62.447  1.00  0.00     6.016 A  
HETATM    6  C   UNL     1     -10.066  12.215  62.607  1.00  0.00     1.081 A  
HETATM    7  C   UNL     1      -9.489  11.948  63.839  1.00  0.00    -0.003 A  
HETATM    8  C   UNL     1      -9.702  12.818  64.911  1.00  0.00     0.057 A  
HETATM    9  C   UNL     1     -10.519  13.960  64.770  1.00  0.00    -0.451 A  
ENDROOT
BRANCH   9  10
HETATM   10  C   UNL     1     -10.666  14.852  65.950  1.00  0.00    -0.323 C  
HETATM   11  O   UNL     1     -10.032  15.902  65.934  1.00  0.00    -0.302 OA 
HETATM   12  N   UNL     1     -11.465  14.390  66.989  1.00  0.00    -0.346 N  
HETATM   13  H   UNL     1     -11.919  13.487  66.850  1.00  0.00     0.000 HD 
BRANCH  12  14
HETATM   14  C   UNL     1     -11.714  15.043  68.221  1.00  0.00    -0.314 A  
HETATM   15  C   UNL     1     -12.699  16.017  68.398  1.00  0.00     1.749 A  
HETATM   16  C   UNL     1     -12.882  16.643  69.639  1.00  0.00     3.177 A  
HETATM   17  C   UNL     1     -12.078  16.287  70.722  1.00  0.00     0.096 A  
HETATM   18  C   UNL     1     -10.915  14.693  69.321  1.00  0.00    -0.278 A  
HETATM   19  C   UNL     1     -11.085  15.317  70.567  1.00  0.00    -0.335 A  
BRANCH  17  20
HETATM   20  S   UNL     1     -12.240  17.168  72.269  1.00  0.00     2.443 S  
HETATM   21  O   UNL     1     -12.767  16.246  73.256  1.00  0.00    -0.473 OA 
HETATM   22  O   UNL     1     -12.932  18.401  71.966  1.00  0.00    11.835 OA 
BRANCH  20  23
HETATM   23  N   UNL     1     -10.653  17.601  72.665  1.00  0.00     3.604 N  
HETATM   24  H   UNL     1     -10.062  17.058  73.295  1.00  0.00     0.000 HD 
BRANCH  23  25
HETATM   25  C   UNL     1     -10.232  18.790  72.034  1.00  0.00     4.221 A  
HETATM   26  N   UNL     1      -9.821  18.712  70.794  1.00  0.00     2.407 NA 
HETATM   27  C   UNL     1      -9.471  19.976  70.359  1.00  0.00     1.169 A  
HETATM   28  C   UNL     1      -9.720  21.001  71.247  1.00  0.00     2.960 A  
HETATM   29  S   UNL     1     -10.346  20.353  72.709  1.00  0.00     6.126 SA 
ENDBRANCH  23  25
ENDBRANCH  20  23
ENDBRANCH  17  20
ENDBRANCH  12  14
ENDBRANCH   9  10
TORSDOF 5
ENDMDL
MODEL      210
REMARK 921   NORMALIZED FREE ENERGY PREDICTED BY IDOCK:   42.65 KCAL/MOL
REMARK 922        TOTAL FREE ENERGY PREDICTED BY IDOCK:   54.15 KCAL/MOL
REMARK 923 INTER-LIGAND FREE ENERGY PREDICTED BY IDOCK:   54.01 KCAL/MOL
REMARK 924 INTRA-LIGAND FREE ENERGY PREDICTED BY IDOCK:    0.14 KCAL/MOL
REMARK 927      BINDING AFFINITY PREDICTED BY RF-SCORE:    0.00 PKD
ROOT
HETATM    1  O   UNL     1      -8.422  12.625  66.226  1.00  0.00     0.139 OA 
HETATM    2  C   UNL     1      -8.495  11.563  65.410  1.00  0.00     0.332 C  
HETATM    3  O   UNL     1      -7.702  10.636  65.503  1.00  0.00    -0.147 OA 
HETATM    4  C   UNL     1      -9.656  11.470  64.475  1.00  0.00    -0.177 A  
HETATM    5  C   UNL     1     -10.141  10.155  64.299  1.00  0.00    -0.030 A  
HETATM    6  C   UNL     1     -11.181   9.873  63.413  1.00  0.00     5.021 A  
HETATM    7  C   UNL     1     -11.765  10.901  62.689  1.00  0.00     1.935 A  
HETATM    8  C   UNL     1     -11.308  12.212  62.850  1.00  0.00     0.216 A  
HETATM    9  C   UNL     1     -10.241  12.509  63.724  1.00  0.00    -0.360 A  
ENDROOT
BRANCH   9  10
HETATM   10  C   UNL     1      -9.839  13.933  63.863  1.00  0.00     2.473 C  
HETATM   11  O   UNL     1      -8.861  14.298  63.219  1.00  0.00     9.038 OA 
HETATM   12  N   UNL     1     -10.574  14.708  64.752  1.00  0.00    -0.561 N  
HETATM   13  H   UNL     1     -11.357  14.251  65.219  1.00  0.00     0.000 HD 
BRANCH  12  14
HETATM   14  C   UNL     1     -10.348  16.069  65.078  1.00  0.00    -0.106 A  
HETATM   15  C   UNL     1      -9.078  16.628  65.238  1.00  0.00     1.282 A  
HETATM   16  C   UNL     1      -8.920  17.976  65.584  1.00  0.00     0.662 A  
HETATM   17  C   UNL     1     -10.043  18.783  65.764  1.00  0.00    -0.029 A  
HETATM   18  C   UNL     1     -11.469  16.894  65.260  1.00  0.00     0.693 A  
HETATM   19  C   UNL     1     -11.323  18.244  65.612  1.00  0.00     1.275 A  
BRANCH  17  20
HETATM   20  S   UNL     1      -9.839  20.472  66.315  1.00  0.00     0.070 S  
HETATM   21  O   UNL     1     -11.079  21.178  66.060  1.00  0.00     2.494 OA 
HETATM   22  O   UNL     1      -8.592  20.938  65.749  1.00  0.00     0.658 OA 
BRANCH  20  23
HETATM   23  N   UNL     1      -9.580  20.333  67.981  1.00  0.00    -0.298 N  
HETATM   24  H   UNL     1      -8.707  20.595  68.439  1.00  0.00     0.000 HD 
BRANCH  23  25
HETATM   25  C   UNL     1     -10.697  19.818  68.672  1.00  0.00     0.277 A  
HETATM   26  N   UNL     1     -11.886  20.202  68.285  1.00  0.00     2.406 NA 
HETATM   27  C   UNL     1     -12.836  19.579  69.071  1.00  0.00    11.625 A  
HETATM   28  C   UNL     1     -12.349  18.657  69.974  1.00  0.00    13.230 A  
HETATM   29  S   UNL     1     -10.634  18.622  69.886  1.00  0.00     1.888 SA 
ENDBRANCH  23  25
ENDBRANCH  20  23
ENDBRANCH  17  20
ENDBRANCH  12  14
ENDBRANCH   9  10
TORSDOF 5
ENDMDL
MODEL      211
REMARK 921   NORMALIZED FREE ENERGY PREDICTED BY IDOCK:   58.89 KCAL/MOL
REMARK 922        TOTAL FREE ENERGY PREDICTED BY IDOCK:   75.14 KCAL/MOL
REMARK 923 INTER-LIGAND FREE ENERGY PREDICTED BY IDOCK:   74.55 KCAL/MOL
REMARK 924 INTRA-LIGAND FREE ENERGY PREDICTED BY IDOCK:    0.59 KCAL/MOL
REMARK 927      BINDING AFFINITY PREDICTED BY RF-SCORE:    0.00 PKD
ROOT
HETATM    1  O   UNL     1     -10.683   8.824  74.142  1.00  0.00     3.837 OA 
HETATM    2  C   UNL     1     -11.108   7.672  73.603  1.00  0.00     0.522 C  
HETATM    3  O   UNL     1     -11.016   6.614  74.213  1.00  0.00     0.189 OA 
HETATM    4  C   UNL     1     -11.829   7.727  72.297  1.00  0.00    -0.378 A  
HETATM    5  C   UNL     1     -12.891   6.801  72.193  1.00  0.00    -0.093 A  
HETATM    6  C   UNL     1     -13.633   6.670  71.019  1.00  0.00     0.481 A  
HETATM    7  C   UNL     1     -13.335   7.469  69.926  1.00  0.00     2.887 A  
HETATM    8  C   UNL     1     -12.295   8.398  70.005  1.00  0.00     1.071 A  
HETATM    9  C   UNL     1     -11.520   8.525  71.177  1.00  0.00    -0.322 A  
ENDROOT
BRANCH   9  10
HETATM   10  C   UNL     1     -10.454   9.560  71.190  1.00  0.00    -0.288 C  
HETATM   11  O   UNL     1      -9.296   9.165  71.109  1.00  0.00    -0.253 OA 
HETATM   12  N   UNL     1     -10.863  10.878  71.351  1.00  0.00     1.407 N  
HETATM   13  H   UNL     1     -11.868  11.041  71.413  1.00  0.00     0.000 HD 
BRANCH  12  14
HETATM   14  C   UNL     1     -10.029  12.021  71.437  1.00  0.00    10.419 A  
HETATM   15  C   UNL     1     -10.487  13.330  71.271  1.00  0.00     5.887 A  
HETATM   16  C   UNL     1      -9.607  14.418  71.345  1.00  0.00     4.498 A  
HETATM   17  C   UNL     1      -8.253  14.201  71.599  1.00  0.00     6.563 A  
HETATM   18  C   UNL     1      -8.664  11.817  71.694  1.00  0.00    14.478 A  
HETATM   19  C   UNL     1      -7.773  12.900  71.765  1.00  0.00    10.483 A  
BRANCH  17  20
HETATM   20  S   UNL     1      -7.118  15.581  71.580  1.00  0.00     3.686 S  
HETATM   21  O   UNL     1      -5.926  15.190  72.306  1.00  0.00     0.624 OA 
HETATM   22  O   UNL     1      -7.881  16.743  71.983  1.00  0.00     9.544 OA 
BRANCH  20  23
HETATM   23  N   UNL     1      -6.757  15.798  69.941  1.00  0.00    -0.131 N  
HETATM   24  H   UNL     1      -6.655  16.713  69.504  1.00  0.00     0.000 HD 
BRANCH  23  25
HETATM   25  C   UNL     1      -6.613  14.580  69.243  1.00  0.00    -0.125 A  
HETATM   26  N   UNL     1      -5.727  13.724  69.684  1.00  0.00    -0.094 NA 
HETATM   27  C   UNL     1      -5.751  12.601  68.879  1.00  0.00    -0.068 A  
HETATM   28  C   UNL     1      -6.727  12.589  67.905  1.00  0.00    -0.103 A  
HETATM   29  S   UNL     1      -7.599  14.068  67.949  1.00  0.00    -0.175 SA 
ENDBRANCH  23  25
ENDBRANCH  20  23
ENDBRANCH  17  20
ENDBRANCH  12  14
ENDBRANCH   9  10
TORSDOF 5
ENDMDL
MODEL      212
REMARK 921   NORMALIZED FREE ENERGY PREDICTED BY IDOCK:   59.96 KCAL/MOL
REMARK 922        TOTAL FREE ENERGY PREDICTED BY IDOCK:   76.52 KCAL/MOL
REMARK 923 INTER-LIGAND FREE ENERGY PREDICTED BY IDOCK:   76.33 KCAL/MOL
REMARK 924 INTRA-LIGAND FREE ENERGY PREDICTED BY IDOCK:    0.18 KCAL/MOL
REMARK 927      BINDING AFFINITY PREDICTED BY RF-SCORE:    0.00 PKD
ROOT
HETATM    1  O   UNL     1     -10.683   8.824  74.142  1.00  0.00     3.837 OA 
HETATM    2  C   UNL     1     -11.108   7.672  73.603  1.00  0.00     0.522 C  
HETATM    3  O   UNL     1     -11.016   6.614  74.213  1.00  0.00     0.189 OA 
HETATM    4  C   UNL     1     -11.829   7.727  72.297  1.00  0.00    -0.378 A  
HETATM    5  C   UNL     1     -12.891   6.801  72.193  1.00  0.00    -0.093 A  
HETATM    6  C   UNL     1     -13.633   6.670  71.019  1.00  0.00     0.481 A  
HETATM    7  C   UNL     1     -13.335   7.469  69.926  1.00  0.00     2.887 A  
HETATM    8  C   UNL     1     -12.295   8.398  70.005  1.00  0.00     1.071 A  
HETATM    9  C   UNL     1     -11.520   8.525  71.177  1.00  0.00    -0.322 A  
ENDROOT
BRANCH   9  10
HETATM   10  C   UNL     1     -10.454   9.560  71.190  1.00  0.00    -0.288 C  
HETATM   11  O   UNL     1      -9.296   9.165  71.109  1.00  0.00    -0.253 OA 
HETATM   12  N   UNL     1     -10.863  10.878  71.351  1.00  0.00     1.407 N  
HETATM   13  H   UNL     1     -11.868  11.041  71.413  1.00  0.00     0.000 HD 
BRANCH  12  14
HETATM   14  C   UNL     1     -10.029  12.021  71.437  1.00  0.00    10.419 A  
HETATM   15  C   UNL     1     -10.056  12.922  72.504  1.00  0.00    15.898 A  
HETATM   16  C   UNL     1      -9.222  14.048  72.520  1.00  0.00    10.443 A  
HETATM   17  C   UNL     1      -8.339  14.274  71.464  1.00  0.00     5.851 A  
HETATM   18  C   UNL     1      -9.134  12.260  70.382  1.00  0.00     5.616 A  
HETATM   19  C   UNL     1      -8.298  13.387  70.386  1.00  0.00     4.145 A  
BRANCH  17  20
HETATM   20  S   UNL     1      -7.359  15.769  71.435  1.00  0.00     4.227 S  
HETATM   21  O   UNL     1      -6.238  15.551  70.542  1.00  0.00    -0.046 OA 
HETATM   22  O   UNL     1      -7.143  16.141  72.816  1.00  0.00     6.891 OA 
BRANCH  20  23
HETATM   23  N   UNL     1      -8.402  16.934  70.789  1.00  0.00     4.376 N  
HETATM   24  H   UNL     1      -8.444  17.897  71.122  1.00  0.00     0.000 HD 
BRANCH  23  25
HETATM   25  C   UNL     1      -9.205  16.435  69.743  1.00  0.00     0.450 A  
HETATM   26  N   UNL     1      -8.604  15.897  68.713  1.00  0.00    -0.198 NA 
HETATM   27  C   UNL     1      -9.559  15.461  67.814  1.00  0.00    -0.210 A  
HETATM   28  C   UNL     1     -10.868  15.587  68.230  1.00  0.00    -0.292 A  
HETATM   29  S   UNL     1     -10.909  16.347  69.770  1.00  0.00    -0.298 SA 
ENDBRANCH  23  25
ENDBRANCH  20  23
ENDBRANCH  17  20
ENDBRANCH  12  14
ENDBRANCH   9  10
TORSDOF 5
ENDMDL
