MODEL        1
REMARK 921   NORMALIZED FREE ENERGY PREDICTED BY IDOCK:   -7.19 KCAL/MOL
REMARK 922        TOTAL FREE ENERGY PREDICTED BY IDOCK:  -14.17 KCAL/MOL
REMARK 923 INTER-LIGAND FREE ENERGY PREDICTED BY IDOCK:  -10.97 KCAL/MOL
REMARK 924 INTRA-LIGAND FREE ENERGY PREDICTED BY IDOCK:   -3.20 KCAL/MOL
REMARK 927      BINDING AFFINITY PREDICTED BY RF-SCORE:    0.00 PKD
ROOT
HETATM    1  C   UNL     1     -10.369  10.733  64.938  1.00  0.00    -0.369 C  
HETATM    2  C   UNL     1      -9.526   9.505  65.273  1.00  0.00    -0.326 C  
HETATM    3  C   UNL     1      -8.102   9.937  65.640  1.00  0.00    -0.128 C  
HETATM    4  C   UNL     1     -10.210   8.695  66.392  1.00  0.00    -0.224 C  
ENDROOT
BRANCH   4   5
HETATM    5  C   UNL     1      -9.412   7.451  66.759  1.00  0.00    -0.226 C  
BRANCH   5   6
HETATM    6  C   UNL     1      -8.974   7.437  68.220  1.00  0.00    -0.130 C  
HETATM    7  C   UNL     1     -10.184   7.472  69.173  1.00  0.00    -0.202 C  
HETATM    8  C   UNL     1     -11.120   6.271  68.961  1.00  0.00    -0.446 C  
HETATM    9  C   UNL     1      -9.680   7.551  70.624  1.00  0.00    -0.175 C  
BRANCH   9  10
HETATM   10  C   UNL     1     -10.837   7.585  71.618  1.00  0.00    -0.249 C  
BRANCH  10  11
HETATM   11  C   UNL     1     -11.330   9.000  71.878  1.00  0.00    -0.438 C  
HETATM   12  C   UNL     1     -12.742   9.227  71.307  1.00  0.00    -0.368 C  
HETATM   13  C   UNL     1     -13.166  10.701  71.458  1.00  0.00    -0.460 C  
HETATM   14  C   UNL     1     -13.791   8.314  71.955  1.00  0.00    -0.438 C  
BRANCH  13  15
HETATM   15  C   UNL     1     -12.249  11.710  70.755  1.00  0.00    -0.443 C  
BRANCH  15  16
HETATM   16  C   UNL     1     -12.159  11.475  69.247  1.00  0.00    -0.344 C  
BRANCH  16  17
HETATM   17  C   UNL     1     -10.814  11.877  68.694  1.00  0.00    -0.273 C  
HETATM   18  C   UNL     1     -10.727  12.928  67.855  1.00  0.00    -0.235 C  
HETATM   19  C   UNL     1      -9.626  11.096  69.171  1.00  0.00    -0.024 C  
BRANCH  18  20
HETATM   20  C   UNL     1      -9.468  13.521  67.279  1.00  0.00    -0.230 C  
BRANCH  20  21
HETATM   21  C   UNL     1      -9.685  14.950  66.823  1.00  0.00    -0.263 C  
HETATM   22  C   UNL     1     -10.390  15.308  65.729  1.00  0.00    -0.364 C  
HETATM   23  C   UNL     1     -11.032  14.360  64.752  1.00  0.00    -0.409 C  
HETATM   24  C   UNL     1     -10.619  16.746  65.400  1.00  0.00    -0.203 C  
HETATM   25  O   UNL     1     -11.220  17.074  64.386  1.00  0.00    -1.167 OA 
HETATM   26  C   UNL     1     -10.125  17.767  66.335  1.00  0.00    -0.357 A  
HETATM   27  C   UNL     1      -9.376  17.402  67.443  1.00  0.00    -0.237 A  
HETATM   28  C   UNL     1      -9.064  15.989  67.696  1.00  0.00    -0.199 C  
HETATM   29  C   UNL     1      -8.902  18.384  68.323  1.00  0.00    -0.323 A  
HETATM   30  C   UNL     1      -9.190  19.731  68.091  1.00  0.00    -0.406 A  
HETATM   31  O   UNL     1      -8.315  15.693  68.621  1.00  0.00    -0.157 OA 
HETATM   32  C   UNL     1      -9.947  20.098  66.980  1.00  0.00    -0.596 A  
HETATM   33  C   UNL     1     -10.415  19.119  66.101  1.00  0.00    -0.558 A  
ENDBRANCH  20  21
ENDBRANCH  18  20
ENDBRANCH  16  17
ENDBRANCH  15  16
ENDBRANCH  13  15
ENDBRANCH  10  11
ENDBRANCH   9  10
ENDBRANCH   5   6
ENDBRANCH   4   5
TORSDOF 9
ENDMDL
MODEL        2
REMARK 921   NORMALIZED FREE ENERGY PREDICTED BY IDOCK:   -7.15 KCAL/MOL
REMARK 922        TOTAL FREE ENERGY PREDICTED BY IDOCK:  -14.11 KCAL/MOL
REMARK 923 INTER-LIGAND FREE ENERGY PREDICTED BY IDOCK:  -11.89 KCAL/MOL
REMARK 924 INTRA-LIGAND FREE ENERGY PREDICTED BY IDOCK:   -2.22 KCAL/MOL
REMARK 927      BINDING AFFINITY PREDICTED BY RF-SCORE:    0.00 PKD
ROOT
HETATM    1  C   UNL     1      -6.162  20.442  67.004  1.00  0.00    -0.239 C  
HETATM    2  C   UNL     1      -7.475  19.749  67.363  1.00  0.00    -0.298 C  
HETATM    3  C   UNL     1      -7.459  19.341  68.840  1.00  0.00    -0.397 C  
HETATM    4  C   UNL     1      -8.660  20.669  67.011  1.00  0.00    -0.269 C  
ENDROOT
BRANCH   4   5
HETATM    5  C   UNL     1      -9.997  20.021  67.342  1.00  0.00    -0.571 C  
BRANCH   5   6
HETATM    6  C   UNL     1     -10.417  18.972  66.317  1.00  0.00    -0.534 C  
HETATM    7  C   UNL     1     -10.089  17.546  66.802  1.00  0.00    -0.320 C  
HETATM    8  C   UNL     1     -10.797  17.209  68.123  1.00  0.00    -0.316 C  
HETATM    9  C   UNL     1     -10.447  16.542  65.692  1.00  0.00    -0.341 C  
BRANCH   9  10
HETATM   10  C   UNL     1     -10.146  15.109  66.116  1.00  0.00    -0.314 C  
BRANCH  10  11
HETATM   11  C   UNL     1     -10.324  14.122  64.973  1.00  0.00    -0.443 C  
HETATM   12  C   UNL     1     -11.478  13.138  65.242  1.00  0.00    -0.328 C  
HETATM   13  C   UNL     1     -11.553  12.063  64.140  1.00  0.00    -0.460 C  
HETATM   14  C   UNL     1     -12.833  13.845  65.373  1.00  0.00    -0.466 C  
BRANCH  13  15
HETATM   15  C   UNL     1     -10.287  11.211  63.986  1.00  0.00    -0.437 C  
BRANCH  15  16
HETATM   16  C   UNL     1     -10.251  10.025  64.950  1.00  0.00    -0.037 C  
BRANCH  16  17
HETATM   17  C   UNL     1      -9.645  10.398  66.280  1.00  0.00    -0.230 C  
HETATM   18  C   UNL     1     -10.397  10.330  67.396  1.00  0.00    -0.282 C  
HETATM   19  C   UNL     1      -8.193  10.778  66.279  1.00  0.00    -0.162 C  
BRANCH  18  20
HETATM   20  C   UNL     1      -9.938  10.580  68.809  1.00  0.00    -0.200 C  
BRANCH  20  21
HETATM   21  C   UNL     1     -11.059  11.129  69.668  1.00  0.00    -0.297 C  
HETATM   22  C   UNL     1     -11.786  10.400  70.541  1.00  0.00    -0.434 C  
HETATM   23  C   UNL     1     -11.645   8.919  70.775  1.00  0.00    -0.301 C  
HETATM   24  C   UNL     1     -12.820  11.043  71.405  1.00  0.00    -0.443 C  
HETATM   25  O   UNL     1     -13.510  10.378  72.166  1.00  0.00    -0.396 OA 
HETATM   26  C   UNL     1     -12.981  12.502  71.339  1.00  0.00    -0.347 A  
HETATM   27  C   UNL     1     -12.257  13.249  70.421  1.00  0.00    -0.404 A  
HETATM   28  C   UNL     1     -11.321  12.589  69.500  1.00  0.00    -0.171 C  
HETATM   29  C   UNL     1     -12.425  14.638  70.360  1.00  0.00    -0.410 A  
HETATM   30  C   UNL     1     -13.314  15.276  71.228  1.00  0.00    -0.586 A  
HETATM   31  O   UNL     1     -10.768  13.249  68.628  1.00  0.00    -0.254 OA 
HETATM   32  C   UNL     1     -14.038  14.527  72.154  1.00  0.00    -0.616 A  
HETATM   33  C   UNL     1     -13.874  13.141  72.211  1.00  0.00    -0.586 A  
ENDBRANCH  20  21
ENDBRANCH  18  20
ENDBRANCH  16  17
ENDBRANCH  15  16
ENDBRANCH  13  15
ENDBRANCH  10  11
ENDBRANCH   9  10
ENDBRANCH   5   6
ENDBRANCH   4   5
TORSDOF 9
ENDMDL
MODEL        3
REMARK 921   NORMALIZED FREE ENERGY PREDICTED BY IDOCK:   -7.14 KCAL/MOL
REMARK 922        TOTAL FREE ENERGY PREDICTED BY IDOCK:  -14.11 KCAL/MOL
REMARK 923 INTER-LIGAND FREE ENERGY PREDICTED BY IDOCK:  -10.17 KCAL/MOL
REMARK 924 INTRA-LIGAND FREE ENERGY PREDICTED BY IDOCK:   -3.94 KCAL/MOL
REMARK 927      BINDING AFFINITY PREDICTED BY RF-SCORE:    0.00 PKD
ROOT
HETATM    1  C   UNL     1     -10.362  19.781  66.491  1.00  0.00    -0.621 C  
HETATM    2  C   UNL     1      -9.113  18.928  66.703  1.00  0.00    -0.338 C  
HETATM    3  C   UNL     1      -7.910  19.593  66.024  1.00  0.00    -0.335 C  
HETATM    4  C   UNL     1      -8.894  18.695  68.210  1.00  0.00    -0.353 C  
ENDROOT
BRANCH   4   5
HETATM    5  C   UNL     1      -7.662  17.840  68.477  1.00  0.00    -0.289 C  
BRANCH   5   6
HETATM    6  C   UNL     1      -8.008  16.448  68.997  1.00  0.00    -0.227 C  
HETATM    7  C   UNL     1      -7.595  15.352  67.996  1.00  0.00    -0.135 C  
HETATM    8  C   UNL     1      -6.086  15.374  67.706  1.00  0.00    -0.173 C  
HETATM    9  C   UNL     1      -8.052  13.984  68.530  1.00  0.00    -0.139 C  
BRANCH   9  10
HETATM   10  C   UNL     1      -7.667  12.855  67.580  1.00  0.00    -0.174 C  
BRANCH  10  11
HETATM   11  C   UNL     1      -7.460  11.536  68.307  1.00  0.00    -0.103 C  
HETATM   12  C   UNL     1      -8.566  10.518  67.972  1.00  0.00    -0.121 C  
HETATM   13  C   UNL     1      -8.416   9.242  68.823  1.00  0.00    -0.129 C  
HETATM   14  C   UNL     1      -8.595  10.152  66.483  1.00  0.00    -0.132 C  
BRANCH  13  15
HETATM   15  C   UNL     1      -8.481   9.467  70.338  1.00  0.00    -0.247 C  
BRANCH  15  16
HETATM   16  C   UNL     1      -9.592   8.657  71.009  1.00  0.00    -0.264 C  
BRANCH  16  17
HETATM   17  C   UNL     1     -10.894   9.417  71.054  1.00  0.00    -0.406 C  
HETATM   18  C   UNL     1     -11.005  10.586  70.392  1.00  0.00    -0.252 C  
HETATM   19  C   UNL     1     -12.024   8.779  71.805  1.00  0.00    -0.418 C  
BRANCH  18  20
HETATM   20  C   UNL     1     -12.244  11.431  70.255  1.00  0.00    -0.433 C  
BRANCH  20  21
HETATM   21  C   UNL     1     -12.004  12.628  69.357  1.00  0.00    -0.318 C  
HETATM   22  C   UNL     1     -11.976  13.910  69.777  1.00  0.00    -0.398 C  
HETATM   23  C   UNL     1     -12.229  14.375  71.187  1.00  0.00    -0.420 C  
HETATM   24  C   UNL     1     -11.653  15.021  68.834  1.00  0.00    -0.326 C  
HETATM   25  O   UNL     1     -11.670  16.188  69.202  1.00  0.00    -0.327 OA 
HETATM   26  C   UNL     1     -11.289  14.683  67.450  1.00  0.00    -0.368 A  
HETATM   27  C   UNL     1     -11.346  13.370  67.009  1.00  0.00    -0.346 A  
HETATM   28  C   UNL     1     -11.773  12.298  67.920  1.00  0.00    -0.347 C  
HETATM   29  C   UNL     1     -11.007  13.060  65.686  1.00  0.00    -0.296 A  
HETATM   30  C   UNL     1     -10.603  14.070  64.811  1.00  0.00    -0.441 A  
HETATM   31  O   UNL     1     -11.916  11.161  67.486  1.00  0.00    -0.580 OA 
HETATM   32  C   UNL     1     -10.541  15.391  65.255  1.00  0.00    -0.450 A  
HETATM   33  C   UNL     1     -10.884  15.699  66.573  1.00  0.00    -0.260 A  
ENDBRANCH  20  21
ENDBRANCH  18  20
ENDBRANCH  16  17
ENDBRANCH  15  16
ENDBRANCH  13  15
ENDBRANCH  10  11
ENDBRANCH   9  10
ENDBRANCH   5   6
ENDBRANCH   4   5
TORSDOF 9
ENDMDL
MODEL        4
REMARK 921   NORMALIZED FREE ENERGY PREDICTED BY IDOCK:   -7.09 KCAL/MOL
REMARK 922        TOTAL FREE ENERGY PREDICTED BY IDOCK:  -14.02 KCAL/MOL
REMARK 923 INTER-LIGAND FREE ENERGY PREDICTED BY IDOCK:  -11.93 KCAL/MOL
REMARK 924 INTRA-LIGAND FREE ENERGY PREDICTED BY IDOCK:   -2.09 KCAL/MOL
REMARK 927      BINDING AFFINITY PREDICTED BY RF-SCORE:    0.00 PKD
ROOT
HETATM    1  C   UNL     1     -12.545  16.093  73.472  1.00  0.00    -0.678 C  
HETATM    2  C   UNL     1     -13.393  14.940  72.939  1.00  0.00    -0.576 C  
HETATM    3  C   UNL     1     -14.276  15.436  71.788  1.00  0.00    -0.632 C  
HETATM    4  C   UNL     1     -12.479  13.770  72.529  1.00  0.00     0.029 C  
ENDROOT
BRANCH   4   5
HETATM    5  C   UNL     1     -13.277  12.588  71.996  1.00  0.00    -0.524 C  
BRANCH   5   6
HETATM    6  C   UNL     1     -12.868  12.184  70.583  1.00  0.00    -0.031 C  
HETATM    7  C   UNL     1     -11.967  10.934  70.592  1.00  0.00    -0.467 C  
HETATM    8  C   UNL     1     -12.665   9.724  71.233  1.00  0.00    -0.464 C  
HETATM    9  C   UNL     1     -11.512  10.632  69.154  1.00  0.00    -0.349 C  
BRANCH   9  10
HETATM   10  C   UNL     1     -10.616   9.399  69.097  1.00  0.00    -0.234 C  
BRANCH  10  11
HETATM   11  C   UNL     1      -9.946   9.236  67.743  1.00  0.00    -0.235 C  
HETATM   12  C   UNL     1      -9.280  10.543  67.274  1.00  0.00    -0.156 C  
HETATM   13  C   UNL     1      -8.728  10.397  65.842  1.00  0.00    -0.170 C  
HETATM   14  C   UNL     1      -8.163  11.005  68.218  1.00  0.00    -0.130 C  
BRANCH  13  15
HETATM   15  C   UNL     1      -9.777  10.042  64.781  1.00  0.00    -0.363 C  
BRANCH  15  16
HETATM   16  C   UNL     1      -9.829  11.057  63.638  1.00  0.00    -0.397 C  
BRANCH  16  17
HETATM   17  C   UNL     1     -10.948  12.051  63.817  1.00  0.00    -0.492 C  
HETATM   18  C   UNL     1     -10.670  13.296  64.251  1.00  0.00    -0.408 C  
HETATM   19  C   UNL     1     -12.326  11.594  63.438  1.00  0.00    -0.334 C  
BRANCH  18  20
HETATM   20  C   UNL     1     -11.642  14.436  64.404  1.00  0.00    -0.346 C  
BRANCH  20  21
HETATM   21  C   UNL     1     -11.373  15.229  65.668  1.00  0.00    -0.197 C  
HETATM   22  C   UNL     1     -11.445  14.728  66.919  1.00  0.00    -0.354 C  
HETATM   23  C   UNL     1     -11.852  13.324  67.278  1.00  0.00    -0.421 C  
HETATM   24  C   UNL     1     -11.085  15.563  68.103  1.00  0.00    -0.325 C  
HETATM   25  O   UNL     1     -11.191  15.126  69.241  1.00  0.00    -0.247 OA 
HETATM   26  C   UNL     1     -10.575  16.923  67.874  1.00  0.00    -0.361 A  
HETATM   27  C   UNL     1     -10.529  17.449  66.591  1.00  0.00    -0.253 A  
HETATM   28  C   UNL     1     -10.990  16.655  65.445  1.00  0.00    -0.091 C  
HETATM   29  C   UNL     1     -10.051  18.750  66.385  1.00  0.00    -0.443 A  
HETATM   30  C   UNL     1      -9.612  19.516  67.467  1.00  0.00    -0.429 A  
HETATM   31  O   UNL     1     -11.039  17.171  64.334  1.00  0.00    -1.100 OA 
HETATM   32  C   UNL     1      -9.654  18.985  68.756  1.00  0.00    -0.451 A  
HETATM   33  C   UNL     1     -10.135  17.691  68.962  1.00  0.00    -0.300 A  
ENDBRANCH  20  21
ENDBRANCH  18  20
ENDBRANCH  16  17
ENDBRANCH  15  16
ENDBRANCH  13  15
ENDBRANCH  10  11
ENDBRANCH   9  10
ENDBRANCH   5   6
ENDBRANCH   4   5
TORSDOF 9
ENDMDL
MODEL        5
REMARK 921   NORMALIZED FREE ENERGY PREDICTED BY IDOCK:   -7.02 KCAL/MOL
REMARK 922        TOTAL FREE ENERGY PREDICTED BY IDOCK:  -13.92 KCAL/MOL
REMARK 923 INTER-LIGAND FREE ENERGY PREDICTED BY IDOCK:  -10.58 KCAL/MOL
REMARK 924 INTRA-LIGAND FREE ENERGY PREDICTED BY IDOCK:   -3.34 KCAL/MOL
REMARK 927      BINDING AFFINITY PREDICTED BY RF-SCORE:    0.00 PKD
ROOT
HETATM    1  C   UNL     1     -11.919  16.073  71.346  1.00  0.00    -0.507 C  
HETATM    2  C   UNL     1     -12.261  14.662  71.820  1.00  0.00    -0.409 C  
HETATM    3  C   UNL     1     -13.622  14.667  72.524  1.00  0.00    -0.572 C  
HETATM    4  C   UNL     1     -12.209  13.688  70.628  1.00  0.00    -0.434 C  
ENDROOT
BRANCH   4   5
HETATM    5  C   UNL     1     -12.534  12.261  71.048  1.00  0.00    -0.361 C  
BRANCH   5   6
HETATM    6  C   UNL     1     -12.277  11.243  69.942  1.00  0.00    -0.358 C  
HETATM    7  C   UNL     1     -11.280  10.158  70.392  1.00  0.00    -0.402 C  
HETATM    8  C   UNL     1     -11.784   9.385  71.620  1.00  0.00    -0.468 C  
HETATM    9  C   UNL     1     -10.989   9.219  69.209  1.00  0.00    -0.105 C  
BRANCH   9  10
HETATM   10  C   UNL     1     -10.007   8.118  69.596  1.00  0.00    -0.193 C  
BRANCH  10  11
HETATM   11  C   UNL     1      -8.713   8.197  68.802  1.00  0.00    -0.138 C  
HETATM   12  C   UNL     1      -7.873   9.427  69.197  1.00  0.00    -0.080 C  
HETATM   13  C   UNL     1      -6.637   9.564  68.287  1.00  0.00    -0.057 C  
HETATM   14  C   UNL     1      -7.437   9.392  70.667  1.00  0.00    -0.150 C  
BRANCH  13  15
HETATM   15  C   UNL     1      -6.951   9.718  66.793  1.00  0.00    -0.085 C  
BRANCH  15  16
HETATM   16  C   UNL     1      -7.171  11.174  66.382  1.00  0.00    -0.094 C  
BRANCH  16  17
HETATM   17  C   UNL     1      -8.585  11.625  66.644  1.00  0.00    -0.179 C  
HETATM   18  C   UNL     1      -8.806  12.701  67.426  1.00  0.00    -0.189 C  
HETATM   19  C   UNL     1      -9.678  10.863  65.955  1.00  0.00    -0.269 C  
BRANCH  18  20
HETATM   20  C   UNL     1     -10.137  13.341  67.723  1.00  0.00    -0.229 C  
BRANCH  20  21
HETATM   21  C   UNL     1     -10.207  14.754  67.180  1.00  0.00    -0.245 C  
HETATM   22  C   UNL     1     -10.618  15.079  65.935  1.00  0.00    -0.338 C  
HETATM   23  C   UNL     1     -11.026  14.101  64.865  1.00  0.00    -0.405 C  
HETATM   24  C   UNL     1     -10.730  16.505  65.511  1.00  0.00    -0.256 C  
HETATM   25  O   UNL     1     -11.061  16.802  64.371  1.00  0.00    -1.072 OA 
HETATM   26  C   UNL     1     -10.455  17.556  66.502  1.00  0.00    -0.270 A  
HETATM   27  C   UNL     1     -10.003  17.224  67.771  1.00  0.00    -0.301 A  
HETATM   28  C   UNL     1      -9.792  15.818  68.140  1.00  0.00    -0.209 C  
HETATM   29  C   UNL     1      -9.735  18.234  68.704  1.00  0.00    -0.379 A  
HETATM   30  C   UNL     1      -9.929  19.574  68.364  1.00  0.00    -0.540 A  
HETATM   31  O   UNL     1      -9.296  15.549  69.228  1.00  0.00    -0.233 OA 
HETATM   32  C   UNL     1     -10.388  19.907  67.090  1.00  0.00    -0.581 A  
HETATM   33  C   UNL     1     -10.651  18.901  66.158  1.00  0.00    -0.476 A  
ENDBRANCH  20  21
ENDBRANCH  18  20
ENDBRANCH  16  17
ENDBRANCH  15  16
ENDBRANCH  13  15
ENDBRANCH  10  11
ENDBRANCH   9  10
ENDBRANCH   5   6
ENDBRANCH   4   5
TORSDOF 9
ENDMDL
MODEL        6
REMARK 921   NORMALIZED FREE ENERGY PREDICTED BY IDOCK:   -6.96 KCAL/MOL
REMARK 922        TOTAL FREE ENERGY PREDICTED BY IDOCK:  -13.82 KCAL/MOL
REMARK 923 INTER-LIGAND FREE ENERGY PREDICTED BY IDOCK:  -10.84 KCAL/MOL
REMARK 924 INTRA-LIGAND FREE ENERGY PREDICTED BY IDOCK:   -2.99 KCAL/MOL
REMARK 927      BINDING AFFINITY PREDICTED BY RF-SCORE:    0.00 PKD
ROOT
HETATM    1  C   UNL     1     -12.237  15.346  74.193  1.00  0.00    -0.759 C  
HETATM    2  C   UNL     1     -12.764  15.119  72.778  1.00  0.00    -0.494 C  
HETATM    3  C   UNL     1     -14.194  15.657  72.665  1.00  0.00    -0.394 C  
HETATM    4  C   UNL     1     -11.803  15.759  71.758  1.00  0.00    -0.549 C  
ENDROOT
BRANCH   4   5
HETATM    5  C   UNL     1     -12.278  15.553  70.326  1.00  0.00    -0.432 C  
BRANCH   5   6
HETATM    6  C   UNL     1     -11.240  14.858  69.451  1.00  0.00    -0.302 C  
HETATM    7  C   UNL     1     -11.116  15.537  68.073  1.00  0.00    -0.322 C  
HETATM    8  C   UNL     1     -10.705  17.012  68.193  1.00  0.00    -0.374 C  
HETATM    9  C   UNL     1     -10.128  14.739  67.206  1.00  0.00    -0.236 C  
BRANCH   9  10
HETATM   10  C   UNL     1      -9.962  15.366  65.826  1.00  0.00    -0.393 C  
BRANCH  10  11
HETATM   11  C   UNL     1     -10.065  14.339  64.710  1.00  0.00    -0.168 C  
HETATM   12  C   UNL     1     -11.363  13.516  64.810  1.00  0.00    -0.362 C  
HETATM   13  C   UNL     1     -11.384  12.391  63.756  1.00  0.00    -0.536 C  
HETATM   14  C   UNL     1     -12.620  14.384  64.670  1.00  0.00    -0.256 C  
BRANCH  13  15
HETATM   15  C   UNL     1     -10.228  11.388  63.863  1.00  0.00    -0.415 C  
BRANCH  15  16
HETATM   16  C   UNL     1     -10.432  10.367  64.984  1.00  0.00    -0.139 C  
BRANCH  16  17
HETATM   17  C   UNL     1      -9.845  10.840  66.289  1.00  0.00    -0.262 C  
HETATM   18  C   UNL     1     -10.644  10.987  67.364  1.00  0.00    -0.276 C  
HETATM   19  C   UNL     1      -8.362  11.068  66.322  1.00  0.00    -0.166 C  
BRANCH  18  20
HETATM   20  C   UNL     1     -10.220  11.363  68.760  1.00  0.00    -0.209 C  
BRANCH  20  21
HETATM   21  C   UNL     1     -10.659  10.324  69.772  1.00  0.00    -0.312 C  
HETATM   22  C   UNL     1     -11.693  10.473  70.626  1.00  0.00    -0.453 C  
HETATM   23  C   UNL     1     -12.550  11.705  70.758  1.00  0.00    -0.365 C  
HETATM   24  C   UNL     1     -12.105   9.363  71.536  1.00  0.00    -0.379 C  
HETATM   25  O   UNL     1     -13.013   9.510  72.342  1.00  0.00    -0.386 OA 
HETATM   26  C   UNL     1     -11.407   8.073  71.429  1.00  0.00    -0.292 A  
HETATM   27  C   UNL     1     -10.325   7.928  70.574  1.00  0.00    -0.205 A  
HETATM   28  C   UNL     1      -9.861   9.062  69.763  1.00  0.00    -0.180 C  
HETATM   29  C   UNL     1      -9.662   6.697  70.487  1.00  0.00    -0.187 A  
HETATM   30  C   UNL     1     -10.092   5.613  71.254  1.00  0.00    -0.261 A  
HETATM   31  O   UNL     1      -8.843   8.946  69.091  1.00  0.00    -0.133 OA 
HETATM   32  C   UNL     1     -11.183   5.757  72.111  1.00  0.00    -0.327 A  
HETATM   33  C   UNL     1     -11.840   6.985  72.201  1.00  0.00    -0.314 A  
ENDBRANCH  20  21
ENDBRANCH  18  20
ENDBRANCH  16  17
ENDBRANCH  15  16
ENDBRANCH  13  15
ENDBRANCH  10  11
ENDBRANCH   9  10
ENDBRANCH   5   6
ENDBRANCH   4   5
TORSDOF 9
ENDMDL
MODEL        7
REMARK 921   NORMALIZED FREE ENERGY PREDICTED BY IDOCK:   -6.79 KCAL/MOL
REMARK 922        TOTAL FREE ENERGY PREDICTED BY IDOCK:  -13.56 KCAL/MOL
REMARK 923 INTER-LIGAND FREE ENERGY PREDICTED BY IDOCK:  -10.80 KCAL/MOL
REMARK 924 INTRA-LIGAND FREE ENERGY PREDICTED BY IDOCK:   -2.76 KCAL/MOL
REMARK 927      BINDING AFFINITY PREDICTED BY RF-SCORE:    0.00 PKD
ROOT
HETATM    1  C   UNL     1     -10.564  16.509  67.354  1.00  0.00    -0.300 C  
HETATM    2  C   UNL     1     -10.558  15.489  68.490  1.00  0.00    -0.246 C  
HETATM    3  C   UNL     1      -9.281  15.647  69.322  1.00  0.00    -0.269 C  
HETATM    4  C   UNL     1     -11.840  15.640  69.330  1.00  0.00    -0.391 C  
ENDROOT
BRANCH   4   5
HETATM    5  C   UNL     1     -11.888  14.636  70.475  1.00  0.00    -0.367 C  
BRANCH   5   6
HETATM    6  C   UNL     1     -12.208  13.220  70.008  1.00  0.00    -0.345 C  
HETATM    7  C   UNL     1     -12.420  12.266  71.200  1.00  0.00    -0.328 C  
HETATM    8  C   UNL     1     -13.572  12.724  72.107  1.00  0.00    -0.547 C  
HETATM    9  C   UNL     1     -12.644  10.840  70.670  1.00  0.00    -0.446 C  
BRANCH   9  10
HETATM   10  C   UNL     1     -12.863   9.848  71.808  1.00  0.00    -0.540 C  
BRANCH  10  11
HETATM   11  C   UNL     1     -12.762   8.405  71.340  1.00  0.00    -0.280 C  
HETATM   12  C   UNL     1     -11.340   7.842  71.524  1.00  0.00    -0.293 C  
HETATM   13  C   UNL     1     -11.224   6.430  70.919  1.00  0.00    -0.384 C  
HETATM   14  C   UNL     1     -10.905   7.816  72.995  1.00  0.00    -0.451 C  
BRANCH  13  15
HETATM   15  C   UNL     1     -11.531   6.346  69.418  1.00  0.00    -0.374 C  
BRANCH  15  16
HETATM   16  C   UNL     1     -10.421   5.654  68.626  1.00  0.00    -0.277 C  
BRANCH  16  17
HETATM   17  C   UNL     1      -9.377   6.631  68.147  1.00  0.00    -0.114 C  
HETATM   18  C   UNL     1      -9.708   7.927  67.978  1.00  0.00    -0.182 C  
HETATM   19  C   UNL     1      -7.992   6.095  67.938  1.00  0.00    -0.110 C  
BRANCH  18  20
HETATM   20  C   UNL     1      -8.782   9.051  67.593  1.00  0.00    -0.124 C  
BRANCH  20  21
HETATM   21  C   UNL     1      -9.362   9.886  66.469  1.00  0.00    -0.206 C  
HETATM   22  C   UNL     1      -9.191   9.629  65.154  1.00  0.00    -0.305 C  
HETATM   23  C   UNL     1      -8.362   8.510  64.581  1.00  0.00    -0.156 C  
HETATM   24  C   UNL     1      -9.866  10.461  64.115  1.00  0.00    -0.313 C  
HETATM   25  O   UNL     1      -9.679  10.258  62.923  1.00  0.00    -0.298 OA 
HETATM   26  C   UNL     1     -10.783  11.524  64.553  1.00  0.00    -0.390 A  
HETATM   27  C   UNL     1     -10.935  11.809  65.902  1.00  0.00    -0.354 A  
HETATM   28  C   UNL     1     -10.181  11.053  66.911  1.00  0.00    -0.222 C  
HETATM   29  C   UNL     1     -11.805  12.830  66.308  1.00  0.00    -0.485 A  
HETATM   30  C   UNL     1     -12.525  13.557  65.358  1.00  0.00    -0.540 A  
HETATM   31  O   UNL     1     -10.249  11.386  68.088  1.00  0.00    -0.176 OA 
HETATM   32  C   UNL     1     -12.376  13.267  64.002  1.00  0.00    -0.415 A  
HETATM   33  C   UNL     1     -11.506  12.253  63.598  1.00  0.00    -0.572 A  
ENDBRANCH  20  21
ENDBRANCH  18  20
ENDBRANCH  16  17
ENDBRANCH  15  16
ENDBRANCH  13  15
ENDBRANCH  10  11
ENDBRANCH   9  10
ENDBRANCH   5   6
ENDBRANCH   4   5
TORSDOF 9
ENDMDL
MODEL        8
REMARK 921   NORMALIZED FREE ENERGY PREDICTED BY IDOCK:   -6.79 KCAL/MOL
REMARK 922        TOTAL FREE ENERGY PREDICTED BY IDOCK:  -13.56 KCAL/MOL
REMARK 923 INTER-LIGAND FREE ENERGY PREDICTED BY IDOCK:  -11.17 KCAL/MOL
REMARK 924 INTRA-LIGAND FREE ENERGY PREDICTED BY IDOCK:   -2.39 KCAL/MOL
REMARK 927      BINDING AFFINITY PREDICTED BY RF-SCORE:    0.00 PKD
ROOT
HETATM    1  C   UNL     1     -10.254   7.117  73.426  1.00  0.00    -0.367 C  
HETATM    2  C   UNL     1     -10.665   7.910  72.188  1.00  0.00    -0.316 C  
HETATM    3  C   UNL     1     -11.964   8.673  72.468  1.00  0.00    -0.358 C  
HETATM    4  C   UNL     1      -9.511   8.835  71.757  1.00  0.00    -0.363 C  
ENDROOT
BRANCH   4   5
HETATM    5  C   UNL     1      -9.867   9.644  70.517  1.00  0.00    -0.294 C  
BRANCH   5   6
HETATM    6  C   UNL     1      -9.595   8.890  69.219  1.00  0.00    -0.162 C  
HETATM    7  C   UNL     1      -9.338   9.857  68.047  1.00  0.00    -0.140 C  
HETATM    8  C   UNL     1      -8.133  10.774  68.309  1.00  0.00    -0.121 C  
HETATM    9  C   UNL     1      -9.165   9.044  66.753  1.00  0.00    -0.198 C  
BRANCH   9  10
HETATM   10  C   UNL     1      -8.905   9.950  65.554  1.00  0.00    -0.186 C  
BRANCH  10  11
HETATM   11  C   UNL     1     -10.193  10.401  64.883  1.00  0.00    -0.330 C  
HETATM   12  C   UNL     1      -9.940  11.514  63.849  1.00  0.00    -0.360 C  
HETATM   13  C   UNL     1     -11.269  12.051  63.283  1.00  0.00    -0.403 C  
HETATM   14  C   UNL     1      -9.033  11.053  62.701  1.00  0.00    -0.355 C  
BRANCH  13  15
HETATM   15  C   UNL     1     -12.221  12.643  64.329  1.00  0.00    -0.524 C  
BRANCH  15  16
HETATM   16  C   UNL     1     -12.085  14.161  64.462  1.00  0.00    -0.489 C  
BRANCH  16  17
HETATM   17  C   UNL     1     -11.222  14.548  65.635  1.00  0.00    -0.335 C  
HETATM   18  C   UNL     1     -11.189  13.757  66.726  1.00  0.00    -0.327 C  
HETATM   19  C   UNL     1     -10.393  15.790  65.486  1.00  0.00    -0.430 C  
BRANCH  18  20
HETATM   20  C   UNL     1     -10.325  13.940  67.947  1.00  0.00    -0.240 C  
BRANCH  20  21
HETATM   21  C   UNL     1     -11.153  13.949  69.216  1.00  0.00    -0.261 C  
HETATM   22  C   UNL     1     -11.873  12.902  69.671  1.00  0.00    -0.387 C  
HETATM   23  C   UNL     1     -12.020  11.573  68.978  1.00  0.00    -0.377 C  
HETATM   24  C   UNL     1     -12.596  12.975  70.975  1.00  0.00    -0.299 C  
HETATM   25  O   UNL     1     -13.285  12.044  71.369  1.00  0.00    -0.280 OA 
HETATM   26  C   UNL     1     -12.447  14.188  71.793  1.00  0.00    -0.360 A  
HETATM   27  C   UNL     1     -11.733  15.276  71.313  1.00  0.00    -0.425 A  
HETATM   28  C   UNL     1     -11.117  15.231  69.980  1.00  0.00    -0.287 C  
HETATM   29  C   UNL     1     -11.605  16.430  72.097  1.00  0.00    -0.336 A  
HETATM   30  C   UNL     1     -12.188  16.485  73.365  1.00  0.00    -0.485 A  
HETATM   31  O   UNL     1     -10.578  16.236  69.531  1.00  0.00    -0.272 OA 
HETATM   32  C   UNL     1     -12.902  15.390  73.849  1.00  0.00    -0.592 A  
HETATM   33  C   UNL     1     -13.034  14.242  73.066  1.00  0.00    -0.512 A  
ENDBRANCH  20  21
ENDBRANCH  18  20
ENDBRANCH  16  17
ENDBRANCH  15  16
ENDBRANCH  13  15
ENDBRANCH  10  11
ENDBRANCH   9  10
ENDBRANCH   5   6
ENDBRANCH   4   5
TORSDOF 9
ENDMDL
MODEL        9
REMARK 921   NORMALIZED FREE ENERGY PREDICTED BY IDOCK:   -6.76 KCAL/MOL
REMARK 922        TOTAL FREE ENERGY PREDICTED BY IDOCK:  -13.53 KCAL/MOL
REMARK 923 INTER-LIGAND FREE ENERGY PREDICTED BY IDOCK:  -11.08 KCAL/MOL
REMARK 924 INTRA-LIGAND FREE ENERGY PREDICTED BY IDOCK:   -2.45 KCAL/MOL
REMARK 927      BINDING AFFINITY PREDICTED BY RF-SCORE:    0.00 PKD
ROOT
HETATM    1  C   UNL     1     -12.674  14.147  70.300  1.00  0.00    -0.287 C  
HETATM    2  C   UNL     1     -12.848  13.168  71.458  1.00  0.00    -0.401 C  
HETATM    3  C   UNL     1     -14.137  13.490  72.221  1.00  0.00    -0.564 C  
HETATM    4  C   UNL     1     -12.815  11.723  70.925  1.00  0.00    -0.243 C  
ENDROOT
BRANCH   4   5
HETATM    5  C   UNL     1     -12.975  10.703  72.044  1.00  0.00    -0.466 C  
BRANCH   5   6
HETATM    6  C   UNL     1     -13.358   9.318  71.533  1.00  0.00    -0.436 C  
HETATM    7  C   UNL     1     -12.117   8.425  71.337  1.00  0.00    -0.337 C  
HETATM    8  C   UNL     1     -11.332   8.233  72.643  1.00  0.00    -0.421 C  
HETATM    9  C   UNL     1     -12.556   7.079  70.734  1.00  0.00    -0.195 C  
BRANCH   9  10
HETATM   10  C   UNL     1     -11.367   6.149  70.518  1.00  0.00    -0.381 C  
BRANCH  10  11
HETATM   11  C   UNL     1     -10.828   6.224  69.098  1.00  0.00    -0.403 C  
HETATM   12  C   UNL     1      -9.498   6.998  69.032  1.00  0.00    -0.138 C  
HETATM   13  C   UNL     1      -9.040   7.183  67.572  1.00  0.00    -0.123 C  
HETATM   14  C   UNL     1      -8.386   6.324  69.845  1.00  0.00    -0.129 C  
BRANCH  13  15
HETATM   15  C   UNL     1     -10.028   7.945  66.679  1.00  0.00    -0.316 C  
BRANCH  15  16
HETATM   16  C   UNL     1      -9.564   9.368  66.365  1.00  0.00    -0.285 C  
BRANCH  16  17
HETATM   17  C   UNL     1     -10.472  10.405  66.976  1.00  0.00    -0.309 C  
HETATM   18  C   UNL     1     -10.807  11.498  66.263  1.00  0.00    -0.333 C  
HETATM   19  C   UNL     1     -11.000  10.116  68.350  1.00  0.00    -0.293 C  
BRANCH  18  20
HETATM   20  C   UNL     1     -11.764  12.586  66.677  1.00  0.00    -0.453 C  
BRANCH  20  21
HETATM   21  C   UNL     1     -11.176  13.962  66.438  1.00  0.00    -0.319 C  
HETATM   22  C   UNL     1     -11.432  14.730  65.357  1.00  0.00    -0.341 C  
HETATM   23  C   UNL     1     -12.296  14.336  64.188  1.00  0.00    -0.361 C  
HETATM   24  C   UNL     1     -10.871  16.108  65.244  1.00  0.00    -0.336 C  
HETATM   25  O   UNL     1     -11.065  16.790  64.246  1.00  0.00    -1.106 OA 
HETATM   26  C   UNL     1     -10.092  16.644  66.370  1.00  0.00    -0.325 A  
HETATM   27  C   UNL     1      -9.803  15.846  67.467  1.00  0.00    -0.230 A  
HETATM   28  C   UNL     1     -10.270  14.454  67.517  1.00  0.00    -0.240 C  
HETATM   29  C   UNL     1      -9.052  16.364  68.530  1.00  0.00    -0.223 A  
HETATM   30  C   UNL     1      -8.600  17.684  68.493  1.00  0.00    -0.285 A  
HETATM   31  O   UNL     1      -9.919  13.734  68.444  1.00  0.00    -0.224 OA 
HETATM   32  C   UNL     1      -8.895  18.488  67.392  1.00  0.00    -0.276 A  
HETATM   33  C   UNL     1      -9.639  17.971  66.330  1.00  0.00    -0.301 A  
ENDBRANCH  20  21
ENDBRANCH  18  20
ENDBRANCH  16  17
ENDBRANCH  15  16
ENDBRANCH  13  15
ENDBRANCH  10  11
ENDBRANCH   9  10
ENDBRANCH   5   6
ENDBRANCH   4   5
TORSDOF 9
ENDMDL
MODEL       10
REMARK 921   NORMALIZED FREE ENERGY PREDICTED BY IDOCK:   -6.73 KCAL/MOL
REMARK 922        TOTAL FREE ENERGY PREDICTED BY IDOCK:  -13.47 KCAL/MOL
REMARK 923 INTER-LIGAND FREE ENERGY PREDICTED BY IDOCK:   -8.96 KCAL/MOL
REMARK 924 INTRA-LIGAND FREE ENERGY PREDICTED BY IDOCK:   -4.51 KCAL/MOL
REMARK 927      BINDING AFFINITY PREDICTED BY RF-SCORE:    0.00 PKD
ROOT
HETATM    1  C   UNL     1     -10.949   4.633  73.701  1.00  0.00    -0.392 C  
HETATM    2  C   UNL     1     -10.190   4.548  72.379  1.00  0.00    -0.253 C  
HETATM    3  C   UNL     1      -9.898   3.082  72.043  1.00  0.00    -0.242 C  
HETATM    4  C   UNL     1     -10.988   5.266  71.275  1.00  0.00    -0.059 C  
ENDROOT
BRANCH   4   5
HETATM    5  C   UNL     1     -10.269   5.219  69.934  1.00  0.00    -0.364 C  
BRANCH   5   6
HETATM    6  C   UNL     1     -10.857   6.185  68.911  1.00  0.00    -0.406 C  
HETATM    7  C   UNL     1      -9.751   6.932  68.139  1.00  0.00    -0.134 C  
HETATM    8  C   UNL     1      -8.824   5.968  67.383  1.00  0.00    -0.106 C  
HETATM    9  C   UNL     1     -10.402   7.955  67.193  1.00  0.00    -0.398 C  
BRANCH   9  10
HETATM   10  C   UNL     1      -9.355   8.727  66.397  1.00  0.00    -0.264 C  
BRANCH  10  11
HETATM   11  C   UNL     1      -9.905   9.253  65.081  1.00  0.00     0.152 C  
HETATM   12  C   UNL     1      -9.183  10.538  64.633  1.00  0.00    -0.274 C  
HETATM   13  C   UNL     1      -9.846  11.131  63.373  1.00  0.00    -0.397 C  
HETATM   14  C   UNL     1      -7.688  10.313  64.378  1.00  0.00    -0.104 C  
BRANCH  13  15
HETATM   15  C   UNL     1     -11.325  11.501  63.538  1.00  0.00    -0.375 C  
BRANCH  15  16
HETATM   16  C   UNL     1     -11.552  13.012  63.599  1.00  0.00    -0.507 C  
BRANCH  16  17
HETATM   17  C   UNL     1     -11.414  13.546  65.003  1.00  0.00    -0.334 C  
HETATM   18  C   UNL     1     -11.745  12.762  66.048  1.00  0.00    -0.470 C  
HETATM   19  C   UNL     1     -10.851  14.929  65.149  1.00  0.00    -0.428 C  
BRANCH  18  20
HETATM   20  C   UNL     1     -11.591  13.094  67.509  1.00  0.00    -0.398 C  
BRANCH  20  21
HETATM   21  C   UNL     1     -10.724  12.075  68.221  1.00  0.00    -0.252 C  
HETATM   22  C   UNL     1      -9.384  11.980  68.088  1.00  0.00    -0.199 C  
HETATM   23  C   UNL     1      -8.531  12.825  67.179  1.00  0.00    -0.181 C  
HETATM   24  C   UNL     1      -8.600  10.995  68.891  1.00  0.00    -0.119 C  
HETATM   25  O   UNL     1      -7.392  10.875  68.740  1.00  0.00    -0.088 OA 
HETATM   26  C   UNL     1      -9.309  10.179  69.887  1.00  0.00    -0.134 A  
HETATM   27  C   UNL     1     -10.689  10.255  70.004  1.00  0.00    -0.345 A  
HETATM   28  C   UNL     1     -11.461  11.150  69.131  1.00  0.00    -0.298 C  
HETATM   29  C   UNL     1     -11.356   9.466  70.951  1.00  0.00    -0.386 A  
HETATM   30  C   UNL     1     -10.634   8.610  71.785  1.00  0.00    -0.395 A  
HETATM   31  O   UNL     1     -12.686  11.128  69.177  1.00  0.00    -0.255 OA 
HETATM   32  C   UNL     1      -9.246   8.537  71.671  1.00  0.00    -0.304 A  
HETATM   33  C   UNL     1      -8.582   9.319  70.724  1.00  0.00    -0.254 A  
ENDBRANCH  20  21
ENDBRANCH  18  20
ENDBRANCH  16  17
ENDBRANCH  15  16
ENDBRANCH  13  15
ENDBRANCH  10  11
ENDBRANCH   9  10
ENDBRANCH   5   6
ENDBRANCH   4   5
TORSDOF 9
ENDMDL
MODEL       11
REMARK 921   NORMALIZED FREE ENERGY PREDICTED BY IDOCK:   -6.67 KCAL/MOL
REMARK 922        TOTAL FREE ENERGY PREDICTED BY IDOCK:  -13.38 KCAL/MOL
REMARK 923 INTER-LIGAND FREE ENERGY PREDICTED BY IDOCK:  -11.00 KCAL/MOL
REMARK 924 INTRA-LIGAND FREE ENERGY PREDICTED BY IDOCK:   -2.38 KCAL/MOL
REMARK 927      BINDING AFFINITY PREDICTED BY RF-SCORE:    0.00 PKD
ROOT
HETATM    1  C   UNL     1      -8.827   4.923  73.802  1.00  0.00    -0.108 C  
HETATM    2  C   UNL     1      -9.648   5.814  72.873  1.00  0.00    -0.163 C  
HETATM    3  C   UNL     1     -10.513   4.946  71.953  1.00  0.00    -0.233 C  
HETATM    4  C   UNL     1     -10.477   6.809  73.708  1.00  0.00    -0.383 C  
ENDROOT
BRANCH   4   5
HETATM    5  C   UNL     1     -11.311   7.730  72.827  1.00  0.00    -0.446 C  
BRANCH   5   6
HETATM    6  C   UNL     1     -10.459   8.675  71.986  1.00  0.00    -0.422 C  
HETATM    7  C   UNL     1     -11.198   9.113  70.706  1.00  0.00    -0.336 C  
HETATM    8  C   UNL     1     -12.516   9.836  71.019  1.00  0.00    -0.414 C  
HETATM    9  C   UNL     1     -10.258   9.985  69.856  1.00  0.00    -0.304 C  
BRANCH   9  10
HETATM   10  C   UNL     1     -10.936  10.452  68.573  1.00  0.00    -0.302 C  
BRANCH  10  11
HETATM   11  C   UNL     1     -10.175  10.020  67.330  1.00  0.00    -0.275 C  
HETATM   12  C   UNL     1      -9.339  11.173  66.742  1.00  0.00    -0.193 C  
HETATM   13  C   UNL     1      -8.687  10.755  65.409  1.00  0.00    -0.190 C  
HETATM   14  C   UNL     1      -8.263  11.673  67.714  1.00  0.00    -0.141 C  
BRANCH  13  15
HETATM   15  C   UNL     1      -9.674  10.336  64.313  1.00  0.00    -0.373 C  
BRANCH  15  16
HETATM   16  C   UNL     1      -9.968  11.461  63.320  1.00  0.00    -0.431 C  
BRANCH  16  17
HETATM   17  C   UNL     1     -11.050  12.384  63.819  1.00  0.00    -0.506 C  
HETATM   18  C   UNL     1     -10.712  13.528  64.446  1.00  0.00    -0.402 C  
HETATM   19  C   UNL     1     -12.467  11.985  63.529  1.00  0.00    -0.654 C  
BRANCH  18  20
HETATM   20  C   UNL     1     -11.650  14.602  64.930  1.00  0.00    -0.405 C  
BRANCH  20  21
HETATM   21  C   UNL     1     -11.387  14.956  66.381  1.00  0.00    -0.308 C  
HETATM   22  C   UNL     1     -10.735  16.063  66.795  1.00  0.00    -0.259 C  
HETATM   23  C   UNL     1     -10.117  17.103  65.898  1.00  0.00    -0.257 C  
HETATM   24  C   UNL     1     -10.592  16.371  68.249  1.00  0.00    -0.318 C  
HETATM   25  O   UNL     1      -9.964  17.350  68.628  1.00  0.00    -0.303 OA 
HETATM   26  C   UNL     1     -11.241  15.481  69.222  1.00  0.00    -0.312 A  
HETATM   27  C   UNL     1     -11.885  14.327  68.799  1.00  0.00    -0.377 A  
HETATM   28  C   UNL     1     -11.924  13.979  67.373  1.00  0.00    -0.404 C  
HETATM   29  C   UNL     1     -12.492  13.481  69.736  1.00  0.00    -0.155 A  
HETATM   30  C   UNL     1     -12.459  13.800  71.095  1.00  0.00    -0.450 A  
HETATM   31  O   UNL     1     -12.407  12.906  67.027  1.00  0.00    -0.360 OA 
HETATM   32  C   UNL     1     -11.816  14.963  71.520  1.00  0.00    -0.419 A  
HETATM   33  C   UNL     1     -11.206  15.803  70.587  1.00  0.00    -0.395 A  
ENDBRANCH  20  21
ENDBRANCH  18  20
ENDBRANCH  16  17
ENDBRANCH  15  16
ENDBRANCH  13  15
ENDBRANCH  10  11
ENDBRANCH   9  10
ENDBRANCH   5   6
ENDBRANCH   4   5
TORSDOF 9
ENDMDL
MODEL       12
REMARK 921   NORMALIZED FREE ENERGY PREDICTED BY IDOCK:   -6.63 KCAL/MOL
REMARK 922        TOTAL FREE ENERGY PREDICTED BY IDOCK:  -13.32 KCAL/MOL
REMARK 923 INTER-LIGAND FREE ENERGY PREDICTED BY IDOCK:   -9.58 KCAL/MOL
REMARK 924 INTRA-LIGAND FREE ENERGY PREDICTED BY IDOCK:   -3.75 KCAL/MOL
REMARK 927      BINDING AFFINITY PREDICTED BY RF-SCORE:    0.00 PKD
ROOT
HETATM    1  C   UNL     1     -10.159  11.061  63.335  1.00  0.00    -0.424 C  
HETATM    2  C   UNL     1     -11.050  12.299  63.405  1.00  0.00    -0.487 C  
HETATM    3  C   UNL     1     -12.506  11.877  63.634  1.00  0.00    -0.583 C  
HETATM    4  C   UNL     1     -10.527  13.253  64.496  1.00  0.00    -0.434 C  
ENDROOT
BRANCH   4   5
HETATM    5  C   UNL     1     -11.378  14.512  64.602  1.00  0.00    -0.372 C  
BRANCH   5   6
HETATM    6  C   UNL     1     -11.774  14.841  66.037  1.00  0.00    -0.248 C  
HETATM    7  C   UNL     1     -10.691  15.678  66.744  1.00  0.00    -0.300 C  
HETATM    8  C   UNL     1     -10.428  17.009  66.023  1.00  0.00    -0.280 C  
HETATM    9  C   UNL     1     -11.101  15.898  68.211  1.00  0.00    -0.345 C  
BRANCH   9  10
HETATM   10  C   UNL     1     -10.065  16.726  68.964  1.00  0.00    -0.283 C  
BRANCH  10  11
HETATM   11  C   UNL     1      -8.958  15.865  69.551  1.00  0.00    -0.135 C  
HETATM   12  C   UNL     1      -7.618  16.082  68.823  1.00  0.00    -0.184 C  
HETATM   13  C   UNL     1      -6.546  15.103  69.340  1.00  0.00    -0.151 C  
HETATM   14  C   UNL     1      -7.110  17.524  68.946  1.00  0.00    -0.253 C  
BRANCH  13  15
HETATM   15  C   UNL     1      -6.894  13.619  69.171  1.00  0.00    -0.095 C  
BRANCH  15  16
HETATM   16  C   UNL     1      -6.881  13.172  67.709  1.00  0.00    -0.149 C  
BRANCH  16  17
HETATM   17  C   UNL     1      -8.059  12.289  67.379  1.00  0.00    -0.175 C  
HETATM   18  C   UNL     1      -9.250  12.525  67.963  1.00  0.00    -0.204 C  
HETATM   19  C   UNL     1      -7.835  11.215  66.357  1.00  0.00    -0.136 C  
BRANCH  18  20
HETATM   20  C   UNL     1     -10.546  11.807  67.691  1.00  0.00    -0.237 C  
BRANCH  20  21
HETATM   21  C   UNL     1     -11.051  11.087  68.925  1.00  0.00    -0.295 C  
HETATM   22  C   UNL     1     -11.799  11.656  69.894  1.00  0.00    -0.434 C  
HETATM   23  C   UNL     1     -12.214  13.102  69.944  1.00  0.00    -0.293 C  
HETATM   24  C   UNL     1     -12.320  10.849  71.037  1.00  0.00    -0.393 C  
HETATM   25  O   UNL     1     -12.961  11.370  71.939  1.00  0.00    -0.453 OA 
HETATM   26  C   UNL     1     -12.065   9.401  71.047  1.00  0.00    -0.373 A  
HETATM   27  C   UNL     1     -11.271   8.820  70.069  1.00  0.00    -0.113 A  
HETATM   28  C   UNL     1     -10.674   9.645  69.010  1.00  0.00    -0.211 C  
HETATM   29  C   UNL     1     -11.027   7.441  70.093  1.00  0.00    -0.272 A  
HETATM   30  C   UNL     1     -11.587   6.647  71.096  1.00  0.00    -0.384 A  
HETATM   31  O   UNL     1      -9.894   9.133  68.215  1.00  0.00    -0.152 OA 
HETATM   32  C   UNL     1     -12.389   7.230  72.077  1.00  0.00    -0.298 A  
HETATM   33  C   UNL     1     -12.628   8.605  72.055  1.00  0.00    -0.434 A  
ENDBRANCH  20  21
ENDBRANCH  18  20
ENDBRANCH  16  17
ENDBRANCH  15  16
ENDBRANCH  13  15
ENDBRANCH  10  11
ENDBRANCH   9  10
ENDBRANCH   5   6
ENDBRANCH   4   5
TORSDOF 9
ENDMDL
MODEL       13
REMARK 921   NORMALIZED FREE ENERGY PREDICTED BY IDOCK:   -6.58 KCAL/MOL
REMARK 922        TOTAL FREE ENERGY PREDICTED BY IDOCK:  -13.24 KCAL/MOL
REMARK 923 INTER-LIGAND FREE ENERGY PREDICTED BY IDOCK:  -10.35 KCAL/MOL
REMARK 924 INTRA-LIGAND FREE ENERGY PREDICTED BY IDOCK:   -2.90 KCAL/MOL
REMARK 927      BINDING AFFINITY PREDICTED BY RF-SCORE:    0.00 PKD
ROOT
HETATM    1  C   UNL     1     -12.026  14.353  64.238  1.00  0.00    -0.433 C  
HETATM    2  C   UNL     1     -11.873  12.863  64.536  1.00  0.00    -0.429 C  
HETATM    3  C   UNL     1     -12.911  12.066  63.738  1.00  0.00    -0.440 C  
HETATM    4  C   UNL     1     -10.427  12.421  64.243  1.00  0.00    -0.389 C  
ENDROOT
BRANCH   4   5
HETATM    5  C   UNL     1     -10.218  10.941  64.533  1.00  0.00    -0.422 C  
BRANCH   5   6
HETATM    6  C   UNL     1      -9.467  10.692  65.837  1.00  0.00    -0.239 C  
HETATM    7  C   UNL     1      -9.186   9.192  66.051  1.00  0.00    -0.271 C  
HETATM    8  C   UNL     1      -8.343   8.595  64.913  1.00  0.00    -0.174 C  
HETATM    9  C   UNL     1      -8.513   8.996  67.420  1.00  0.00    -0.115 C  
BRANCH   9  10
HETATM   10  C   UNL     1      -8.207   7.526  67.688  1.00  0.00    -0.118 C  
BRANCH  10  11
HETATM   11  C   UNL     1      -8.796   7.047  69.005  1.00  0.00    -0.134 C  
HETATM   12  C   UNL     1     -10.330   7.178  69.027  1.00  0.00    -0.204 C  
HETATM   13  C   UNL     1     -10.894   6.818  70.416  1.00  0.00    -0.306 C  
HETATM   14  C   UNL     1     -11.007   6.318  67.952  1.00  0.00    -0.421 C  
BRANCH  13  15
HETATM   15  C   UNL     1     -10.370   7.687  71.567  1.00  0.00    -0.223 C  
BRANCH  15  16
HETATM   16  C   UNL     1     -11.471   8.095  72.547  1.00  0.00    -0.470 C  
BRANCH  16  17
HETATM   17  C   UNL     1     -12.545   8.915  71.878  1.00  0.00    -0.439 C  
HETATM   18  C   UNL     1     -12.221  10.085  71.294  1.00  0.00    -0.498 C  
HETATM   19  C   UNL     1     -13.927   8.332  71.858  1.00  0.00    -0.468 C  
BRANCH  18  20
HETATM   20  C   UNL     1     -13.140  10.986  70.510  1.00  0.00    -0.031 C  
BRANCH  20  21
HETATM   21  C   UNL     1     -12.519  12.351  70.287  1.00  0.00    -0.152 C  
HETATM   22  C   UNL     1     -12.582  13.376  71.163  1.00  0.00    -0.430 C  
HETATM   23  C   UNL     1     -13.315  13.360  72.478  1.00  0.00    -0.588 C  
HETATM   24  C   UNL     1     -11.873  14.662  70.893  1.00  0.00    -0.313 C  
HETATM   25  O   UNL     1     -11.964  15.608  71.665  1.00  0.00    -0.344 OA 
HETATM   26  C   UNL     1     -11.040  14.764  69.686  1.00  0.00    -0.299 A  
HETATM   27  C   UNL     1     -10.999  13.724  68.770  1.00  0.00    -0.289 A  
HETATM   28  C   UNL     1     -11.789  12.505  68.994  1.00  0.00    -0.296 C  
HETATM   29  C   UNL     1     -10.209  13.835  67.619  1.00  0.00    -0.242 A  
HETATM   30  C   UNL     1      -9.456  14.990  67.394  1.00  0.00    -0.202 A  
HETATM   31  O   UNL     1     -11.821  11.640  68.126  1.00  0.00    -0.481 OA 
HETATM   32  C   UNL     1      -9.494  16.034  68.317  1.00  0.00    -0.206 A  
HETATM   33  C   UNL     1     -10.284  15.924  69.462  1.00  0.00    -0.279 A  
ENDBRANCH  20  21
ENDBRANCH  18  20
ENDBRANCH  16  17
ENDBRANCH  15  16
ENDBRANCH  13  15
ENDBRANCH  10  11
ENDBRANCH   9  10
ENDBRANCH   5   6
ENDBRANCH   4   5
TORSDOF 9
ENDMDL
MODEL       14
REMARK 921   NORMALIZED FREE ENERGY PREDICTED BY IDOCK:   -6.56 KCAL/MOL
REMARK 922        TOTAL FREE ENERGY PREDICTED BY IDOCK:  -13.21 KCAL/MOL
REMARK 923 INTER-LIGAND FREE ENERGY PREDICTED BY IDOCK:  -10.95 KCAL/MOL
REMARK 924 INTRA-LIGAND FREE ENERGY PREDICTED BY IDOCK:   -2.26 KCAL/MOL
REMARK 927      BINDING AFFINITY PREDICTED BY RF-SCORE:    0.00 PKD
ROOT
HETATM    1  C   UNL     1     -12.768  14.988  73.679  1.00  0.00    -0.650 C  
HETATM    2  C   UNL     1     -12.740  14.990  72.152  1.00  0.00    -0.406 C  
HETATM    3  C   UNL     1     -14.130  15.341  71.609  1.00  0.00    -0.640 C  
HETATM    4  C   UNL     1     -11.644  15.951  71.654  1.00  0.00    -0.541 C  
ENDROOT
BRANCH   4   5
HETATM    5  C   UNL     1     -11.569  15.983  70.134  1.00  0.00    -0.324 C  
BRANCH   5   6
HETATM    6  C   UNL     1     -11.247  14.621  69.527  1.00  0.00    -0.300 C  
HETATM    7  C   UNL     1     -11.764  14.511  68.079  1.00  0.00    -0.373 C  
HETATM    8  C   UNL     1     -11.147  15.580  67.164  1.00  0.00    -0.256 C  
HETATM    9  C   UNL     1     -11.495  13.090  67.555  1.00  0.00    -0.375 C  
BRANCH   9  10
HETATM   10  C   UNL     1     -11.984  12.920  66.121  1.00  0.00    -0.491 C  
BRANCH  10  11
HETATM   11  C   UNL     1     -10.845  12.636  65.155  1.00  0.00    -0.321 C  
HETATM   12  C   UNL     1     -11.226  11.557  64.123  1.00  0.00    -0.393 C  
HETATM   13  C   UNL     1     -10.016  11.186  63.243  1.00  0.00    -0.419 C  
HETATM   14  C   UNL     1     -12.404  11.982  63.237  1.00  0.00    -0.553 C  
BRANCH  13  15
HETATM   15  C   UNL     1      -8.805  10.641  64.011  1.00  0.00    -0.173 C  
BRANCH  15  16
HETATM   16  C   UNL     1      -9.071   9.272  64.640  1.00  0.00    -0.177 C  
BRANCH  16  17
HETATM   17  C   UNL     1      -8.653   9.227  66.088  1.00  0.00    -0.146 C  
HETATM   18  C   UNL     1      -9.212   8.322  66.914  1.00  0.00    -0.197 C  
HETATM   19  C   UNL     1      -7.574  10.180  66.511  1.00  0.00    -0.109 C  
BRANCH  18  20
HETATM   20  C   UNL     1      -8.857   8.076  68.357  1.00  0.00    -0.134 C  
BRANCH  20  21
HETATM   21  C   UNL     1     -10.068   8.213  69.258  1.00  0.00    -0.202 C  
HETATM   22  C   UNL     1     -10.661   7.189  69.909  1.00  0.00    -0.246 C  
HETATM   23  C   UNL     1     -10.258   5.741  69.814  1.00  0.00    -0.303 C  
HETATM   24  C   UNL     1     -11.803   7.428  70.839  1.00  0.00    -0.290 C  
HETATM   25  O   UNL     1     -12.370   6.498  71.397  1.00  0.00    -0.324 OA 
HETATM   26  C   UNL     1     -12.224   8.814  71.092  1.00  0.00    -0.284 A  
HETATM   27  C   UNL     1     -11.637   9.864  70.402  1.00  0.00    -0.356 A  
HETATM   28  C   UNL     1     -10.587   9.604  69.407  1.00  0.00    -0.225 C  
HETATM   29  C   UNL     1     -12.052  11.180  70.644  1.00  0.00    -0.477 A  
HETATM   30  C   UNL     1     -13.050  11.439  71.585  1.00  0.00    -0.498 A  
HETATM   31  O   UNL     1     -10.152  10.532  68.733  1.00  0.00    -0.173 OA 
HETATM   32  C   UNL     1     -13.637  10.384  72.283  1.00  0.00    -0.109 A  
HETATM   33  C   UNL     1     -13.227   9.073  72.038  1.00  0.00    -0.486 A  
ENDBRANCH  20  21
ENDBRANCH  18  20
ENDBRANCH  16  17
ENDBRANCH  15  16
ENDBRANCH  13  15
ENDBRANCH  10  11
ENDBRANCH   9  10
ENDBRANCH   5   6
ENDBRANCH   4   5
TORSDOF 9
ENDMDL
MODEL       15
REMARK 921   NORMALIZED FREE ENERGY PREDICTED BY IDOCK:   -6.43 KCAL/MOL
REMARK 922        TOTAL FREE ENERGY PREDICTED BY IDOCK:  -13.01 KCAL/MOL
REMARK 923 INTER-LIGAND FREE ENERGY PREDICTED BY IDOCK:  -10.91 KCAL/MOL
REMARK 924 INTRA-LIGAND FREE ENERGY PREDICTED BY IDOCK:   -2.10 KCAL/MOL
REMARK 927      BINDING AFFINITY PREDICTED BY RF-SCORE:    0.00 PKD
ROOT
HETATM    1  C   UNL     1     -10.375   5.199  73.968  1.00  0.00    -0.299 C  
HETATM    2  C   UNL     1      -9.839   4.816  72.590  1.00  0.00    -0.193 C  
HETATM    3  C   UNL     1      -9.812   3.290  72.451  1.00  0.00    -0.226 C  
HETATM    4  C   UNL     1     -10.682   5.500  71.497  1.00  0.00    -0.290 C  
ENDROOT
BRANCH   4   5
HETATM    5  C   UNL     1     -10.183   5.157  70.100  1.00  0.00    -0.348 C  
BRANCH   5   6
HETATM    6  C   UNL     1     -10.837   6.002  69.012  1.00  0.00    -0.412 C  
HETATM    7  C   UNL     1      -9.874   7.081  68.479  1.00  0.00    -0.147 C  
HETATM    8  C   UNL     1      -8.597   6.470  67.882  1.00  0.00    -0.117 C  
HETATM    9  C   UNL     1     -10.617   7.958  67.456  1.00  0.00    -0.312 C  
BRANCH   9  10
HETATM   10  C   UNL     1      -9.711   9.046  66.890  1.00  0.00    -0.260 C  
BRANCH  10  11
HETATM   11  C   UNL     1     -10.392   9.846  65.790  1.00  0.00    -0.155 C  
HETATM   12  C   UNL     1      -9.524  11.031  65.325  1.00  0.00    -0.259 C  
HETATM   13  C   UNL     1     -10.287  11.907  64.312  1.00  0.00    -0.362 C  
HETATM   14  C   UNL     1      -8.189  10.578  64.721  1.00  0.00    -0.100 C  
BRANCH  13  15
HETATM   15  C   UNL     1     -11.595  12.511  64.840  1.00  0.00    -0.386 C  
BRANCH  15  16
HETATM   16  C   UNL     1     -11.620  14.037  64.748  1.00  0.00    -0.387 C  
BRANCH  16  17
HETATM   17  C   UNL     1     -11.225  14.685  66.051  1.00  0.00    -0.342 C  
HETATM   18  C   UNL     1     -11.840  14.316  67.192  1.00  0.00    -0.454 C  
HETATM   19  C   UNL     1     -10.106  15.684  65.998  1.00  0.00    -0.355 C  
BRANCH  18  20
HETATM   20  C   UNL     1     -11.517  14.790  68.585  1.00  0.00    -0.325 C  
BRANCH  20  21
HETATM   21  C   UNL     1     -11.949  13.779  69.628  1.00  0.00    -0.399 C  
HETATM   22  C   UNL     1     -12.769  14.050  70.666  1.00  0.00    -0.373 C  
HETATM   23  C   UNL     1     -13.350  15.400  70.995  1.00  0.00    -0.545 C  
HETATM   24  C   UNL     1     -13.206  12.972  71.602  1.00  0.00    -0.336 C  
HETATM   25  O   UNL     1     -13.913  13.222  72.569  1.00  0.00    -0.701 OA 
HETATM   26  C   UNL     1     -12.785  11.590  71.326  1.00  0.00    -0.469 A  
HETATM   27  C   UNL     1     -11.919  11.315  70.278  1.00  0.00    -0.466 A  
HETATM   28  C   UNL     1     -11.409  12.402  69.431  1.00  0.00    -0.220 C  
HETATM   29  C   UNL     1     -11.517   9.996  70.030  1.00  0.00    -0.310 A  
HETATM   30  C   UNL     1     -11.992   8.956  70.831  1.00  0.00    -0.254 A  
HETATM   31  O   UNL     1     -10.566  12.155  68.576  1.00  0.00    -0.221 OA 
HETATM   32  C   UNL     1     -12.867   9.231  71.881  1.00  0.00    -0.485 A  
HETATM   33  C   UNL     1     -13.263  10.546  72.131  1.00  0.00    -0.398 A  
ENDBRANCH  20  21
ENDBRANCH  18  20
ENDBRANCH  16  17
ENDBRANCH  15  16
ENDBRANCH  13  15
ENDBRANCH  10  11
ENDBRANCH   9  10
ENDBRANCH   5   6
ENDBRANCH   4   5
TORSDOF 9
ENDMDL
MODEL       16
REMARK 921   NORMALIZED FREE ENERGY PREDICTED BY IDOCK:   -6.40 KCAL/MOL
REMARK 922        TOTAL FREE ENERGY PREDICTED BY IDOCK:  -12.97 KCAL/MOL
REMARK 923 INTER-LIGAND FREE ENERGY PREDICTED BY IDOCK:  -10.63 KCAL/MOL
REMARK 924 INTRA-LIGAND FREE ENERGY PREDICTED BY IDOCK:   -2.34 KCAL/MOL
REMARK 927      BINDING AFFINITY PREDICTED BY RF-SCORE:    0.00 PKD
ROOT
HETATM    1  C   UNL     1     -13.140   9.917  71.870  1.00  0.00    -0.559 C  
HETATM    2  C   UNL     1     -12.154   8.964  71.199  1.00  0.00    -0.326 C  
HETATM    3  C   UNL     1     -10.743   9.562  71.243  1.00  0.00    -0.386 C  
HETATM    4  C   UNL     1     -12.236   7.578  71.867  1.00  0.00    -0.339 C  
ENDROOT
BRANCH   4   5
HETATM    5  C   UNL     1     -11.276   6.584  71.228  1.00  0.00    -0.338 C  
BRANCH   5   6
HETATM    6  C   UNL     1     -11.512   6.411  69.731  1.00  0.00    -0.468 C  
HETATM    7  C   UNL     1     -10.252   5.884  69.017  1.00  0.00    -0.261 C  
HETATM    8  C   UNL     1      -9.800   4.525  69.572  1.00  0.00    -0.277 C  
HETATM    9  C   UNL     1     -10.521   5.820  67.504  1.00  0.00    -0.310 C  
BRANCH   9  10
HETATM   10  C   UNL     1      -9.306   5.302  66.741  1.00  0.00    -0.134 C  
BRANCH  10  11
HETATM   11  C   UNL     1      -8.683   6.370  65.857  1.00  0.00    -0.152 C  
HETATM   12  C   UNL     1      -8.164   7.563  66.682  1.00  0.00    -0.125 C  
HETATM   13  C   UNL     1      -7.663   8.693  65.761  1.00  0.00    -0.090 C  
HETATM   14  C   UNL     1      -7.055   7.160  67.663  1.00  0.00    -0.089 C  
BRANCH  13  15
HETATM   15  C   UNL     1      -8.719   9.258  64.804  1.00  0.00    -0.220 C  
BRANCH  15  16
HETATM   16  C   UNL     1      -8.613  10.774  64.634  1.00  0.00    -0.064 C  
BRANCH  16  17
HETATM   17  C   UNL     1      -9.962  11.444  64.701  1.00  0.00    -0.315 C  
HETATM   18  C   UNL     1     -10.541  11.656  65.900  1.00  0.00    -0.318 C  
HETATM   19  C   UNL     1     -10.561  11.892  63.401  1.00  0.00    -0.485 C  
BRANCH  18  20
HETATM   20  C   UNL     1     -11.834  12.382  66.162  1.00  0.00    -0.442 C  
BRANCH  20  21
HETATM   21  C   UNL     1     -11.683  13.402  67.273  1.00  0.00    -0.424 C  
HETATM   22  C   UNL     1     -11.300  14.684  67.092  1.00  0.00    -0.365 C  
HETATM   23  C   UNL     1     -10.910  15.304  65.776  1.00  0.00    -0.363 C  
HETATM   24  C   UNL     1     -11.255  15.641  68.236  1.00  0.00    -0.353 C  
HETATM   25  O   UNL     1     -10.866  16.791  68.083  1.00  0.00    -0.350 OA 
HETATM   26  C   UNL     1     -11.709  15.179  69.556  1.00  0.00    -0.351 A  
HETATM   27  C   UNL     1     -12.074  13.855  69.750  1.00  0.00    -0.404 A  
HETATM   28  C   UNL     1     -12.009  12.896  68.638  1.00  0.00    -0.247 C  
HETATM   29  C   UNL     1     -12.496  13.423  71.014  1.00  0.00    -0.437 A  
HETATM   30  C   UNL     1     -12.559  14.324  72.078  1.00  0.00    -0.381 A  
HETATM   31  O   UNL     1     -12.236  11.711  68.851  1.00  0.00    -0.377 OA 
HETATM   32  C   UNL     1     -12.197  15.657  71.883  1.00  0.00    -0.506 A  
HETATM   33  C   UNL     1     -11.771  16.086  70.624  1.00  0.00    -0.376 A  
ENDBRANCH  20  21
ENDBRANCH  18  20
ENDBRANCH  16  17
ENDBRANCH  15  16
ENDBRANCH  13  15
ENDBRANCH  10  11
ENDBRANCH   9  10
ENDBRANCH   5   6
ENDBRANCH   4   5
TORSDOF 9
ENDMDL
MODEL       17
REMARK 921   NORMALIZED FREE ENERGY PREDICTED BY IDOCK:   -6.35 KCAL/MOL
REMARK 922        TOTAL FREE ENERGY PREDICTED BY IDOCK:  -12.90 KCAL/MOL
REMARK 923 INTER-LIGAND FREE ENERGY PREDICTED BY IDOCK:  -10.67 KCAL/MOL
REMARK 924 INTRA-LIGAND FREE ENERGY PREDICTED BY IDOCK:   -2.23 KCAL/MOL
REMARK 927      BINDING AFFINITY PREDICTED BY RF-SCORE:    0.00 PKD
ROOT
HETATM    1  C   UNL     1      -7.389  15.164  68.381  1.00  0.00    -0.115 C  
HETATM    2  C   UNL     1      -7.372  13.857  67.591  1.00  0.00    -0.186 C  
HETATM    3  C   UNL     1      -5.945  13.303  67.535  1.00  0.00    -0.073 C  
HETATM    4  C   UNL     1      -8.374  12.864  68.210  1.00  0.00    -0.157 C  
ENDROOT
BRANCH   4   5
HETATM    5  C   UNL     1      -8.404  11.544  67.452  1.00  0.00    -0.148 C  
BRANCH   5   6
HETATM    6  C   UNL     1      -8.226  10.333  68.363  1.00  0.00    -0.114 C  
HETATM    7  C   UNL     1      -9.567   9.886  68.976  1.00  0.00    -0.188 C  
HETATM    8  C   UNL     1     -10.596   9.506  67.900  1.00  0.00    -0.299 C  
HETATM    9  C   UNL     1      -9.312   8.726  69.954  1.00  0.00    -0.165 C  
BRANCH   9  10
HETATM   10  C   UNL     1     -10.607   8.238  70.593  1.00  0.00    -0.235 C  
BRANCH  10  11
HETATM   11  C   UNL     1     -11.249   9.297  71.475  1.00  0.00    -0.457 C  
HETATM   12  C   UNL     1     -12.769   9.388  71.246  1.00  0.00    -0.391 C  
HETATM   13  C   UNL     1     -13.377  10.557  72.045  1.00  0.00    -0.420 C  
HETATM   14  C   UNL     1     -13.495   8.083  71.598  1.00  0.00    -0.375 C  
BRANCH  13  15
HETATM   15  C   UNL     1     -12.806  11.938  71.701  1.00  0.00    -0.417 C  
BRANCH  15  16
HETATM   16  C   UNL     1     -13.607  13.082  72.324  1.00  0.00    -0.643 C  
BRANCH  16  17
HETATM   17  C   UNL     1     -13.118  14.430  71.859  1.00  0.00    -0.433 C  
HETATM   18  C   UNL     1     -12.266  14.506  70.817  1.00  0.00    -0.403 C  
HETATM   19  C   UNL     1     -13.670  15.632  72.568  1.00  0.00    -0.651 C  
BRANCH  18  20
HETATM   20  C   UNL     1     -11.747  15.761  70.167  1.00  0.00    -0.367 C  
BRANCH  20  21
HETATM   21  C   UNL     1     -11.417  15.533  68.705  1.00  0.00    -0.367 C  
HETATM   22  C   UNL     1     -10.755  16.410  67.921  1.00  0.00    -0.332 C  
HETATM   23  C   UNL     1     -10.279  17.775  68.342  1.00  0.00    -0.384 C  
HETATM   24  C   UNL     1     -10.404  16.067  66.511  1.00  0.00    -0.299 C  
HETATM   25  O   UNL     1      -9.843  16.876  65.785  1.00  0.00    -0.514 OA 
HETATM   26  C   UNL     1     -10.728  14.722  66.014  1.00  0.00    -0.314 A  
HETATM   27  C   UNL     1     -11.435  13.831  66.808  1.00  0.00    -0.367 A  
HETATM   28  C   UNL     1     -11.871  14.221  68.156  1.00  0.00    -0.339 C  
HETATM   29  C   UNL     1     -11.747  12.555  66.322  1.00  0.00    -0.462 A  
HETATM   30  C   UNL     1     -11.341  12.174  65.041  1.00  0.00    -0.379 A  
HETATM   31  O   UNL     1     -12.582  13.461  68.804  1.00  0.00     0.128 OA 
HETATM   32  C   UNL     1     -10.626  13.068  64.245  1.00  0.00    -0.434 A  
HETATM   33  C   UNL     1     -10.320  14.341  64.728  1.00  0.00    -0.373 A  
ENDBRANCH  20  21
ENDBRANCH  18  20
ENDBRANCH  16  17
ENDBRANCH  15  16
ENDBRANCH  13  15
ENDBRANCH  10  11
ENDBRANCH   9  10
ENDBRANCH   5   6
ENDBRANCH   4   5
TORSDOF 9
ENDMDL
MODEL       18
REMARK 921   NORMALIZED FREE ENERGY PREDICTED BY IDOCK:   -6.34 KCAL/MOL
REMARK 922        TOTAL FREE ENERGY PREDICTED BY IDOCK:  -12.87 KCAL/MOL
REMARK 923 INTER-LIGAND FREE ENERGY PREDICTED BY IDOCK:   -9.76 KCAL/MOL
REMARK 924 INTRA-LIGAND FREE ENERGY PREDICTED BY IDOCK:   -3.11 KCAL/MOL
REMARK 927      BINDING AFFINITY PREDICTED BY RF-SCORE:    0.00 PKD
ROOT
HETATM    1  C   UNL     1      -9.704  20.294  67.823  1.00  0.00    -0.520 C  
HETATM    2  C   UNL     1      -8.706  19.250  67.329  1.00  0.00    -0.323 C  
HETATM    3  C   UNL     1      -7.985  19.771  66.081  1.00  0.00    -0.351 C  
HETATM    4  C   UNL     1      -7.736  18.880  68.468  1.00  0.00    -0.365 C  
ENDROOT
BRANCH   4   5
HETATM    5  C   UNL     1      -6.722  17.832  68.029  1.00  0.00    -0.193 C  
BRANCH   5   6
HETATM    6  C   UNL     1      -7.366  16.645  67.319  1.00  0.00    -0.203 C  
HETATM    7  C   UNL     1      -7.318  15.373  68.187  1.00  0.00    -0.122 C  
HETATM    8  C   UNL     1      -8.049  15.560  69.525  1.00  0.00    -0.202 C  
HETATM    9  C   UNL     1      -7.894  14.194  67.384  1.00  0.00    -0.195 C  
BRANCH   9  10
HETATM   10  C   UNL     1      -7.875  12.902  68.194  1.00  0.00    -0.147 C  
BRANCH  10  11
HETATM   11  C   UNL     1      -8.018  11.670  67.316  1.00  0.00    -0.157 C  
HETATM   12  C   UNL     1      -6.649  11.130  66.861  1.00  0.00    -0.124 C  
HETATM   13  C   UNL     1      -6.819   9.968  65.863  1.00  0.00    -0.108 C  
HETATM   14  C   UNL     1      -5.775  10.681  68.039  1.00  0.00    -0.042 C  
BRANCH  13  15
HETATM   15  C   UNL     1      -7.589  10.326  64.585  1.00  0.00    -0.103 C  
BRANCH  15  16
HETATM   16  C   UNL     1      -8.998   9.732  64.557  1.00  0.00    -0.278 C  
BRANCH  16  17
HETATM   17  C   UNL     1     -10.050  10.789  64.336  1.00  0.00    -0.419 C  
HETATM   18  C   UNL     1     -10.847  11.158  65.358  1.00  0.00    -0.212 C  
HETATM   19  C   UNL     1     -10.104  11.416  62.974  1.00  0.00    -0.333 C  
BRANCH  18  20
HETATM   20  C   UNL     1     -11.885  12.250  65.344  1.00  0.00    -0.418 C  
BRANCH  20  21
HETATM   21  C   UNL     1     -11.659  13.244  66.465  1.00  0.00    -0.392 C  
HETATM   22  C   UNL     1     -11.284  14.529  66.288  1.00  0.00    -0.342 C  
HETATM   23  C   UNL     1     -10.976  15.177  64.964  1.00  0.00    -0.443 C  
HETATM   24  C   UNL     1     -11.163  15.461  67.448  1.00  0.00    -0.287 C  
HETATM   25  O   UNL     1     -10.780  16.613  67.296  1.00  0.00    -0.306 OA 
HETATM   26  C   UNL     1     -11.534  14.971  68.784  1.00  0.00    -0.337 A  
HETATM   27  C   UNL     1     -11.890  13.644  68.971  1.00  0.00    -0.393 A  
HETATM   28  C   UNL     1     -11.900  12.709  67.837  1.00  0.00    -0.332 C  
HETATM   29  C   UNL     1     -12.233  13.185  70.250  1.00  0.00    -0.376 A  
HETATM   30  C   UNL     1     -12.225  14.063  71.336  1.00  0.00    -0.349 A  
HETATM   31  O   UNL     1     -12.117  11.520  68.039  1.00  0.00    -0.617 OA 
HETATM   32  C   UNL     1     -11.871  15.399  71.146  1.00  0.00    -0.422 A  
HETATM   33  C   UNL     1     -11.525  15.854  69.873  1.00  0.00    -0.344 A  
ENDBRANCH  20  21
ENDBRANCH  18  20
ENDBRANCH  16  17
ENDBRANCH  15  16
ENDBRANCH  13  15
ENDBRANCH  10  11
ENDBRANCH   9  10
ENDBRANCH   5   6
ENDBRANCH   4   5
TORSDOF 9
ENDMDL
MODEL       19
REMARK 921   NORMALIZED FREE ENERGY PREDICTED BY IDOCK:   -6.33 KCAL/MOL
REMARK 922        TOTAL FREE ENERGY PREDICTED BY IDOCK:  -12.86 KCAL/MOL
REMARK 923 INTER-LIGAND FREE ENERGY PREDICTED BY IDOCK:   -9.12 KCAL/MOL
REMARK 924 INTRA-LIGAND FREE ENERGY PREDICTED BY IDOCK:   -3.73 KCAL/MOL
REMARK 927      BINDING AFFINITY PREDICTED BY RF-SCORE:    0.00 PKD
ROOT
HETATM    1  C   UNL     1      -9.515   5.641  71.284  1.00  0.00    -0.179 C  
HETATM    2  C   UNL     1      -9.555   5.422  69.774  1.00  0.00    -0.225 C  
HETATM    3  C   UNL     1      -9.453   3.924  69.464  1.00  0.00    -0.259 C  
HETATM    4  C   UNL     1     -10.825   6.068  69.189  1.00  0.00    -0.422 C  
ENDROOT
BRANCH   4   5
HETATM    5  C   UNL     1     -10.909   5.886  67.679  1.00  0.00    -0.331 C  
BRANCH   5   6
HETATM    6  C   UNL     1     -10.785   7.200  66.916  1.00  0.00    -0.363 C  
HETATM    7  C   UNL     1      -9.310   7.569  66.662  1.00  0.00    -0.222 C  
HETATM    8  C   UNL     1      -8.578   6.492  65.847  1.00  0.00    -0.153 C  
HETATM    9  C   UNL     1      -9.247   8.944  65.974  1.00  0.00    -0.287 C  
BRANCH   9  10
HETATM   10  C   UNL     1      -7.807   9.364  65.695  1.00  0.00    -0.099 C  
BRANCH  10  11
HETATM   11  C   UNL     1      -7.131   9.952  66.922  1.00  0.00    -0.090 C  
HETATM   12  C   UNL     1      -6.312   8.894  67.685  1.00  0.00    -0.056 C  
HETATM   13  C   UNL     1      -5.749   9.474  68.997  1.00  0.00    -0.036 C  
HETATM   14  C   UNL     1      -5.170   8.313  66.840  1.00  0.00    -0.032 C  
BRANCH  13  15
HETATM   15  C   UNL     1      -6.808   9.990  69.979  1.00  0.00    -0.126 C  
BRANCH  15  16
HETATM   16  C   UNL     1      -7.675   8.871  70.556  1.00  0.00    -0.106 C  
BRANCH  16  17
HETATM   17  C   UNL     1      -9.141   9.223  70.528  1.00  0.00    -0.307 C  
HETATM   18  C   UNL     1      -9.676   9.754  69.410  1.00  0.00    -0.214 C  
HETATM   19  C   UNL     1      -9.939   8.900  71.756  1.00  0.00    -0.397 C  
BRANCH  18  20
HETATM   20  C   UNL     1     -11.127  10.085  69.174  1.00  0.00    -0.232 C  
BRANCH  20  21
HETATM   21  C   UNL     1     -11.427  11.533  69.505  1.00  0.00    -0.378 C  
HETATM   22  C   UNL     1     -11.025  12.589  68.765  1.00  0.00    -0.294 C  
HETATM   23  C   UNL     1     -10.175  12.516  67.524  1.00  0.00    -0.219 C  
HETATM   24  C   UNL     1     -11.435  13.979  69.124  1.00  0.00    -0.296 C  
HETATM   25  O   UNL     1     -11.037  14.941  68.481  1.00  0.00    -0.246 OA 
HETATM   26  C   UNL     1     -12.350  14.170  70.259  1.00  0.00    -0.421 A  
HETATM   27  C   UNL     1     -12.739  13.090  71.038  1.00  0.00    -0.347 A  
HETATM   28  C   UNL     1     -12.240  11.741  70.739  1.00  0.00    -0.326 C  
HETATM   29  C   UNL     1     -13.603  13.285  72.123  1.00  0.00    -0.655 A  
HETATM   30  C   UNL     1     -14.081  14.563  72.418  1.00  0.00    -0.544 A  
HETATM   31  O   UNL     1     -12.510  10.817  71.497  1.00  0.00    -0.369 OA 
HETATM   32  C   UNL     1     -13.695  15.648  71.632  1.00  0.00    -0.467 A  
HETATM   33  C   UNL     1     -12.829  15.454  70.554  1.00  0.00    -0.425 A  
ENDBRANCH  20  21
ENDBRANCH  18  20
ENDBRANCH  16  17
ENDBRANCH  15  16
ENDBRANCH  13  15
ENDBRANCH  10  11
ENDBRANCH   9  10
ENDBRANCH   5   6
ENDBRANCH   4   5
TORSDOF 9
ENDMDL
MODEL       20
REMARK 921   NORMALIZED FREE ENERGY PREDICTED BY IDOCK:   -6.28 KCAL/MOL
REMARK 922        TOTAL FREE ENERGY PREDICTED BY IDOCK:  -12.78 KCAL/MOL
REMARK 923 INTER-LIGAND FREE ENERGY PREDICTED BY IDOCK:   -8.80 KCAL/MOL
REMARK 924 INTRA-LIGAND FREE ENERGY PREDICTED BY IDOCK:   -3.98 KCAL/MOL
REMARK 927      BINDING AFFINITY PREDICTED BY RF-SCORE:    0.00 PKD
ROOT
HETATM    1  C   UNL     1      -9.784  20.817  67.228  1.00  0.00    -0.487 C  
HETATM    2  C   UNL     1      -9.623  19.553  66.386  1.00  0.00    -0.469 C  
HETATM    3  C   UNL     1      -8.137  19.295  66.116  1.00  0.00    -0.294 C  
HETATM    4  C   UNL     1     -10.316  18.370  67.090  1.00  0.00    -0.419 C  
ENDROOT
BRANCH   4   5
HETATM    5  C   UNL     1     -10.193  17.083  66.287  1.00  0.00    -0.336 C  
BRANCH   5   6
HETATM    6  C   UNL     1     -10.126  15.839  67.167  1.00  0.00    -0.251 C  
HETATM    7  C   UNL     1      -8.914  14.957  66.807  1.00  0.00    -0.295 C  
HETATM    8  C   UNL     1      -7.584  15.709  66.969  1.00  0.00    -0.245 C  
HETATM    9  C   UNL     1      -8.952  13.677  67.659  1.00  0.00    -0.202 C  
BRANCH   9  10
HETATM   10  C   UNL     1      -7.772  12.762  67.348  1.00  0.00    -0.165 C  
BRANCH  10  11
HETATM   11  C   UNL     1      -7.625  11.646  68.370  1.00  0.00    -0.126 C  
HETATM   12  C   UNL     1      -6.238  11.662  69.039  1.00  0.00    -0.066 C  
HETATM   13  C   UNL     1      -6.059  10.444  69.966  1.00  0.00    -0.083 C  
HETATM   14  C   UNL     1      -5.979  12.956  69.822  1.00  0.00    -0.129 C  
BRANCH  13  15
HETATM   15  C   UNL     1      -6.187   9.082  69.272  1.00  0.00    -0.041 C  
BRANCH  15  16
HETATM   16  C   UNL     1      -7.209   8.167  69.949  1.00  0.00    -0.060 C  
BRANCH  16  17
HETATM   17  C   UNL     1      -8.354   7.825  69.029  1.00  0.00    -0.131 C  
HETATM   18  C   UNL     1      -9.219   8.790  68.657  1.00  0.00    -0.141 C  
HETATM   19  C   UNL     1      -8.424   6.412  68.533  1.00  0.00    -0.119 C  
BRANCH  18  20
HETATM   20  C   UNL     1     -10.361   8.650  67.684  1.00  0.00    -0.317 C  
BRANCH  20  21
HETATM   21  C   UNL     1     -10.374   9.785  66.679  1.00  0.00    -0.276 C  
HETATM   22  C   UNL     1      -9.668   9.800  65.528  1.00  0.00    -0.382 C  
HETATM   23  C   UNL     1      -8.714   8.728  65.073  1.00  0.00    -0.183 C  
HETATM   24  C   UNL     1      -9.804  10.926  64.558  1.00  0.00    -0.300 C  
HETATM   25  O   UNL     1      -9.133  10.964  63.536  1.00  0.00    -0.205 OA 
HETATM   26  C   UNL     1     -10.782  11.985  64.845  1.00  0.00    -0.346 A  
HETATM   27  C   UNL     1     -11.486  11.987  66.040  1.00  0.00    -0.399 A  
HETATM   28  C   UNL     1     -11.262  10.930  67.036  1.00  0.00    -0.137 C  
HETATM   29  C   UNL     1     -12.409  13.006  66.308  1.00  0.00    -0.278 A  
HETATM   30  C   UNL     1     -12.628  14.018  65.370  1.00  0.00    -0.529 A  
HETATM   31  O   UNL     1     -11.815  11.003  68.127  1.00  0.00    -0.573 OA 
HETATM   32  C   UNL     1     -11.924  14.014  64.167  1.00  0.00    -0.439 A  
HETATM   33  C   UNL     1     -11.001  13.000  63.903  1.00  0.00    -0.375 A  
ENDBRANCH  20  21
ENDBRANCH  18  20
ENDBRANCH  16  17
ENDBRANCH  15  16
ENDBRANCH  13  15
ENDBRANCH  10  11
ENDBRANCH   9  10
ENDBRANCH   5   6
ENDBRANCH   4   5
TORSDOF 9
ENDMDL
MODEL       21
REMARK 921   NORMALIZED FREE ENERGY PREDICTED BY IDOCK:   -6.27 KCAL/MOL
REMARK 922        TOTAL FREE ENERGY PREDICTED BY IDOCK:  -12.78 KCAL/MOL
REMARK 923 INTER-LIGAND FREE ENERGY PREDICTED BY IDOCK:  -10.92 KCAL/MOL
REMARK 924 INTRA-LIGAND FREE ENERGY PREDICTED BY IDOCK:   -1.85 KCAL/MOL
REMARK 927      BINDING AFFINITY PREDICTED BY RF-SCORE:    0.00 PKD
ROOT
HETATM    1  C   UNL     1      -8.950   4.924  73.149  1.00  0.00    -0.111 C  
HETATM    2  C   UNL     1      -9.731   6.063  72.497  1.00  0.00    -0.169 C  
HETATM    3  C   UNL     1     -10.552   5.522  71.322  1.00  0.00    -0.304 C  
HETATM    4  C   UNL     1     -10.599   6.770  73.556  1.00  0.00    -0.358 C  
ENDROOT
BRANCH   4   5
HETATM    5  C   UNL     1     -11.394   7.922  72.958  1.00  0.00    -0.298 C  
BRANCH   5   6
HETATM    6  C   UNL     1     -10.545   8.833  72.076  1.00  0.00    -0.414 C  
HETATM    7  C   UNL     1     -11.287   9.218  70.782  1.00  0.00    -0.349 C  
HETATM    8  C   UNL     1     -12.606   9.953  71.069  1.00  0.00    -0.431 C  
HETATM    9  C   UNL     1     -10.351  10.056  69.894  1.00  0.00    -0.315 C  
BRANCH   9  10
HETATM   10  C   UNL     1     -11.033  10.470  68.595  1.00  0.00    -0.294 C  
BRANCH  10  11
HETATM   11  C   UNL     1     -10.246  10.035  67.368  1.00  0.00    -0.269 C  
HETATM   12  C   UNL     1      -9.365  11.174  66.821  1.00  0.00    -0.193 C  
HETATM   13  C   UNL     1      -8.685  10.758  65.502  1.00  0.00    -0.196 C  
HETATM   14  C   UNL     1      -8.307  11.635  67.831  1.00  0.00    -0.143 C  
BRANCH  13  15
HETATM   15  C   UNL     1      -9.650  10.378  64.372  1.00  0.00    -0.375 C  
BRANCH  15  16
HETATM   16  C   UNL     1      -9.869  11.515  63.374  1.00  0.00    -0.422 C  
BRANCH  16  17
HETATM   17  C   UNL     1     -11.064  12.360  63.736  1.00  0.00    -0.506 C  
HETATM   18  C   UNL     1     -10.888  13.496  64.440  1.00  0.00    -0.403 C  
HETATM   19  C   UNL     1     -12.398  11.897  63.230  1.00  0.00    -0.508 C  
BRANCH  18  20
HETATM   20  C   UNL     1     -11.947  14.499  64.813  1.00  0.00    -0.449 C  
BRANCH  20  21
HETATM   21  C   UNL     1     -11.459  15.446  65.891  1.00  0.00    -0.014 C  
HETATM   22  C   UNL     1     -11.359  15.133  67.201  1.00  0.00    -0.291 C  
HETATM   23  C   UNL     1     -11.759  13.820  67.820  1.00  0.00    -0.393 C  
HETATM   24  C   UNL     1     -10.792  16.105  68.182  1.00  0.00    -0.329 C  
HETATM   25  O   UNL     1     -10.741  15.841  69.375  1.00  0.00    -0.226 OA 
HETATM   26  C   UNL     1     -10.273  17.386  67.681  1.00  0.00    -0.342 A  
HETATM   27  C   UNL     1     -10.403  17.721  66.341  1.00  0.00    -0.351 A  
HETATM   28  C   UNL     1     -11.062  16.800  65.405  1.00  0.00     0.054 C  
HETATM   29  C   UNL     1      -9.913  18.949  65.876  1.00  0.00    -0.172 A  
HETATM   30  C   UNL     1      -9.287  19.833  66.757  1.00  0.00    -0.473 A  
HETATM   31  O   UNL     1     -11.260  17.156  64.249  1.00  0.00    -1.126 OA 
HETATM   32  C   UNL     1      -9.152  19.494  68.103  1.00  0.00    -0.396 A  
HETATM   33  C   UNL     1      -9.645  18.273  68.566  1.00  0.00    -0.358 A  
ENDBRANCH  20  21
ENDBRANCH  18  20
ENDBRANCH  16  17
ENDBRANCH  15  16
ENDBRANCH  13  15
ENDBRANCH  10  11
ENDBRANCH   9  10
ENDBRANCH   5   6
ENDBRANCH   4   5
TORSDOF 9
ENDMDL
MODEL       22
REMARK 921   NORMALIZED FREE ENERGY PREDICTED BY IDOCK:   -6.25 KCAL/MOL
REMARK 922        TOTAL FREE ENERGY PREDICTED BY IDOCK:  -12.73 KCAL/MOL
REMARK 923 INTER-LIGAND FREE ENERGY PREDICTED BY IDOCK:   -8.82 KCAL/MOL
REMARK 924 INTRA-LIGAND FREE ENERGY PREDICTED BY IDOCK:   -3.92 KCAL/MOL
REMARK 927      BINDING AFFINITY PREDICTED BY RF-SCORE:    0.00 PKD
ROOT
HETATM    1  C   UNL     1      -7.014   9.395  69.216  1.00  0.00    -0.053 C  
HETATM    2  C   UNL     1      -7.303  10.880  69.421  1.00  0.00    -0.116 C  
HETATM    3  C   UNL     1      -6.097  11.557  70.081  1.00  0.00    -0.156 C  
HETATM    4  C   UNL     1      -7.687  11.525  68.075  1.00  0.00    -0.119 C  
ENDROOT
BRANCH   4   5
HETATM    5  C   UNL     1      -7.996  13.008  68.226  1.00  0.00    -0.151 C  
BRANCH   5   6
HETATM    6  C   UNL     1      -7.010  13.898  67.476  1.00  0.00    -0.162 C  
HETATM    7  C   UNL     1      -7.107  15.365  67.939  1.00  0.00    -0.156 C  
HETATM    8  C   UNL     1      -6.814  15.517  69.439  1.00  0.00    -0.176 C  
HETATM    9  C   UNL     1      -6.161  16.226  67.084  1.00  0.00    -0.148 C  
BRANCH   9  10
HETATM   10  C   UNL     1      -6.211  17.693  67.499  1.00  0.00    -0.172 C  
BRANCH  10  11
HETATM   11  C   UNL     1      -7.570  18.319  67.232  1.00  0.00    -0.226 C  
HETATM   12  C   UNL     1      -8.223  18.840  68.526  1.00  0.00    -0.379 C  
HETATM   13  C   UNL     1      -9.654  19.345  68.256  1.00  0.00    -0.454 C  
HETATM   14  C   UNL     1      -7.398  19.947  69.195  1.00  0.00    -0.223 C  
BRANCH  13  15
HETATM   15  C   UNL     1     -10.611  18.291  67.684  1.00  0.00    -0.427 C  
BRANCH  15  16
HETATM   16  C   UNL     1     -10.541  16.960  68.433  1.00  0.00    -0.365 C  
BRANCH  16  17
HETATM   17  C   UNL     1     -10.867  15.792  67.538  1.00  0.00    -0.315 C  
HETATM   18  C   UNL     1     -11.647  14.795  68.002  1.00  0.00    -0.367 C  
HETATM   19  C   UNL     1     -10.334  15.844  66.136  1.00  0.00    -0.341 C  
BRANCH  18  20
HETATM   20  C   UNL     1     -12.143  13.603  67.226  1.00  0.00    -0.385 C  
BRANCH  20  21
HETATM   21  C   UNL     1     -11.647  12.304  67.829  1.00  0.00    -0.416 C  
HETATM   22  C   UNL     1     -11.730  11.983  69.138  1.00  0.00    -0.389 C  
HETATM   23  C   UNL     1     -12.276  12.871  70.224  1.00  0.00    -0.362 C  
HETATM   24  C   UNL     1     -11.286  10.645  69.630  1.00  0.00    -0.294 C  
HETATM   25  O   UNL     1     -11.319  10.368  70.822  1.00  0.00    -0.330 OA 
HETATM   26  C   UNL     1     -10.826   9.653  68.648  1.00  0.00    -0.203 A  
HETATM   27  C   UNL     1     -10.712   9.991  67.308  1.00  0.00    -0.309 A  
HETATM   28  C   UNL     1     -11.048  11.347  66.852  1.00  0.00    -0.295 C  
HETATM   29  C   UNL     1     -10.263   9.040  66.382  1.00  0.00    -0.297 A  
HETATM   30  C   UNL     1      -9.938   7.750  66.803  1.00  0.00    -0.331 A  
HETATM   31  O   UNL     1     -10.844  11.658  65.684  1.00  0.00    -0.276 OA 
HETATM   32  C   UNL     1     -10.057   7.408  68.150  1.00  0.00    -0.210 A  
HETATM   33  C   UNL     1     -10.499   8.357  69.073  1.00  0.00    -0.216 A  
ENDBRANCH  20  21
ENDBRANCH  18  20
ENDBRANCH  16  17
ENDBRANCH  15  16
ENDBRANCH  13  15
ENDBRANCH  10  11
ENDBRANCH   9  10
ENDBRANCH   5   6
ENDBRANCH   4   5
TORSDOF 9
ENDMDL
MODEL       23
REMARK 921   NORMALIZED FREE ENERGY PREDICTED BY IDOCK:   -6.24 KCAL/MOL
REMARK 922        TOTAL FREE ENERGY PREDICTED BY IDOCK:  -12.73 KCAL/MOL
REMARK 923 INTER-LIGAND FREE ENERGY PREDICTED BY IDOCK:  -10.18 KCAL/MOL
REMARK 924 INTRA-LIGAND FREE ENERGY PREDICTED BY IDOCK:   -2.55 KCAL/MOL
REMARK 927      BINDING AFFINITY PREDICTED BY RF-SCORE:    0.00 PKD
ROOT
HETATM    1  C   UNL     1      -9.752  19.891  66.261  1.00  0.00    -0.551 C  
HETATM    2  C   UNL     1      -9.441  18.794  67.277  1.00  0.00    -0.326 C  
HETATM    3  C   UNL     1      -8.658  19.385  68.454  1.00  0.00    -0.397 C  
HETATM    4  C   UNL     1     -10.748  18.106  67.714  1.00  0.00    -0.355 C  
ENDROOT
BRANCH   4   5
HETATM    5  C   UNL     1     -10.493  16.995  68.723  1.00  0.00    -0.347 C  
BRANCH   5   6
HETATM    6  C   UNL     1     -11.365  15.766  68.485  1.00  0.00    -0.374 C  
HETATM    7  C   UNL     1     -11.409  14.856  69.728  1.00  0.00    -0.314 C  
HETATM    8  C   UNL     1     -11.968  15.586  70.958  1.00  0.00    -0.428 C  
HETATM    9  C   UNL     1     -12.223  13.593  69.397  1.00  0.00    -0.307 C  
BRANCH   9  10
HETATM   10  C   UNL     1     -12.304  12.650  70.593  1.00  0.00    -0.375 C  
BRANCH  10  11
HETATM   11  C   UNL     1     -11.701  11.287  70.294  1.00  0.00    -0.415 C  
HETATM   12  C   UNL     1     -12.022  10.265  71.401  1.00  0.00    -0.419 C  
HETATM   13  C   UNL     1     -11.289   8.933  71.148  1.00  0.00    -0.357 C  
HETATM   14  C   UNL     1     -13.528  10.011  71.546  1.00  0.00    -0.375 C  
BRANCH  13  15
HETATM   15  C   UNL     1      -9.760   9.040  71.091  1.00  0.00    -0.369 C  
BRANCH  15  16
HETATM   16  C   UNL     1      -9.128   7.997  70.169  1.00  0.00    -0.151 C  
BRANCH  16  17
HETATM   17  C   UNL     1      -8.295   8.634  69.085  1.00  0.00    -0.119 C  
HETATM   18  C   UNL     1      -8.547   9.904  68.713  1.00  0.00    -0.130 C  
HETATM   19  C   UNL     1      -7.177   7.810  68.518  1.00  0.00    -0.086 C  
BRANCH  18  20
HETATM   20  C   UNL     1      -7.768  10.724  67.718  1.00  0.00    -0.104 C  
BRANCH  20  21
HETATM   21  C   UNL     1      -8.596  11.038  66.488  1.00  0.00    -0.165 C  
HETATM   22  C   UNL     1      -8.627  10.282  65.370  1.00  0.00    -0.169 C  
HETATM   23  C   UNL     1      -7.813   9.038  65.131  1.00  0.00    -0.108 C  
HETATM   24  C   UNL     1      -9.534  10.626  64.235  1.00  0.00    -0.274 C  
HETATM   25  O   UNL     1      -9.533   9.968  63.203  1.00  0.00    -0.299 OA 
HETATM   26  C   UNL     1     -10.452  11.764  64.391  1.00  0.00    -0.359 A  
HETATM   27  C   UNL     1     -10.400  12.559  65.526  1.00  0.00    -0.303 A  
HETATM   28  C   UNL     1      -9.426  12.274  66.588  1.00  0.00    -0.226 C  
HETATM   29  C   UNL     1     -11.273  13.646  65.659  1.00  0.00    -0.305 A  
HETATM   30  C   UNL     1     -12.201  13.928  64.655  1.00  0.00    -0.449 A  
HETATM   31  O   UNL     1      -9.324  13.046  67.535  1.00  0.00    -0.187 OA 
HETATM   32  C   UNL     1     -12.257  13.126  63.516  1.00  0.00    -0.552 A  
HETATM   33  C   UNL     1     -11.384  12.045  63.381  1.00  0.00    -0.484 A  
ENDBRANCH  20  21
ENDBRANCH  18  20
ENDBRANCH  16  17
ENDBRANCH  15  16
ENDBRANCH  13  15
ENDBRANCH  10  11
ENDBRANCH   9  10
ENDBRANCH   5   6
ENDBRANCH   4   5
TORSDOF 9
ENDMDL
MODEL       24
REMARK 921   NORMALIZED FREE ENERGY PREDICTED BY IDOCK:   -6.24 KCAL/MOL
REMARK 922        TOTAL FREE ENERGY PREDICTED BY IDOCK:  -12.72 KCAL/MOL
REMARK 923 INTER-LIGAND FREE ENERGY PREDICTED BY IDOCK:   -9.34 KCAL/MOL
REMARK 924 INTRA-LIGAND FREE ENERGY PREDICTED BY IDOCK:   -3.38 KCAL/MOL
REMARK 927      BINDING AFFINITY PREDICTED BY RF-SCORE:    0.00 PKD
ROOT
HETATM    1  C   UNL     1     -12.565  16.021  73.706  1.00  0.00    -0.724 C  
HETATM    2  C   UNL     1     -13.408  14.928  73.052  1.00  0.00    -0.556 C  
HETATM    3  C   UNL     1     -14.304  15.542  71.971  1.00  0.00    -0.600 C  
HETATM    4  C   UNL     1     -12.487  13.820  72.505  1.00  0.00     0.029 C  
ENDROOT
BRANCH   4   5
HETATM    5  C   UNL     1     -13.280  12.698  71.849  1.00  0.00    -0.504 C  
BRANCH   5   6
HETATM    6  C   UNL     1     -12.515  12.013  70.721  1.00  0.00    -0.372 C  
HETATM    7  C   UNL     1     -11.914  10.670  71.180  1.00  0.00    -0.401 C  
HETATM    8  C   UNL     1     -12.995   9.691  71.665  1.00  0.00    -0.501 C  
HETATM    9  C   UNL     1     -11.080  10.074  70.034  1.00  0.00    -0.350 C  
BRANCH   9  10
HETATM   10  C   UNL     1     -10.460   8.738  70.429  1.00  0.00    -0.240 C  
BRANCH  10  11
HETATM   11  C   UNL     1      -9.949   7.962  69.226  1.00  0.00    -0.190 C  
HETATM   12  C   UNL     1      -8.687   7.147  69.564  1.00  0.00    -0.134 C  
HETATM   13  C   UNL     1      -8.108   6.479  68.302  1.00  0.00    -0.110 C  
HETATM   14  C   UNL     1      -8.945   6.086  70.643  1.00  0.00    -0.150 C  
BRANCH  13  15
HETATM   15  C   UNL     1      -7.707   7.452  67.186  1.00  0.00    -0.115 C  
BRANCH  15  16
HETATM   16  C   UNL     1      -8.551   7.283  65.922  1.00  0.00    -0.159 C  
BRANCH  16  17
HETATM   17  C   UNL     1      -8.902   8.610  65.298  1.00  0.00    -0.178 C  
HETATM   18  C   UNL     1      -9.772   9.429  65.921  1.00  0.00    -0.355 C  
HETATM   19  C   UNL     1      -8.199   8.964  64.020  1.00  0.00    -0.168 C  
BRANCH  18  20
HETATM   20  C   UNL     1     -10.170  10.817  65.491  1.00  0.00    -0.330 C  
BRANCH  20  21
HETATM   21  C   UNL     1      -9.949  11.826  66.601  1.00  0.00    -0.224 C  
HETATM   22  C   UNL     1      -8.757  12.076  67.185  1.00  0.00    -0.183 C  
HETATM   23  C   UNL     1      -7.465  11.368  66.875  1.00  0.00    -0.147 C  
HETATM   24  C   UNL     1      -8.617  13.145  68.217  1.00  0.00    -0.166 C  
HETATM   25  O   UNL     1      -7.549  13.345  68.779  1.00  0.00    -0.113 OA 
HETATM   26  C   UNL     1      -9.790  13.974  68.532  1.00  0.00    -0.225 A  
HETATM   27  C   UNL     1     -11.021  13.699  67.956  1.00  0.00    -0.270 A  
HETATM   28  C   UNL     1     -11.169  12.573  67.023  1.00  0.00    -0.302 C  
HETATM   29  C   UNL     1     -12.134  14.489  68.271  1.00  0.00    -0.234 A  
HETATM   30  C   UNL     1     -12.006  15.560  69.157  1.00  0.00    -0.331 A  
HETATM   31  O   UNL     1     -12.284  12.281  66.604  1.00  0.00    -0.574 OA 
HETATM   32  C   UNL     1     -10.767  15.840  69.733  1.00  0.00    -0.317 A  
HETATM   33  C   UNL     1      -9.659  15.049  69.423  1.00  0.00    -0.145 A  
ENDBRANCH  20  21
ENDBRANCH  18  20
ENDBRANCH  16  17
ENDBRANCH  15  16
ENDBRANCH  13  15
ENDBRANCH  10  11
ENDBRANCH   9  10
ENDBRANCH   5   6
ENDBRANCH   4   5
TORSDOF 9
ENDMDL
MODEL       25
REMARK 921   NORMALIZED FREE ENERGY PREDICTED BY IDOCK:   -6.23 KCAL/MOL
REMARK 922        TOTAL FREE ENERGY PREDICTED BY IDOCK:  -12.72 KCAL/MOL
REMARK 923 INTER-LIGAND FREE ENERGY PREDICTED BY IDOCK:  -10.13 KCAL/MOL
REMARK 924 INTRA-LIGAND FREE ENERGY PREDICTED BY IDOCK:   -2.58 KCAL/MOL
REMARK 927      BINDING AFFINITY PREDICTED BY RF-SCORE:    0.00 PKD
ROOT
HETATM    1  C   UNL     1     -12.361  16.200  73.658  1.00  0.00    -0.667 C  
HETATM    2  C   UNL     1     -13.168  15.357  72.673  1.00  0.00    -0.567 C  
HETATM    3  C   UNL     1     -12.705  15.647  71.241  1.00  0.00    -0.537 C  
HETATM    4  C   UNL     1     -13.049  13.867  73.048  1.00  0.00    -0.249 C  
ENDROOT
BRANCH   4   5
HETATM    5  C   UNL     1     -13.845  12.980  72.100  1.00  0.00    -0.450 C  
BRANCH   5   6
HETATM    6  C   UNL     1     -12.985  12.365  71.002  1.00  0.00    -0.151 C  
HETATM    7  C   UNL     1     -12.286  11.079  71.485  1.00  0.00    -0.299 C  
HETATM    8  C   UNL     1     -13.293  10.009  71.935  1.00  0.00    -0.516 C  
HETATM    9  C   UNL     1     -11.364  10.558  70.369  1.00  0.00    -0.411 C  
BRANCH   9  10
HETATM   10  C   UNL     1     -10.644   9.281  70.789  1.00  0.00    -0.351 C  
BRANCH  10  11
HETATM   11  C   UNL     1     -10.623   8.241  69.680  1.00  0.00    -0.222 C  
HETATM   12  C   UNL     1     -10.845   6.818  70.227  1.00  0.00    -0.314 C  
HETATM   13  C   UNL     1     -10.683   5.768  69.110  1.00  0.00    -0.370 C  
HETATM   14  C   UNL     1     -12.213   6.655  70.901  1.00  0.00    -0.324 C  
BRANCH  13  15
HETATM   15  C   UNL     1      -9.308   5.759  68.429  1.00  0.00    -0.130 C  
BRANCH  15  16
HETATM   16  C   UNL     1      -9.400   5.574  66.914  1.00  0.00    -0.129 C  
BRANCH  16  17
HETATM   17  C   UNL     1      -8.707   6.686  66.168  1.00  0.00    -0.154 C  
HETATM   18  C   UNL     1      -8.722   7.936  66.673  1.00  0.00    -0.154 C  
HETATM   19  C   UNL     1      -7.982   6.308  64.910  1.00  0.00    -0.124 C  
BRANCH  18  20
HETATM   20  C   UNL     1      -8.015   9.143  66.114  1.00  0.00    -0.103 C  
BRANCH  20  21
HETATM   21  C   UNL     1      -9.000  10.190  65.634  1.00  0.00    -0.199 C  
HETATM   22  C   UNL     1      -9.432  10.312  64.361  1.00  0.00    -0.360 C  
HETATM   23  C   UNL     1      -8.977   9.473  63.197  1.00  0.00    -0.217 C  
HETATM   24  C   UNL     1     -10.466  11.325  63.994  1.00  0.00    -0.378 C  
HETATM   25  O   UNL     1     -10.827  11.468  62.834  1.00  0.00    -0.112 OA 
HETATM   26  C   UNL     1     -11.062  12.139  65.064  1.00  0.00    -0.368 A  
HETATM   27  C   UNL     1     -10.598  12.035  66.367  1.00  0.00    -0.278 A  
HETATM   28  C   UNL     1      -9.503  11.112  66.695  1.00  0.00    -0.183 C  
HETATM   29  C   UNL     1     -11.166  12.822  67.377  1.00  0.00    -0.337 A  
HETATM   30  C   UNL     1     -12.205  13.705  67.077  1.00  0.00    -0.373 A  
HETATM   31  O   UNL     1      -9.036  11.108  67.829  1.00  0.00    -0.144 OA 
HETATM   32  C   UNL     1     -12.675  13.806  65.768  1.00  0.00    -0.494 A  
HETATM   33  C   UNL     1     -12.105  13.025  64.761  1.00  0.00    -0.465 A  
ENDBRANCH  20  21
ENDBRANCH  18  20
ENDBRANCH  16  17
ENDBRANCH  15  16
ENDBRANCH  13  15
ENDBRANCH  10  11
ENDBRANCH   9  10
ENDBRANCH   5   6
ENDBRANCH   4   5
TORSDOF 9
ENDMDL
MODEL       26
REMARK 921   NORMALIZED FREE ENERGY PREDICTED BY IDOCK:   -6.22 KCAL/MOL
REMARK 922        TOTAL FREE ENERGY PREDICTED BY IDOCK:  -12.70 KCAL/MOL
REMARK 923 INTER-LIGAND FREE ENERGY PREDICTED BY IDOCK:   -8.34 KCAL/MOL
REMARK 924 INTRA-LIGAND FREE ENERGY PREDICTED BY IDOCK:   -4.36 KCAL/MOL
REMARK 927      BINDING AFFINITY PREDICTED BY RF-SCORE:    0.00 PKD
ROOT
HETATM    1  C   UNL     1     -13.429   9.293  72.631  1.00  0.00    -0.371 C  
HETATM    2  C   UNL     1     -13.410  10.273  71.460  1.00  0.00    -0.413 C  
HETATM    3  C   UNL     1     -13.371  11.711  71.989  1.00  0.00    -0.405 C  
HETATM    4  C   UNL     1     -12.227   9.947  70.529  1.00  0.00    -0.260 C  
ENDROOT
BRANCH   4   5
HETATM    5  C   UNL     1     -12.168  10.892  69.337  1.00  0.00    -0.293 C  
BRANCH   5   6
HETATM    6  C   UNL     1     -10.819  11.591  69.201  1.00  0.00    -0.241 C  
HETATM    7  C   UNL     1     -10.881  12.749  68.186  1.00  0.00    -0.249 C  
HETATM    8  C   UNL     1     -11.913  13.813  68.588  1.00  0.00    -0.401 C  
HETATM    9  C   UNL     1      -9.476  13.352  68.022  1.00  0.00    -0.218 C  
BRANCH   9  10
HETATM   10  C   UNL     1      -9.475  14.508  67.027  1.00  0.00    -0.247 C  
BRANCH  10  11
HETATM   11  C   UNL     1      -9.539  14.027  65.587  1.00  0.00    -0.090 C  
HETATM   12  C   UNL     1     -10.976  14.074  65.032  1.00  0.00    -0.379 C  
HETATM   13  C   UNL     1     -11.042  13.455  63.622  1.00  0.00     0.082 C  
HETATM   14  C   UNL     1     -11.546  15.498  65.003  1.00  0.00    -0.133 C  
BRANCH  13  15
HETATM   15  C   UNL     1     -10.597  11.989  63.542  1.00  0.00    -0.514 C  
BRANCH  15  16
HETATM   16  C   UNL     1     -10.985  11.185  64.783  1.00  0.00    -0.218 C  
BRANCH  16  17
HETATM   17  C   UNL     1      -9.911  10.201  65.174  1.00  0.00    -0.379 C  
HETATM   18  C   UNL     1     -10.079   9.434  66.270  1.00  0.00    -0.328 C  
HETATM   19  C   UNL     1      -8.723  10.098  64.264  1.00  0.00    -0.218 C  
BRANCH  18  20
HETATM   20  C   UNL     1      -9.159   8.346  66.758  1.00  0.00    -0.192 C  
BRANCH  20  21
HETATM   21  C   UNL     1      -9.021   8.372  68.268  1.00  0.00    -0.139 C  
HETATM   22  C   UNL     1      -8.189   9.189  68.948  1.00  0.00    -0.112 C  
HETATM   23  C   UNL     1      -7.225  10.169  68.332  1.00  0.00    -0.076 C  
HETATM   24  C   UNL     1      -8.176   9.202  70.441  1.00  0.00    -0.171 C  
HETATM   25  O   UNL     1      -7.393   9.909  71.060  1.00  0.00    -0.312 OA 
HETATM   26  C   UNL     1      -9.145   8.360  71.158  1.00  0.00    -0.217 A  
HETATM   27  C   UNL     1      -9.979   7.498  70.461  1.00  0.00    -0.184 A  
HETATM   28  C   UNL     1      -9.904   7.415  68.996  1.00  0.00    -0.168 C  
HETATM   29  C   UNL     1     -10.891   6.693  71.155  1.00  0.00    -0.284 A  
HETATM   30  C   UNL     1     -10.969   6.761  72.548  1.00  0.00    -0.281 A  
HETATM   31  O   UNL     1     -10.575   6.576  68.405  1.00  0.00    -0.197 OA 
HETATM   32  C   UNL     1     -10.134   7.631  73.248  1.00  0.00    -0.393 A  
HETATM   33  C   UNL     1      -9.221   8.429  72.557  1.00  0.00    -0.338 A  
ENDBRANCH  20  21
ENDBRANCH  18  20
ENDBRANCH  16  17
ENDBRANCH  15  16
ENDBRANCH  13  15
ENDBRANCH  10  11
ENDBRANCH   9  10
ENDBRANCH   5   6
ENDBRANCH   4   5
TORSDOF 9
ENDMDL
MODEL       27
REMARK 921   NORMALIZED FREE ENERGY PREDICTED BY IDOCK:   -6.19 KCAL/MOL
REMARK 922        TOTAL FREE ENERGY PREDICTED BY IDOCK:  -12.64 KCAL/MOL
REMARK 923 INTER-LIGAND FREE ENERGY PREDICTED BY IDOCK:   -8.62 KCAL/MOL
REMARK 924 INTRA-LIGAND FREE ENERGY PREDICTED BY IDOCK:   -4.03 KCAL/MOL
REMARK 927      BINDING AFFINITY PREDICTED BY RF-SCORE:    0.00 PKD
ROOT
HETATM    1  C   UNL     1      -9.778  20.943  67.563  1.00  0.00    -0.343 C  
HETATM    2  C   UNL     1      -9.440  19.608  66.904  1.00  0.00    -0.456 C  
HETATM    3  C   UNL     1      -8.133  19.058  67.486  1.00  0.00    -0.292 C  
HETATM    4  C   UNL     1     -10.623  18.635  67.068  1.00  0.00    -0.448 C  
ENDROOT
BRANCH   4   5
HETATM    5  C   UNL     1     -10.341  17.287  66.418  1.00  0.00    -0.316 C  
BRANCH   5   6
HETATM    6  C   UNL     1     -10.168  16.163  67.436  1.00  0.00    -0.272 C  
HETATM    7  C   UNL     1      -9.139  15.121  66.957  1.00  0.00    -0.249 C  
HETATM    8  C   UNL     1      -7.755  15.743  66.718  1.00  0.00    -0.216 C  
HETATM    9  C   UNL     1      -9.077  13.970  67.975  1.00  0.00    -0.190 C  
BRANCH   9  10
HETATM   10  C   UNL     1      -8.070  12.904  67.555  1.00  0.00    -0.181 C  
BRANCH  10  11
HETATM   11  C   UNL     1      -7.823  11.881  68.653  1.00  0.00    -0.104 C  
HETATM   12  C   UNL     1      -6.358  11.896  69.128  1.00  0.00    -0.092 C  
HETATM   13  C   UNL     1      -6.097  10.762  70.139  1.00  0.00    -0.118 C  
HETATM   14  C   UNL     1      -5.953  13.243  69.740  1.00  0.00    -0.128 C  
BRANCH  13  15
HETATM   15  C   UNL     1      -6.363   9.349  69.605  1.00  0.00    -0.040 C  
BRANCH  15  16
HETATM   16  C   UNL     1      -5.641   9.070  68.286  1.00  0.00    -0.038 C  
BRANCH  16  17
HETATM   17  C   UNL     1      -6.600   8.992  67.125  1.00  0.00    -0.061 C  
HETATM   18  C   UNL     1      -7.783   8.367  67.281  1.00  0.00    -0.098 C  
HETATM   19  C   UNL     1      -6.186   9.680  65.858  1.00  0.00    -0.069 C  
BRANCH  18  20
HETATM   20  C   UNL     1      -8.892   8.268  66.265  1.00  0.00    -0.192 C  
BRANCH  20  21
HETATM   21  C   UNL     1      -9.835   9.451  66.358  1.00  0.00    -0.337 C  
HETATM   22  C   UNL     1     -10.530   9.795  67.463  1.00  0.00    -0.309 C  
HETATM   23  C   UNL     1     -10.529   9.043  68.767  1.00  0.00    -0.230 C  
HETATM   24  C   UNL     1     -11.376  11.024  67.487  1.00  0.00    -0.257 C  
HETATM   25  O   UNL     1     -12.041  11.315  68.472  1.00  0.00    -0.573 OA 
HETATM   26  C   UNL     1     -11.380  11.897  66.303  1.00  0.00    -0.394 A  
HETATM   27  C   UNL     1     -10.692  11.529  65.157  1.00  0.00    -0.348 A  
HETATM   28  C   UNL     1      -9.951  10.261  65.109  1.00  0.00    -0.325 C  
HETATM   29  C   UNL     1     -10.709  12.364  64.032  1.00  0.00    -0.441 A  
HETATM   30  C   UNL     1     -11.412  13.570  64.064  1.00  0.00    -0.357 A  
HETATM   31  O   UNL     1      -9.434   9.904  64.057  1.00  0.00    -0.277 OA 
HETATM   32  C   UNL     1     -12.101  13.942  65.218  1.00  0.00    -0.422 A  
HETATM   33  C   UNL     1     -12.087  13.108  66.337  1.00  0.00    -0.447 A  
ENDBRANCH  20  21
ENDBRANCH  18  20
ENDBRANCH  16  17
ENDBRANCH  15  16
ENDBRANCH  13  15
ENDBRANCH  10  11
ENDBRANCH   9  10
ENDBRANCH   5   6
ENDBRANCH   4   5
TORSDOF 9
ENDMDL
MODEL       28
REMARK 921   NORMALIZED FREE ENERGY PREDICTED BY IDOCK:   -6.19 KCAL/MOL
REMARK 922        TOTAL FREE ENERGY PREDICTED BY IDOCK:  -12.64 KCAL/MOL
REMARK 923 INTER-LIGAND FREE ENERGY PREDICTED BY IDOCK:  -10.09 KCAL/MOL
REMARK 924 INTRA-LIGAND FREE ENERGY PREDICTED BY IDOCK:   -2.55 KCAL/MOL
REMARK 927      BINDING AFFINITY PREDICTED BY RF-SCORE:    0.00 PKD
ROOT
HETATM    1  C   UNL     1     -11.956  16.675  72.192  1.00  0.00    -0.104 C  
HETATM    2  C   UNL     1     -12.027  15.169  72.438  1.00  0.00    -0.488 C  
HETATM    3  C   UNL     1     -12.121  14.894  73.943  1.00  0.00    -0.494 C  
HETATM    4  C   UNL     1     -13.204  14.569  71.646  1.00  0.00    -0.424 C  
ENDROOT
BRANCH   4   5
HETATM    5  C   UNL     1     -13.315  13.064  71.850  1.00  0.00    -0.539 C  
BRANCH   5   6
HETATM    6  C   UNL     1     -12.604  12.265  70.762  1.00  0.00    -0.302 C  
HETATM    7  C   UNL     1     -12.112  10.904  71.291  1.00  0.00    -0.322 C  
HETATM    8  C   UNL     1     -13.267  10.039  71.818  1.00  0.00    -0.540 C  
HETATM    9  C   UNL     1     -11.325  10.187  70.181  1.00  0.00    -0.372 C  
BRANCH   9  10
HETATM   10  C   UNL     1     -10.813   8.828  70.646  1.00  0.00    -0.273 C  
BRANCH  10  11
HETATM   11  C   UNL     1     -10.246   8.004  69.501  1.00  0.00    -0.209 C  
HETATM   12  C   UNL     1      -8.959   7.265  69.911  1.00  0.00    -0.142 C  
HETATM   13  C   UNL     1      -8.326   6.549  68.701  1.00  0.00    -0.122 C  
HETATM   14  C   UNL     1      -9.195   6.260  71.046  1.00  0.00    -0.160 C  
BRANCH  13  15
HETATM   15  C   UNL     1      -7.942   7.471  67.537  1.00  0.00    -0.116 C  
BRANCH  15  16
HETATM   16  C   UNL     1      -8.798   7.237  66.291  1.00  0.00    -0.179 C  
BRANCH  16  17
HETATM   17  C   UNL     1      -8.672   8.367  65.301  1.00  0.00    -0.148 C  
HETATM   18  C   UNL     1      -9.600   9.345  65.285  1.00  0.00    -0.251 C  
HETATM   19  C   UNL     1      -7.461   8.359  64.415  1.00  0.00    -0.104 C  
BRANCH  18  20
HETATM   20  C   UNL     1      -9.588  10.585  64.431  1.00  0.00    -0.357 C  
BRANCH  20  21
HETATM   21  C   UNL     1     -10.251  11.751  65.137  1.00  0.00    -0.309 C  
HETATM   22  C   UNL     1     -11.419  12.313  64.761  1.00  0.00    -0.382 C  
HETATM   23  C   UNL     1     -12.234  11.918  63.558  1.00  0.00    -0.591 C  
HETATM   24  C   UNL     1     -12.039  13.408  65.564  1.00  0.00    -0.428 C  
HETATM   25  O   UNL     1     -13.075  13.949  65.202  1.00  0.00    -0.773 OA 
HETATM   26  C   UNL     1     -11.387  13.814  66.818  1.00  0.00    -0.345 A  
HETATM   27  C   UNL     1     -10.171  13.259  67.190  1.00  0.00    -0.246 A  
HETATM   28  C   UNL     1      -9.518  12.260  66.334  1.00  0.00    -0.237 C  
HETATM   29  C   UNL     1      -9.555  13.659  68.382  1.00  0.00    -0.203 A  
HETATM   30  C   UNL     1     -10.165  14.610  69.203  1.00  0.00    -0.199 A  
HETATM   31  O   UNL     1      -8.397  11.857  66.625  1.00  0.00    -0.176 OA 
HETATM   32  C   UNL     1     -11.389  15.164  68.832  1.00  0.00    -0.314 A  
HETATM   33  C   UNL     1     -12.001  14.769  67.641  1.00  0.00    -0.244 A  
ENDBRANCH  20  21
ENDBRANCH  18  20
ENDBRANCH  16  17
ENDBRANCH  15  16
ENDBRANCH  13  15
ENDBRANCH  10  11
ENDBRANCH   9  10
ENDBRANCH   5   6
ENDBRANCH   4   5
TORSDOF 9
ENDMDL
MODEL       29
REMARK 921   NORMALIZED FREE ENERGY PREDICTED BY IDOCK:   -6.18 KCAL/MOL
REMARK 922        TOTAL FREE ENERGY PREDICTED BY IDOCK:  -12.64 KCAL/MOL
REMARK 923 INTER-LIGAND FREE ENERGY PREDICTED BY IDOCK:   -8.34 KCAL/MOL
REMARK 924 INTRA-LIGAND FREE ENERGY PREDICTED BY IDOCK:   -4.29 KCAL/MOL
REMARK 927      BINDING AFFINITY PREDICTED BY RF-SCORE:    0.00 PKD
ROOT
HETATM    1  C   UNL     1     -12.090  14.157  64.302  1.00  0.00    -0.471 C  
HETATM    2  C   UNL     1     -11.790  12.662  64.214  1.00  0.00    -0.462 C  
HETATM    3  C   UNL     1     -12.872  11.965  63.382  1.00  0.00    -0.393 C  
HETATM    4  C   UNL     1     -10.373  12.450  63.648  1.00  0.00    -0.434 C  
ENDROOT
BRANCH   4   5
HETATM    5  C   UNL     1     -10.019  10.972  63.548  1.00  0.00    -0.421 C  
BRANCH   5   6
HETATM    6  C   UNL     1     -10.076  10.257  64.894  1.00  0.00    -0.346 C  
HETATM    7  C   UNL     1      -8.908   9.265  65.056  1.00  0.00    -0.238 C  
HETATM    8  C   UNL     1      -7.542   9.962  64.962  1.00  0.00    -0.134 C  
HETATM    9  C   UNL     1      -9.070   8.509  66.386  1.00  0.00    -0.229 C  
BRANCH   9  10
HETATM   10  C   UNL     1      -7.938   7.511  66.605  1.00  0.00    -0.110 C  
BRANCH  10  11
HETATM   11  C   UNL     1      -8.231   6.549  67.744  1.00  0.00    -0.115 C  
HETATM   12  C   UNL     1      -8.780   5.205  67.231  1.00  0.00    -0.103 C  
HETATM   13  C   UNL     1      -9.200   4.297  68.404  1.00  0.00    -0.190 C  
HETATM   14  C   UNL     1      -7.779   4.466  66.333  1.00  0.00    -0.094 C  
BRANCH  13  15
HETATM   15  C   UNL     1     -10.284   4.885  69.316  1.00  0.00    -0.205 C  
BRANCH  15  16
HETATM   16  C   UNL     1      -9.928   4.781  70.800  1.00  0.00    -0.291 C  
BRANCH  16  17
HETATM   17  C   UNL     1     -10.032   6.113  71.499  1.00  0.00    -0.211 C  
HETATM   18  C   UNL     1      -9.222   7.124  71.127  1.00  0.00    -0.157 C  
HETATM   19  C   UNL     1     -11.094   6.244  72.550  1.00  0.00    -0.307 C  
BRANCH  18  20
HETATM   20  C   UNL     1      -9.245   8.536  71.650  1.00  0.00    -0.304 C  
BRANCH  20  21
HETATM   21  C   UNL     1      -9.684   9.517  70.581  1.00  0.00    -0.311 C  
HETATM   22  C   UNL     1     -10.963   9.892  70.362  1.00  0.00    -0.379 C  
HETATM   23  C   UNL     1     -12.167   9.369  71.098  1.00  0.00    -0.402 C  
HETATM   24  C   UNL     1     -11.295  10.926  69.337  1.00  0.00    -0.280 C  
HETATM   25  O   UNL     1     -12.455  11.236  69.106  1.00  0.00    -0.378 OA 
HETATM   26  C   UNL     1     -10.192  11.584  68.621  1.00  0.00    -0.217 A  
HETATM   27  C   UNL     1      -8.881  11.178  68.824  1.00  0.00    -0.128 A  
HETATM   28  C   UNL     1      -8.578  10.084  69.755  1.00  0.00    -0.173 C  
HETATM   29  C   UNL     1      -7.839  11.806  68.129  1.00  0.00    -0.135 A  
HETATM   30  C   UNL     1      -8.116  12.846  67.239  1.00  0.00    -0.164 A  
HETATM   31  O   UNL     1      -7.427   9.670  69.845  1.00  0.00    -0.092 OA 
HETATM   32  C   UNL     1      -9.433  13.257  67.039  1.00  0.00    -0.243 A  
HETATM   33  C   UNL     1     -10.472  12.628  67.728  1.00  0.00    -0.228 A  
ENDBRANCH  20  21
ENDBRANCH  18  20
ENDBRANCH  16  17
ENDBRANCH  15  16
ENDBRANCH  13  15
ENDBRANCH  10  11
ENDBRANCH   9  10
ENDBRANCH   5   6
ENDBRANCH   4   5
TORSDOF 9
ENDMDL
MODEL       30
REMARK 921   NORMALIZED FREE ENERGY PREDICTED BY IDOCK:   -6.18 KCAL/MOL
REMARK 922        TOTAL FREE ENERGY PREDICTED BY IDOCK:  -12.63 KCAL/MOL
REMARK 923 INTER-LIGAND FREE ENERGY PREDICTED BY IDOCK:  -10.82 KCAL/MOL
REMARK 924 INTRA-LIGAND FREE ENERGY PREDICTED BY IDOCK:   -1.81 KCAL/MOL
REMARK 927      BINDING AFFINITY PREDICTED BY RF-SCORE:    0.00 PKD
ROOT
HETATM    1  C   UNL     1      -9.288   2.128  72.066  1.00  0.00    -0.162 C  
HETATM    2  C   UNL     1     -10.406   3.005  72.625  1.00  0.00    -0.211 C  
HETATM    3  C   UNL     1     -10.826   2.491  74.007  1.00  0.00    -0.260 C  
HETATM    4  C   UNL     1      -9.948   4.476  72.649  1.00  0.00    -0.217 C  
ENDROOT
BRANCH   4   5
HETATM    5  C   UNL     1     -11.033   5.397  73.191  1.00  0.00    -0.353 C  
BRANCH   5   6
HETATM    6  C   UNL     1     -10.659   6.873  73.097  1.00  0.00    -0.330 C  
HETATM    7  C   UNL     1     -11.094   7.481  71.749  1.00  0.00    -0.276 C  
HETATM    8  C   UNL     1     -12.611   7.375  71.531  1.00  0.00    -0.401 C  
HETATM    9  C   UNL     1     -10.609   8.939  71.675  1.00  0.00    -0.422 C  
BRANCH   9  10
HETATM   10  C   UNL     1     -11.013   9.597  70.360  1.00  0.00    -0.356 C  
BRANCH  10  11
HETATM   11  C   UNL     1     -10.276   9.005  69.170  1.00  0.00    -0.213 C  
HETATM   12  C   UNL     1      -9.272  10.004  68.564  1.00  0.00    -0.141 C  
HETATM   13  C   UNL     1      -8.638   9.436  67.280  1.00  0.00    -0.129 C  
HETATM   14  C   UNL     1      -8.172  10.404  69.556  1.00  0.00    -0.137 C  
BRANCH  13  15
HETATM   15  C   UNL     1      -9.635   9.098  66.165  1.00  0.00    -0.333 C  
BRANCH  15  16
HETATM   16  C   UNL     1      -9.303   9.792  64.843  1.00  0.00    -0.327 C  
BRANCH  16  17
HETATM   17  C   UNL     1     -10.182  10.993  64.601  1.00  0.00    -0.392 C  
HETATM   18  C   UNL     1     -11.089  11.351  65.531  1.00  0.00    -0.203 C  
HETATM   19  C   UNL     1      -9.944  11.762  63.335  1.00  0.00    -0.446 C  
BRANCH  18  20
HETATM   20  C   UNL     1     -11.984  12.562  65.498  1.00  0.00    -0.500 C  
BRANCH  20  21
HETATM   21  C   UNL     1     -11.654  13.526  66.621  1.00  0.00    -0.396 C  
HETATM   22  C   UNL     1     -11.179  14.777  66.445  1.00  0.00    -0.342 C  
HETATM   23  C   UNL     1     -10.848  15.409  65.119  1.00  0.00    -0.447 C  
HETATM   24  C   UNL     1     -10.958  15.686  67.608  1.00  0.00    -0.315 C  
HETATM   25  O   UNL     1     -10.487  16.805  67.455  1.00  0.00    -0.308 OA 
HETATM   26  C   UNL     1     -11.340  15.216  68.948  1.00  0.00    -0.314 A  
HETATM   27  C   UNL     1     -11.799  13.921  69.134  1.00  0.00    -0.401 A  
HETATM   28  C   UNL     1     -11.909  13.000  67.995  1.00  0.00    -0.347 C  
HETATM   29  C   UNL     1     -12.151  13.481  70.417  1.00  0.00    -0.415 A  
HETATM   30  C   UNL     1     -12.048  14.346  71.508  1.00  0.00    -0.373 A  
HETATM   31  O   UNL     1     -12.218  11.831  68.192  1.00  0.00    -0.507 OA 
HETATM   32  C   UNL     1     -11.591  15.650  71.320  1.00  0.00    -0.485 A  
HETATM   33  C   UNL     1     -11.236  16.087  70.043  1.00  0.00    -0.362 A  
ENDBRANCH  20  21
ENDBRANCH  18  20
ENDBRANCH  16  17
ENDBRANCH  15  16
ENDBRANCH  13  15
ENDBRANCH  10  11
ENDBRANCH   9  10
ENDBRANCH   5   6
ENDBRANCH   4   5
TORSDOF 9
ENDMDL
MODEL       31
REMARK 921   NORMALIZED FREE ENERGY PREDICTED BY IDOCK:   -6.18 KCAL/MOL
REMARK 922        TOTAL FREE ENERGY PREDICTED BY IDOCK:  -12.63 KCAL/MOL
REMARK 923 INTER-LIGAND FREE ENERGY PREDICTED BY IDOCK:   -9.55 KCAL/MOL
REMARK 924 INTRA-LIGAND FREE ENERGY PREDICTED BY IDOCK:   -3.07 KCAL/MOL
REMARK 927      BINDING AFFINITY PREDICTED BY RF-SCORE:    0.00 PKD
ROOT
HETATM    1  C   UNL     1     -13.958  15.323  72.193  1.00  0.00    -0.650 C  
HETATM    2  C   UNL     1     -12.915  15.139  71.093  1.00  0.00    -0.488 C  
HETATM    3  C   UNL     1     -11.681  15.995  71.401  1.00  0.00    -0.536 C  
HETATM    4  C   UNL     1     -12.580  13.643  70.940  1.00  0.00    -0.421 C  
ENDROOT
BRANCH   4   5
HETATM    5  C   UNL     1     -11.548  13.403  69.847  1.00  0.00    -0.270 C  
BRANCH   5   6
HETATM    6  C   UNL     1     -12.140  13.483  68.444  1.00  0.00    -0.293 C  
HETATM    7  C   UNL     1     -11.461  12.486  67.486  1.00  0.00    -0.397 C  
HETATM    8  C   UNL     1     -11.607  11.034  67.966  1.00  0.00    -0.326 C  
HETATM    9  C   UNL     1     -12.033  12.677  66.071  1.00  0.00    -0.478 C  
BRANCH   9  10
HETATM   10  C   UNL     1     -11.398  11.712  65.075  1.00  0.00    -0.237 C  
BRANCH  10  11
HETATM   11  C   UNL     1      -9.883  11.680  65.191  1.00  0.00    -0.281 C  
HETATM   12  C   UNL     1      -9.280  10.464  64.463  1.00  0.00    -0.287 C  
HETATM   13  C   UNL     1      -7.761  10.374  64.708  1.00  0.00    -0.069 C  
HETATM   14  C   UNL     1      -9.563  10.483  62.955  1.00  0.00    -0.369 C  
BRANCH  13  15
HETATM   15  C   UNL     1      -7.354  10.240  66.181  1.00  0.00    -0.122 C  
BRANCH  15  16
HETATM   16  C   UNL     1      -6.616  11.473  66.705  1.00  0.00    -0.119 C  
BRANCH  16  17
HETATM   17  C   UNL     1      -7.458  12.262  67.676  1.00  0.00    -0.134 C  
HETATM   18  C   UNL     1      -7.639  13.583  67.478  1.00  0.00    -0.176 C  
HETATM   19  C   UNL     1      -8.100  11.496  68.794  1.00  0.00    -0.093 C  
BRANCH  18  20
HETATM   20  C   UNL     1      -8.511  14.505  68.288  1.00  0.00    -0.161 C  
BRANCH  20  21
HETATM   21  C   UNL     1      -8.444  15.929  67.772  1.00  0.00    -0.165 C  
HETATM   22  C   UNL     1      -9.312  16.467  66.889  1.00  0.00    -0.248 C  
HETATM   23  C   UNL     1     -10.455  15.741  66.231  1.00  0.00    -0.315 C  
HETATM   24  C   UNL     1      -9.216  17.904  66.497  1.00  0.00    -0.273 C  
HETATM   25  O   UNL     1      -9.974  18.384  65.664  1.00  0.00    -0.477 OA 
HETATM   26  C   UNL     1      -8.200  18.744  67.149  1.00  0.00    -0.275 A  
HETATM   27  C   UNL     1      -7.289  18.185  68.032  1.00  0.00    -0.235 A  
HETATM   28  C   UNL     1      -7.325  16.746  68.327  1.00  0.00    -0.183 C  
HETATM   29  C   UNL     1      -6.319  18.993  68.641  1.00  0.00    -0.266 A  
HETATM   30  C   UNL     1      -6.273  20.361  68.367  1.00  0.00    -0.343 A  
HETATM   31  O   UNL     1      -6.450  16.253  69.029  1.00  0.00    -0.142 OA 
HETATM   32  C   UNL     1      -7.192  20.924  67.482  1.00  0.00    -0.364 A  
HETATM   33  C   UNL     1      -8.155  20.118  66.872  1.00  0.00    -0.360 A  
ENDBRANCH  20  21
ENDBRANCH  18  20
ENDBRANCH  16  17
ENDBRANCH  15  16
ENDBRANCH  13  15
ENDBRANCH  10  11
ENDBRANCH   9  10
ENDBRANCH   5   6
ENDBRANCH   4   5
TORSDOF 9
ENDMDL
MODEL       32
REMARK 921   NORMALIZED FREE ENERGY PREDICTED BY IDOCK:   -6.18 KCAL/MOL
REMARK 922        TOTAL FREE ENERGY PREDICTED BY IDOCK:  -12.63 KCAL/MOL
REMARK 923 INTER-LIGAND FREE ENERGY PREDICTED BY IDOCK:  -10.22 KCAL/MOL
REMARK 924 INTRA-LIGAND FREE ENERGY PREDICTED BY IDOCK:   -2.40 KCAL/MOL
REMARK 927      BINDING AFFINITY PREDICTED BY RF-SCORE:    0.00 PKD
ROOT
HETATM    1  C   UNL     1     -12.405  15.526  74.050  1.00  0.00    -0.791 C  
HETATM    2  C   UNL     1     -12.748  15.161  72.607  1.00  0.00    -0.470 C  
HETATM    3  C   UNL     1     -14.212  15.511  72.318  1.00  0.00    -0.617 C  
HETATM    4  C   UNL     1     -11.766  15.861  71.648  1.00  0.00    -0.563 C  
ENDROOT
BRANCH   4   5
HETATM    5  C   UNL     1     -12.059  15.523  70.193  1.00  0.00    -0.404 C  
BRANCH   5   6
HETATM    6  C   UNL     1     -11.365  14.247  69.729  1.00  0.00    -0.279 C  
HETATM    7  C   UNL     1     -11.913  13.766  68.372  1.00  0.00    -0.395 C  
HETATM    8  C   UNL     1     -11.726  14.819  67.268  1.00  0.00    -0.366 C  
HETATM    9  C   UNL     1     -11.244  12.431  68.003  1.00  0.00    -0.317 C  
BRANCH   9  10
HETATM   10  C   UNL     1     -11.747  11.904  66.663  1.00  0.00    -0.264 C  
BRANCH  10  11
HETATM   11  C   UNL     1     -10.623  11.735  65.653  1.00  0.00    -0.314 C  
HETATM   12  C   UNL     1     -11.144  11.785  64.204  1.00  0.00    -0.442 C  
HETATM   13  C   UNL     1     -10.015  11.474  63.202  1.00  0.00    -0.404 C  
HETATM   14  C   UNL     1     -11.791  13.132  63.859  1.00  0.00    -0.533 C  
BRANCH  13  15
HETATM   15  C   UNL     1      -9.359  10.098  63.378  1.00  0.00    -0.334 C  
BRANCH  15  16
HETATM   16  C   UNL     1      -7.832  10.170  63.399  1.00  0.00    -0.155 C  
BRANCH  16  17
HETATM   17  C   UNL     1      -7.258   9.587  64.666  1.00  0.00    -0.113 C  
HETATM   18  C   UNL     1      -7.860   9.837  65.845  1.00  0.00    -0.108 C  
HETATM   19  C   UNL     1      -6.058   8.700  64.519  1.00  0.00    -0.066 C  
BRANCH  18  20
HETATM   20  C   UNL     1      -7.481   9.272  67.189  1.00  0.00    -0.091 C  
BRANCH  20  21
HETATM   21  C   UNL     1      -8.670   8.634  67.878  1.00  0.00    -0.137 C  
HETATM   22  C   UNL     1      -9.247   7.474  67.498  1.00  0.00    -0.140 C  
HETATM   23  C   UNL     1      -8.847   6.647  66.305  1.00  0.00    -0.156 C  
HETATM   24  C   UNL     1     -10.367   6.878  68.285  1.00  0.00    -0.193 C  
HETATM   25  O   UNL     1     -10.920   5.850  67.919  1.00  0.00    -0.276 OA 
HETATM   26  C   UNL     1     -10.781   7.543  69.530  1.00  0.00    -0.222 A  
HETATM   27  C   UNL     1     -10.211   8.750  69.905  1.00  0.00    -0.206 A  
HETATM   28  C   UNL     1      -9.185   9.381  69.063  1.00  0.00    -0.145 C  
HETATM   29  C   UNL     1     -10.619   9.379  71.088  1.00  0.00    -0.403 A  
HETATM   30  C   UNL     1     -11.595   8.791  71.895  1.00  0.00    -0.432 A  
HETATM   31  O   UNL     1      -8.767  10.496  69.356  1.00  0.00    -0.152 OA 
HETATM   32  C   UNL     1     -12.165   7.575  71.520  1.00  0.00    -0.359 A  
HETATM   33  C   UNL     1     -11.761   6.950  70.339  1.00  0.00    -0.377 A  
ENDBRANCH  20  21
ENDBRANCH  18  20
ENDBRANCH  16  17
ENDBRANCH  15  16
ENDBRANCH  13  15
ENDBRANCH  10  11
ENDBRANCH   9  10
ENDBRANCH   5   6
ENDBRANCH   4   5
TORSDOF 9
ENDMDL
MODEL       33
REMARK 921   NORMALIZED FREE ENERGY PREDICTED BY IDOCK:   -6.17 KCAL/MOL
REMARK 922        TOTAL FREE ENERGY PREDICTED BY IDOCK:  -12.61 KCAL/MOL
REMARK 923 INTER-LIGAND FREE ENERGY PREDICTED BY IDOCK:   -9.22 KCAL/MOL
REMARK 924 INTRA-LIGAND FREE ENERGY PREDICTED BY IDOCK:   -3.39 KCAL/MOL
REMARK 927      BINDING AFFINITY PREDICTED BY RF-SCORE:    0.00 PKD
ROOT
HETATM    1  C   UNL     1     -11.161  14.450  64.751  1.00  0.00    -0.402 C  
HETATM    2  C   UNL     1     -11.439  12.949  64.774  1.00  0.00    -0.360 C  
HETATM    3  C   UNL     1     -12.284  12.559  63.557  1.00  0.00    -0.652 C  
HETATM    4  C   UNL     1     -10.107  12.176  64.849  1.00  0.00    -0.280 C  
ENDROOT
BRANCH   4   5
HETATM    5  C   UNL     1     -10.329  10.670  64.884  1.00  0.00    -0.347 C  
BRANCH   5   6
HETATM    6  C   UNL     1      -9.154   9.885  64.309  1.00  0.00    -0.297 C  
HETATM    7  C   UNL     1      -8.424   9.080  65.402  1.00  0.00    -0.175 C  
HETATM    8  C   UNL     1      -9.354   8.074  66.096  1.00  0.00    -0.212 C  
HETATM    9  C   UNL     1      -7.198   8.387  64.782  1.00  0.00    -0.082 C  
BRANCH   9  10
HETATM   10  C   UNL     1      -6.433   7.570  65.818  1.00  0.00    -0.045 C  
BRANCH  10  11
HETATM   11  C   UNL     1      -5.540   8.438  66.690  1.00  0.00    -0.032 C  
HETATM   12  C   UNL     1      -5.962   8.385  68.170  1.00  0.00    -0.046 C  
HETATM   13  C   UNL     1      -5.134   9.375  69.014  1.00  0.00    -0.037 C  
HETATM   14  C   UNL     1      -5.848   6.974  68.763  1.00  0.00    -0.019 C  
BRANCH  13  15
HETATM   15  C   UNL     1      -5.253  10.843  68.583  1.00  0.00    -0.040 C  
BRANCH  15  16
HETATM   16  C   UNL     1      -6.318  11.606  69.372  1.00  0.00    -0.106 C  
BRANCH  16  17
HETATM   17  C   UNL     1      -7.621  11.696  68.617  1.00  0.00    -0.133 C  
HETATM   18  C   UNL     1      -8.635  10.869  68.939  1.00  0.00    -0.143 C  
HETATM   19  C   UNL     1      -7.723  12.765  67.570  1.00  0.00    -0.168 C  
BRANCH  18  20
HETATM   20  C   UNL     1     -10.024  10.876  68.356  1.00  0.00    -0.188 C  
BRANCH  20  21
HETATM   21  C   UNL     1     -11.045  11.368  69.362  1.00  0.00    -0.301 C  
HETATM   22  C   UNL     1     -11.598  10.606  70.330  1.00  0.00    -0.441 C  
HETATM   23  C   UNL     1     -11.338   9.139  70.546  1.00  0.00    -0.300 C  
HETATM   24  C   UNL     1     -12.538  11.196  71.329  1.00  0.00    -0.398 C  
HETATM   25  O   UNL     1     -13.074  10.500  72.180  1.00  0.00    -0.459 OA 
HETATM   26  C   UNL     1     -12.793  12.643  71.283  1.00  0.00    -0.344 A  
HETATM   27  C   UNL     1     -12.250  13.421  70.271  1.00  0.00    -0.405 A  
HETATM   28  C   UNL     1     -11.414  12.808  69.229  1.00  0.00    -0.289 C  
HETATM   29  C   UNL     1     -12.508  14.797  70.231  1.00  0.00    -0.393 A  
HETATM   30  C   UNL     1     -13.303  15.391  71.213  1.00  0.00    -0.598 A  
HETATM   31  O   UNL     1     -11.029  13.490  68.287  1.00  0.00    -0.241 OA 
HETATM   32  C   UNL     1     -13.845  14.610  72.234  1.00  0.00    -0.583 A  
HETATM   33  C   UNL     1     -13.592  13.238  72.270  1.00  0.00    -0.703 A  
ENDBRANCH  20  21
ENDBRANCH  18  20
ENDBRANCH  16  17
ENDBRANCH  15  16
ENDBRANCH  13  15
ENDBRANCH  10  11
ENDBRANCH   9  10
ENDBRANCH   5   6
ENDBRANCH   4   5
TORSDOF 9
ENDMDL
MODEL       34
REMARK 921   NORMALIZED FREE ENERGY PREDICTED BY IDOCK:   -6.15 KCAL/MOL
REMARK 922        TOTAL FREE ENERGY PREDICTED BY IDOCK:  -12.59 KCAL/MOL
REMARK 923 INTER-LIGAND FREE ENERGY PREDICTED BY IDOCK:   -8.01 KCAL/MOL
REMARK 924 INTRA-LIGAND FREE ENERGY PREDICTED BY IDOCK:   -4.57 KCAL/MOL
REMARK 927      BINDING AFFINITY PREDICTED BY RF-SCORE:    0.00 PKD
ROOT
HETATM    1  C   UNL     1      -8.504  16.085  66.260  1.00  0.00    -0.337 C  
HETATM    2  C   UNL     1      -9.382  15.568  67.397  1.00  0.00    -0.211 C  
HETATM    3  C   UNL     1      -9.139  16.403  68.659  1.00  0.00    -0.233 C  
HETATM    4  C   UNL     1     -10.858  15.570  66.955  1.00  0.00    -0.301 C  
ENDROOT
BRANCH   4   5
HETATM    5  C   UNL     1     -11.778  15.055  68.053  1.00  0.00    -0.320 C  
BRANCH   5   6
HETATM    6  C   UNL     1     -11.995  13.546  67.985  1.00  0.00    -0.372 C  
HETATM    7  C   UNL     1     -11.452  12.840  69.242  1.00  0.00    -0.349 C  
HETATM    8  C   UNL     1     -12.129  13.345  70.525  1.00  0.00    -0.399 C  
HETATM    9  C   UNL     1     -11.613  11.319  69.074  1.00  0.00    -0.386 C  
BRANCH   9  10
HETATM   10  C   UNL     1     -11.094  10.563  70.293  1.00  0.00    -0.359 C  
BRANCH  10  11
HETATM   11  C   UNL     1     -11.560   9.116  70.314  1.00  0.00    -0.116 C  
HETATM   12  C   UNL     1     -12.127   8.718  71.689  1.00  0.00    -0.401 C  
HETATM   13  C   UNL     1     -12.465   7.215  71.732  1.00  0.00    -0.385 C  
HETATM   14  C   UNL     1     -13.364   9.541  72.074  1.00  0.00    -0.535 C  
BRANCH  13  15
HETATM   15  C   UNL     1     -11.277   6.281  71.468  1.00  0.00    -0.344 C  
BRANCH  15  16
HETATM   16  C   UNL     1     -10.152   6.454  72.489  1.00  0.00    -0.191 C  
BRANCH  16  17
HETATM   17  C   UNL     1      -8.889   6.977  71.852  1.00  0.00    -0.128 C  
HETATM   18  C   UNL     1      -8.713   6.850  70.522  1.00  0.00    -0.150 C  
HETATM   19  C   UNL     1      -7.913   7.671  72.755  1.00  0.00    -0.140 C  
BRANCH  18  20
HETATM   20  C   UNL     1      -7.564   7.386  69.709  1.00  0.00    -0.095 C  
BRANCH  20  21
HETATM   21  C   UNL     1      -7.926   8.693  69.032  1.00  0.00    -0.115 C  
HETATM   22  C   UNL     1      -7.440   9.902  69.386  1.00  0.00    -0.108 C  
HETATM   23  C   UNL     1      -6.505  10.167  70.536  1.00  0.00    -0.116 C  
HETATM   24  C   UNL     1      -7.791  11.128  68.610  1.00  0.00    -0.138 C  
HETATM   25  O   UNL     1      -7.387  12.230  68.954  1.00  0.00    -0.104 OA 
HETATM   26  C   UNL     1      -8.618  10.982  67.404  1.00  0.00    -0.132 A  
HETATM   27  C   UNL     1      -9.143   9.746  67.056  1.00  0.00    -0.157 A  
HETATM   28  C   UNL     1      -8.879   8.566  67.891  1.00  0.00    -0.137 C  
HETATM   29  C   UNL     1      -9.938   9.620  65.910  1.00  0.00    -0.351 A  
HETATM   30  C   UNL     1     -10.197  10.735  65.110  1.00  0.00    -0.365 A  
HETATM   31  O   UNL     1      -9.434   7.505  67.626  1.00  0.00    -0.136 OA 
HETATM   32  C   UNL     1      -9.666  11.977  65.457  1.00  0.00    -0.221 A  
HETATM   33  C   UNL     1      -8.878  12.103  66.602  1.00  0.00    -0.182 A  
ENDBRANCH  20  21
ENDBRANCH  18  20
ENDBRANCH  16  17
ENDBRANCH  15  16
ENDBRANCH  13  15
ENDBRANCH  10  11
ENDBRANCH   9  10
ENDBRANCH   5   6
ENDBRANCH   4   5
TORSDOF 9
ENDMDL
MODEL       35
REMARK 921   NORMALIZED FREE ENERGY PREDICTED BY IDOCK:   -6.15 KCAL/MOL
REMARK 922        TOTAL FREE ENERGY PREDICTED BY IDOCK:  -12.58 KCAL/MOL
REMARK 923 INTER-LIGAND FREE ENERGY PREDICTED BY IDOCK:  -10.30 KCAL/MOL
REMARK 924 INTRA-LIGAND FREE ENERGY PREDICTED BY IDOCK:   -2.28 KCAL/MOL
REMARK 927      BINDING AFFINITY PREDICTED BY RF-SCORE:    0.00 PKD
ROOT
HETATM    1  C   UNL     1     -14.378   8.053  71.750  1.00  0.00    -0.583 C  
HETATM    2  C   UNL     1     -13.152   8.917  71.463  1.00  0.00    -0.376 C  
HETATM    3  C   UNL     1     -13.339  10.305  72.086  1.00  0.00    -0.404 C  
HETATM    4  C   UNL     1     -11.884   8.202  71.966  1.00  0.00    -0.392 C  
ENDROOT
BRANCH   4   5
HETATM    5  C   UNL     1     -10.628   9.020  71.695  1.00  0.00    -0.434 C  
BRANCH   5   6
HETATM    6  C   UNL     1     -10.670   9.741  70.351  1.00  0.00    -0.368 C  
HETATM    7  C   UNL     1      -9.358   9.548  69.565  1.00  0.00    -0.199 C  
HETATM    8  C   UNL     1      -9.068   8.065  69.283  1.00  0.00    -0.148 C  
HETATM    9  C   UNL     1      -9.423  10.372  68.268  1.00  0.00    -0.153 C  
BRANCH   9  10
HETATM   10  C   UNL     1      -8.149  10.218  67.443  1.00  0.00    -0.110 C  
BRANCH  10  11
HETATM   11  C   UNL     1      -8.431   9.699  66.042  1.00  0.00    -0.131 C  
HETATM   12  C   UNL     1      -7.553  10.398  64.987  1.00  0.00    -0.086 C  
HETATM   13  C   UNL     1      -7.949   9.959  63.563  1.00  0.00    -0.155 C  
HETATM   14  C   UNL     1      -6.056  10.150  65.211  1.00  0.00    -0.117 C  
BRANCH  13  15
HETATM   15  C   UNL     1      -9.405  10.256  63.180  1.00  0.00    -0.343 C  
BRANCH  15  16
HETATM   16  C   UNL     1      -9.741  11.746  63.244  1.00  0.00    -0.350 C  
BRANCH  16  17
HETATM   17  C   UNL     1     -11.048  11.999  63.952  1.00  0.00    -0.474 C  
HETATM   18  C   UNL     1     -11.050  12.245  65.277  1.00  0.00    -0.359 C  
HETATM   19  C   UNL     1     -12.286  12.014  63.104  1.00  0.00    -0.365 C  
BRANCH  18  20
HETATM   20  C   UNL     1     -12.242  12.602  66.126  1.00  0.00    -0.279 C  
BRANCH  20  21
HETATM   21  C   UNL     1     -11.869  13.575  67.226  1.00  0.00    -0.427 C  
HETATM   22  C   UNL     1     -11.359  14.808  67.020  1.00  0.00    -0.358 C  
HETATM   23  C   UNL     1     -11.028  15.406  65.679  1.00  0.00    -0.330 C  
HETATM   24  C   UNL     1     -11.095  15.731  68.164  1.00  0.00    -0.341 C  
HETATM   25  O   UNL     1     -10.592  16.832  67.984  1.00  0.00    -0.321 OA 
HETATM   26  C   UNL     1     -11.471  15.297  69.517  1.00  0.00    -0.318 A  
HETATM   27  C   UNL     1     -11.966  14.020  69.734  1.00  0.00    -0.393 A  
HETATM   28  C   UNL     1     -12.119  13.082  68.613  1.00  0.00    -0.154 C  
HETATM   29  C   UNL     1     -12.313  13.614  71.029  1.00  0.00    -0.436 A  
HETATM   30  C   UNL     1     -12.169  14.495  72.103  1.00  0.00    -0.303 A  
HETATM   31  O   UNL     1     -12.460  11.926  68.836  1.00  0.00    -0.128 OA 
HETATM   32  C   UNL     1     -11.676  15.781  71.884  1.00  0.00    -0.572 A  
HETATM   33  C   UNL     1     -11.326  16.183  70.594  1.00  0.00    -0.394 A  
ENDBRANCH  20  21
ENDBRANCH  18  20
ENDBRANCH  16  17
ENDBRANCH  15  16
ENDBRANCH  13  15
ENDBRANCH  10  11
ENDBRANCH   9  10
ENDBRANCH   5   6
ENDBRANCH   4   5
TORSDOF 9
ENDMDL
MODEL       36
REMARK 921   NORMALIZED FREE ENERGY PREDICTED BY IDOCK:   -6.14 KCAL/MOL
REMARK 922        TOTAL FREE ENERGY PREDICTED BY IDOCK:  -12.58 KCAL/MOL
REMARK 923 INTER-LIGAND FREE ENERGY PREDICTED BY IDOCK:   -8.18 KCAL/MOL
REMARK 924 INTRA-LIGAND FREE ENERGY PREDICTED BY IDOCK:   -4.40 KCAL/MOL
REMARK 927      BINDING AFFINITY PREDICTED BY RF-SCORE:    0.00 PKD
ROOT
HETATM    1  C   UNL     1     -12.142  12.449  63.351  1.00  0.00    -0.620 C  
HETATM    2  C   UNL     1     -11.629  13.314  64.500  1.00  0.00    -0.407 C  
HETATM    3  C   UNL     1     -11.929  14.789  64.213  1.00  0.00    -0.387 C  
HETATM    4  C   UNL     1     -12.240  12.828  65.828  1.00  0.00    -0.469 C  
ENDROOT
BRANCH   4   5
HETATM    5  C   UNL     1     -11.753  13.654  67.011  1.00  0.00    -0.419 C  
BRANCH   5   6
HETATM    6  C   UNL     1     -11.934  12.941  68.347  1.00  0.00    -0.289 C  
HETATM    7  C   UNL     1     -10.925  11.788  68.514  1.00  0.00    -0.270 C  
HETATM    8  C   UNL     1      -9.472  12.280  68.448  1.00  0.00    -0.175 C  
HETATM    9  C   UNL     1     -11.218  11.050  69.832  1.00  0.00    -0.327 C  
BRANCH   9  10
HETATM   10  C   UNL     1     -10.246   9.896  70.054  1.00  0.00    -0.319 C  
BRANCH  10  11
HETATM   11  C   UNL     1     -10.518   9.159  71.356  1.00  0.00    -0.414 C  
HETATM   12  C   UNL     1      -9.398   8.155  71.688  1.00  0.00    -0.228 C  
HETATM   13  C   UNL     1      -9.757   7.322  72.935  1.00  0.00    -0.212 C  
HETATM   14  C   UNL     1      -8.039   8.837  71.892  1.00  0.00    -0.090 C  
BRANCH  13  15
HETATM   15  C   UNL     1     -11.048   6.503  72.811  1.00  0.00    -0.279 C  
BRANCH  15  16
HETATM   16  C   UNL     1     -10.786   5.000  72.702  1.00  0.00    -0.286 C  
BRANCH  16  17
HETATM   17  C   UNL     1     -10.015   4.651  71.454  1.00  0.00    -0.267 C  
HETATM   18  C   UNL     1     -10.396   5.171  70.270  1.00  0.00    -0.331 C  
HETATM   19  C   UNL     1      -8.812   3.772  71.626  1.00  0.00    -0.140 C  
BRANCH  18  20
HETATM   20  C   UNL     1      -9.698   5.003  68.946  1.00  0.00    -0.234 C  
BRANCH  20  21
HETATM   21  C   UNL     1      -9.083   6.306  68.474  1.00  0.00    -0.125 C  
HETATM   22  C   UNL     1      -7.845   6.734  68.800  1.00  0.00    -0.111 C  
HETATM   23  C   UNL     1      -6.888   6.025  69.721  1.00  0.00    -0.064 C  
HETATM   24  C   UNL     1      -7.292   7.995  68.223  1.00  0.00    -0.095 C  
HETATM   25  O   UNL     1      -6.187   8.408  68.550  1.00  0.00    -0.050 OA 
HETATM   26  C   UNL     1      -8.095   8.725  67.232  1.00  0.00    -0.101 A  
HETATM   27  C   UNL     1      -9.379   8.303  66.919  1.00  0.00    -0.222 A  
HETATM   28  C   UNL     1      -9.953   7.121  67.576  1.00  0.00    -0.167 C  
HETATM   29  C   UNL     1     -10.139   9.012  65.980  1.00  0.00    -0.154 A  
HETATM   30  C   UNL     1      -9.605  10.139  65.351  1.00  0.00    -0.325 A  
HETATM   31  O   UNL     1     -11.124   6.824  67.365  1.00  0.00    -0.328 OA 
HETATM   32  C   UNL     1      -8.312  10.560  65.662  1.00  0.00    -0.167 A  
HETATM   33  C   UNL     1      -7.557   9.856  66.602  1.00  0.00    -0.103 A  
ENDBRANCH  20  21
ENDBRANCH  18  20
ENDBRANCH  16  17
ENDBRANCH  15  16
ENDBRANCH  13  15
ENDBRANCH  10  11
ENDBRANCH   9  10
ENDBRANCH   5   6
ENDBRANCH   4   5
TORSDOF 9
ENDMDL
MODEL       37
REMARK 921   NORMALIZED FREE ENERGY PREDICTED BY IDOCK:   -6.13 KCAL/MOL
REMARK 922        TOTAL FREE ENERGY PREDICTED BY IDOCK:  -12.56 KCAL/MOL
REMARK 923 INTER-LIGAND FREE ENERGY PREDICTED BY IDOCK:   -9.90 KCAL/MOL
REMARK 924 INTRA-LIGAND FREE ENERGY PREDICTED BY IDOCK:   -2.66 KCAL/MOL
REMARK 927      BINDING AFFINITY PREDICTED BY RF-SCORE:    0.00 PKD
ROOT
HETATM    1  C   UNL     1     -12.564  13.950  65.272  1.00  0.00    -0.508 C  
HETATM    2  C   UNL     1     -11.983  12.612  64.819  1.00  0.00    -0.458 C  
HETATM    3  C   UNL     1     -12.909  11.970  63.780  1.00  0.00    -0.440 C  
HETATM    4  C   UNL     1     -10.550  12.820  64.295  1.00  0.00    -0.424 C  
ENDROOT
BRANCH   4   5
HETATM    5  C   UNL     1      -9.919  11.512  63.837  1.00  0.00    -0.360 C  
BRANCH   5   6
HETATM    6  C   UNL     1      -9.000  10.897  64.888  1.00  0.00    -0.167 C  
HETATM    7  C   UNL     1      -8.993   9.358  64.802  1.00  0.00    -0.241 C  
HETATM    8  C   UNL     1      -8.519   8.860  63.428  1.00  0.00    -0.150 C  
HETATM    9  C   UNL     1      -8.126   8.795  65.941  1.00  0.00    -0.110 C  
BRANCH   9  10
HETATM   10  C   UNL     1      -8.078   7.271  65.906  1.00  0.00    -0.125 C  
BRANCH  10  11
HETATM   11  C   UNL     1      -8.233   6.659  67.289  1.00  0.00    -0.121 C  
HETATM   12  C   UNL     1      -9.675   6.791  67.815  1.00  0.00    -0.140 C  
HETATM   13  C   UNL     1      -9.779   6.291  69.269  1.00  0.00    -0.157 C  
HETATM   14  C   UNL     1     -10.690   6.050  66.935  1.00  0.00    -0.407 C  
BRANCH  13  15
HETATM   15  C   UNL     1      -8.885   7.033  70.271  1.00  0.00    -0.148 C  
BRANCH  15  16
HETATM   16  C   UNL     1      -9.554   8.281  70.849  1.00  0.00    -0.196 C  
BRANCH  16  17
HETATM   17  C   UNL     1      -9.614   9.404  69.845  1.00  0.00    -0.234 C  
HETATM   18  C   UNL     1     -10.798   9.749  69.302  1.00  0.00    -0.240 C  
HETATM   19  C   UNL     1      -8.327  10.118  69.551  1.00  0.00    -0.178 C  
BRANCH  18  20
HETATM   20  C   UNL     1     -11.058  10.892  68.357  1.00  0.00    -0.320 C  
BRANCH  20  21
HETATM   21  C   UNL     1     -11.200  12.206  69.100  1.00  0.00    -0.303 C  
HETATM   22  C   UNL     1     -10.578  13.354  68.756  1.00  0.00    -0.230 C  
HETATM   23  C   UNL     1      -9.606  13.516  67.618  1.00  0.00    -0.222 C  
HETATM   24  C   UNL     1     -10.839  14.621  69.501  1.00  0.00    -0.217 C  
HETATM   25  O   UNL     1     -10.244  15.653  69.220  1.00  0.00    -0.216 OA 
HETATM   26  C   UNL     1     -11.846  14.611  70.572  1.00  0.00    -0.367 A  
HETATM   27  C   UNL     1     -12.463  13.427  70.946  1.00  0.00    -0.439 A  
HETATM   28  C   UNL     1     -12.116  12.165  70.277  1.00  0.00    -0.302 C  
HETATM   29  C   UNL     1     -13.414  13.427  71.974  1.00  0.00    -0.584 A  
HETATM   30  C   UNL     1     -13.750  14.620  72.619  1.00  0.00    -0.545 A  
HETATM   31  O   UNL     1     -12.594  11.114  70.689  1.00  0.00    -0.332 OA 
HETATM   32  C   UNL     1     -13.134  15.812  72.239  1.00  0.00    -0.524 A  
HETATM   33  C   UNL     1     -12.182  15.810  71.218  1.00  0.00    -0.491 A  
ENDBRANCH  20  21
ENDBRANCH  18  20
ENDBRANCH  16  17
ENDBRANCH  15  16
ENDBRANCH  13  15
ENDBRANCH  10  11
ENDBRANCH   9  10
ENDBRANCH   5   6
ENDBRANCH   4   5
TORSDOF 9
ENDMDL
MODEL       38
REMARK 921   NORMALIZED FREE ENERGY PREDICTED BY IDOCK:   -6.09 KCAL/MOL
REMARK 922        TOTAL FREE ENERGY PREDICTED BY IDOCK:  -12.49 KCAL/MOL
REMARK 923 INTER-LIGAND FREE ENERGY PREDICTED BY IDOCK:   -8.79 KCAL/MOL
REMARK 924 INTRA-LIGAND FREE ENERGY PREDICTED BY IDOCK:   -3.70 KCAL/MOL
REMARK 927      BINDING AFFINITY PREDICTED BY RF-SCORE:    0.00 PKD
ROOT
HETATM    1  C   UNL     1     -10.769  19.623  66.022  1.00  0.00    -0.527 C  
HETATM    2  C   UNL     1     -10.053  18.347  66.457  1.00  0.00    -0.406 C  
HETATM    3  C   UNL     1     -10.280  18.109  67.954  1.00  0.00    -0.391 C  
HETATM    4  C   UNL     1     -10.524  17.166  65.586  1.00  0.00    -0.208 C  
ENDROOT
BRANCH   4   5
HETATM    5  C   UNL     1      -9.832  15.866  65.974  1.00  0.00    -0.366 C  
BRANCH   5   6
HETATM    6  C   UNL     1     -10.813  14.729  66.241  1.00  0.00    -0.322 C  
HETATM    7  C   UNL     1     -10.358  13.857  67.427  1.00  0.00    -0.252 C  
HETATM    8  C   UNL     1     -10.230  14.669  68.725  1.00  0.00    -0.242 C  
HETATM    9  C   UNL     1     -11.333  12.677  67.588  1.00  0.00    -0.362 C  
BRANCH   9  10
HETATM   10  C   UNL     1     -10.934  11.776  68.752  1.00  0.00    -0.281 C  
BRANCH  10  11
HETATM   11  C   UNL     1     -12.138  11.123  69.412  1.00  0.00    -0.396 C  
HETATM   12  C   UNL     1     -12.232  11.478  70.908  1.00  0.00    -0.425 C  
HETATM   13  C   UNL     1     -13.375  10.698  71.587  1.00  0.00    -0.407 C  
HETATM   14  C   UNL     1     -12.417  12.983  71.143  1.00  0.00    -0.364 C  
BRANCH  13  15
HETATM   15  C   UNL     1     -13.244   9.171  71.514  1.00  0.00    -0.413 C  
BRANCH  15  16
HETATM   16  C   UNL     1     -12.454   8.588  72.685  1.00  0.00    -0.276 C  
BRANCH  16  17
HETATM   17  C   UNL     1     -11.162   7.956  72.233  1.00  0.00    -0.389 C  
HETATM   18  C   UNL     1     -10.870   7.906  70.919  1.00  0.00    -0.245 C  
HETATM   19  C   UNL     1     -10.239   7.460  73.307  1.00  0.00    -0.386 C  
BRANCH  18  20
HETATM   20  C   UNL     1      -9.597   7.395  70.296  1.00  0.00    -0.165 C  
BRANCH  20  21
HETATM   21  C   UNL     1      -9.013   8.398  69.321  1.00  0.00    -0.150 C  
HETATM   22  C   UNL     1      -9.332   8.470  68.011  1.00  0.00    -0.147 C  
HETATM   23  C   UNL     1     -10.272   7.545  67.286  1.00  0.00    -0.337 C  
HETATM   24  C   UNL     1      -8.766   9.544  67.142  1.00  0.00    -0.132 C  
HETATM   25  O   UNL     1      -9.018   9.586  65.945  1.00  0.00    -0.153 OA 
HETATM   26  C   UNL     1      -7.912  10.569  67.758  1.00  0.00    -0.106 A  
HETATM   27  C   UNL     1      -7.560  10.479  69.097  1.00  0.00    -0.123 A  
HETATM   28  C   UNL     1      -8.035   9.356  69.916  1.00  0.00    -0.130 C  
HETATM   29  C   UNL     1      -6.738  11.457  69.672  1.00  0.00    -0.105 A  
HETATM   30  C   UNL     1      -6.278  12.528  68.903  1.00  0.00    -0.080 A  
HETATM   31  O   UNL     1      -7.632   9.236  71.067  1.00  0.00    -0.204 OA 
HETATM   32  C   UNL     1      -6.636  12.621  67.558  1.00  0.00    -0.156 A  
HETATM   33  C   UNL     1      -7.451  11.644  66.984  1.00  0.00    -0.150 A  
ENDBRANCH  20  21
ENDBRANCH  18  20
ENDBRANCH  16  17
ENDBRANCH  15  16
ENDBRANCH  13  15
ENDBRANCH  10  11
ENDBRANCH   9  10
ENDBRANCH   5   6
ENDBRANCH   4   5
TORSDOF 9
ENDMDL
MODEL       39
REMARK 921   NORMALIZED FREE ENERGY PREDICTED BY IDOCK:   -6.06 KCAL/MOL
REMARK 922        TOTAL FREE ENERGY PREDICTED BY IDOCK:  -12.46 KCAL/MOL
REMARK 923 INTER-LIGAND FREE ENERGY PREDICTED BY IDOCK:   -9.38 KCAL/MOL
REMARK 924 INTRA-LIGAND FREE ENERGY PREDICTED BY IDOCK:   -3.07 KCAL/MOL
REMARK 927      BINDING AFFINITY PREDICTED BY RF-SCORE:    0.00 PKD
ROOT
HETATM    1  C   UNL     1     -12.700  13.396  65.366  1.00  0.00    -0.484 C  
HETATM    2  C   UNL     1     -11.436  12.959  64.628  1.00  0.00    -0.369 C  
HETATM    3  C   UNL     1     -10.305  13.955  64.903  1.00  0.00    -0.430 C  
HETATM    4  C   UNL     1     -11.073  11.517  65.031  1.00  0.00    -0.268 C  
ENDROOT
BRANCH   4   5
HETATM    5  C   UNL     1      -9.822  11.028  64.314  1.00  0.00    -0.355 C  
BRANCH   5   6
HETATM    6  C   UNL     1      -8.775  10.463  65.269  1.00  0.00    -0.192 C  
HETATM    7  C   UNL     1      -8.320   9.054  64.839  1.00  0.00    -0.178 C  
HETATM    8  C   UNL     1      -7.708   9.051  63.430  1.00  0.00    -0.124 C  
HETATM    9  C   UNL     1      -7.339   8.501  65.887  1.00  0.00    -0.077 C  
BRANCH   9  10
HETATM   10  C   UNL     1      -6.850   7.106  65.514  1.00  0.00    -0.052 C  
BRANCH  10  11
HETATM   11  C   UNL     1      -7.694   6.012  66.148  1.00  0.00    -0.102 C  
HETATM   12  C   UNL     1      -8.939   5.688  65.302  1.00  0.00    -0.039 C  
HETATM   13  C   UNL     1      -9.851   4.679  66.027  1.00  0.00    -0.236 C  
HETATM   14  C   UNL     1      -8.580   5.157  63.908  1.00  0.00    -0.085 C  
BRANCH  13  15
HETATM   15  C   UNL     1     -10.368   5.146  67.394  1.00  0.00    -0.209 C  
BRANCH  15  16
HETATM   16  C   UNL     1     -10.997   6.539  67.344  1.00  0.00    -0.458 C  
BRANCH  16  17
HETATM   17  C   UNL     1     -10.228   7.534  68.177  1.00  0.00    -0.228 C  
HETATM   18  C   UNL     1     -10.549   8.841  68.114  1.00  0.00    -0.203 C  
HETATM   19  C   UNL     1      -9.168   6.982  69.084  1.00  0.00    -0.138 C  
BRANCH  18  20
HETATM   20  C   UNL     1      -9.951   9.956  68.933  1.00  0.00    -0.188 C  
BRANCH  20  21
HETATM   21  C   UNL     1     -11.008  10.669  69.753  1.00  0.00    -0.340 C  
HETATM   22  C   UNL     1     -11.706  10.107  70.762  1.00  0.00    -0.446 C  
HETATM   23  C   UNL     1     -11.596   8.674  71.210  1.00  0.00    -0.340 C  
HETATM   24  C   UNL     1     -12.673  10.909  71.568  1.00  0.00    -0.428 C  
HETATM   25  O   UNL     1     -13.339  10.392  72.455  1.00  0.00    -0.304 OA 
HETATM   26  C   UNL     1     -12.794  12.348  71.290  1.00  0.00    -0.337 A  
HETATM   27  C   UNL     1     -12.101  12.921  70.235  1.00  0.00    -0.377 A  
HETATM   28  C   UNL     1     -11.236  12.096  69.379  1.00  0.00    -0.182 C  
HETATM   29  C   UNL     1     -12.231  14.291  69.973  1.00  0.00    -0.417 A  
HETATM   30  C   UNL     1     -13.052  15.084  70.777  1.00  0.00    -0.420 A  
HETATM   31  O   UNL     1     -10.712  12.597  68.391  1.00  0.00    -0.227 OA 
HETATM   32  C   UNL     1     -13.746  14.509  71.841  1.00  0.00    -0.516 A  
HETATM   33  C   UNL     1     -13.619  13.143  72.099  1.00  0.00    -0.637 A  
ENDBRANCH  20  21
ENDBRANCH  18  20
ENDBRANCH  16  17
ENDBRANCH  15  16
ENDBRANCH  13  15
ENDBRANCH  10  11
ENDBRANCH   9  10
ENDBRANCH   5   6
ENDBRANCH   4   5
TORSDOF 9
ENDMDL
MODEL       40
REMARK 921   NORMALIZED FREE ENERGY PREDICTED BY IDOCK:   -6.06 KCAL/MOL
REMARK 922        TOTAL FREE ENERGY PREDICTED BY IDOCK:  -12.45 KCAL/MOL
REMARK 923 INTER-LIGAND FREE ENERGY PREDICTED BY IDOCK:  -10.64 KCAL/MOL
REMARK 924 INTRA-LIGAND FREE ENERGY PREDICTED BY IDOCK:   -1.81 KCAL/MOL
REMARK 927      BINDING AFFINITY PREDICTED BY RF-SCORE:    0.00 PKD
ROOT
HETATM    1  C   UNL     1      -6.610   5.801  65.380  1.00  0.00    -0.043 C  
HETATM    2  C   UNL     1      -7.314   5.096  66.537  1.00  0.00    -0.086 C  
HETATM    3  C   UNL     1      -6.437   5.158  67.793  1.00  0.00    -0.048 C  
HETATM    4  C   UNL     1      -8.708   5.716  66.751  1.00  0.00    -0.115 C  
ENDROOT
BRANCH   4   5
HETATM    5  C   UNL     1      -9.458   5.042  67.891  1.00  0.00    -0.164 C  
BRANCH   5   6
HETATM    6  C   UNL     1     -10.650   5.858  68.382  1.00  0.00    -0.314 C  
HETATM    7  C   UNL     1     -10.533   6.182  69.884  1.00  0.00    -0.294 C  
HETATM    8  C   UNL     1      -9.262   6.983  70.204  1.00  0.00    -0.152 C  
HETATM    9  C   UNL     1     -11.803   6.922  70.339  1.00  0.00    -0.351 C  
BRANCH   9  10
HETATM   10  C   UNL     1     -11.744   7.272  71.823  1.00  0.00    -0.321 C  
BRANCH  10  11
HETATM   11  C   UNL     1     -11.854   8.769  72.065  1.00  0.00    -0.442 C  
HETATM   12  C   UNL     1     -13.216   9.324  71.607  1.00  0.00    -0.456 C  
HETATM   13  C   UNL     1     -13.255  10.859  71.732  1.00  0.00    -0.513 C  
HETATM   14  C   UNL     1     -14.390   8.708  72.378  1.00  0.00    -0.429 C  
BRANCH  13  15
HETATM   15  C   UNL     1     -12.190  11.599  70.913  1.00  0.00    -0.401 C  
BRANCH  15  16
HETATM   16  C   UNL     1     -12.263  11.278  69.420  1.00  0.00    -0.315 C  
BRANCH  16  17
HETATM   17  C   UNL     1     -10.979  11.619  68.707  1.00  0.00    -0.274 C  
HETATM   18  C   UNL     1     -10.929  12.703  67.909  1.00  0.00    -0.262 C  
HETATM   19  C   UNL     1      -9.797  10.738  68.984  1.00  0.00    -0.208 C  
BRANCH  18  20
HETATM   20  C   UNL     1      -9.718  13.241  67.192  1.00  0.00    -0.236 C  
BRANCH  20  21
HETATM   21  C   UNL     1      -9.909  14.689  66.788  1.00  0.00    -0.262 C  
HETATM   22  C   UNL     1     -10.518  15.096  65.654  1.00  0.00    -0.378 C  
HETATM   23  C   UNL     1     -11.061  14.192  64.579  1.00  0.00    -0.340 C  
HETATM   24  C   UNL     1     -10.733  16.546  65.375  1.00  0.00    -0.259 C  
HETATM   25  O   UNL     1     -11.245  16.920  64.328  1.00  0.00    -1.204 OA 
HETATM   26  C   UNL     1     -10.335  17.524  66.399  1.00  0.00    -0.334 A  
HETATM   27  C   UNL     1      -9.683  17.110  67.550  1.00  0.00    -0.256 A  
HETATM   28  C   UNL     1      -9.379  15.688  67.762  1.00  0.00    -0.202 C  
HETATM   29  C   UNL     1      -9.299  18.051  68.514  1.00  0.00    -0.312 A  
HETATM   30  C   UNL     1      -9.580  19.406  68.324  1.00  0.00    -0.454 A  
HETATM   31  O   UNL     1      -8.712  15.352  68.734  1.00  0.00    -0.169 OA 
HETATM   32  C   UNL     1     -10.241  19.822  67.168  1.00  0.00    -0.574 A  
HETATM   33  C   UNL     1     -10.618  18.884  66.205  1.00  0.00    -0.476 A  
ENDBRANCH  20  21
ENDBRANCH  18  20
ENDBRANCH  16  17
ENDBRANCH  15  16
ENDBRANCH  13  15
ENDBRANCH  10  11
ENDBRANCH   9  10
ENDBRANCH   5   6
ENDBRANCH   4   5
TORSDOF 9
ENDMDL
MODEL       41
REMARK 921   NORMALIZED FREE ENERGY PREDICTED BY IDOCK:   -6.06 KCAL/MOL
REMARK 922        TOTAL FREE ENERGY PREDICTED BY IDOCK:  -12.45 KCAL/MOL
REMARK 923 INTER-LIGAND FREE ENERGY PREDICTED BY IDOCK:   -9.35 KCAL/MOL
REMARK 924 INTRA-LIGAND FREE ENERGY PREDICTED BY IDOCK:   -3.10 KCAL/MOL
REMARK 927      BINDING AFFINITY PREDICTED BY RF-SCORE:    0.00 PKD
ROOT
HETATM    1  C   UNL     1      -6.529  16.274  67.128  1.00  0.00    -0.214 C  
HETATM    2  C   UNL     1      -7.953  16.823  67.179  1.00  0.00    -0.210 C  
HETATM    3  C   UNL     1      -7.935  18.335  66.929  1.00  0.00    -0.251 C  
HETATM    4  C   UNL     1      -8.838  16.062  66.173  1.00  0.00    -0.366 C  
ENDROOT
BRANCH   4   5
HETATM    5  C   UNL     1     -10.275  16.567  66.190  1.00  0.00    -0.360 C  
BRANCH   5   6
HETATM    6  C   UNL     1     -11.277  15.489  66.592  1.00  0.00    -0.118 C  
HETATM    7  C   UNL     1     -11.056  15.026  68.045  1.00  0.00    -0.304 C  
HETATM    8  C   UNL     1     -11.196  16.182  69.047  1.00  0.00    -0.347 C  
HETATM    9  C   UNL     1     -12.030  13.878  68.361  1.00  0.00    -0.391 C  
BRANCH   9  10
HETATM   10  C   UNL     1     -11.859  13.377  69.792  1.00  0.00    -0.393 C  
BRANCH  10  11
HETATM   11  C   UNL     1     -12.513  12.022  70.009  1.00  0.00    -0.067 C  
HETATM   12  C   UNL     1     -12.722  11.721  71.505  1.00  0.00    -0.400 C  
HETATM   13  C   UNL     1     -13.256  10.290  71.709  1.00  0.00    -0.534 C  
HETATM   14  C   UNL     1     -13.661  12.729  72.180  1.00  0.00    -0.547 C  
BRANCH  13  15
HETATM   15  C   UNL     1     -12.346   9.180  71.169  1.00  0.00    -0.330 C  
BRANCH  15  16
HETATM   16  C   UNL     1     -11.219   8.816  72.136  1.00  0.00    -0.408 C  
BRANCH  16  17
HETATM   17  C   UNL     1      -9.862   8.931  71.489  1.00  0.00    -0.384 C  
HETATM   18  C   UNL     1      -9.725   9.645  70.354  1.00  0.00    -0.304 C  
HETATM   19  C   UNL     1      -8.716   8.273  72.198  1.00  0.00    -0.259 C  
BRANCH  18  20
HETATM   20  C   UNL     1      -8.441   9.938  69.622  1.00  0.00    -0.198 C  
BRANCH  20  21
HETATM   21  C   UNL     1      -8.645   9.929  68.120  1.00  0.00    -0.118 C  
HETATM   22  C   UNL     1      -8.500   8.843  67.331  1.00  0.00    -0.115 C  
HETATM   23  C   UNL     1      -8.065   7.478  67.793  1.00  0.00    -0.119 C  
HETATM   24  C   UNL     1      -8.799   8.910  65.870  1.00  0.00    -0.179 C  
HETATM   25  O   UNL     1      -8.626   7.939  65.145  1.00  0.00    -0.127 OA 
HETATM   26  C   UNL     1      -9.328  10.165  65.318  1.00  0.00    -0.278 A  
HETATM   27  C   UNL     1      -9.449  11.290  66.121  1.00  0.00    -0.232 A  
HETATM   28  C   UNL     1      -9.047  11.241  67.533  1.00  0.00    -0.151 C  
HETATM   29  C   UNL     1      -9.945  12.484  65.582  1.00  0.00    -0.259 A  
HETATM   30  C   UNL     1     -10.328  12.543  64.241  1.00  0.00    -0.396 A  
HETATM   31  O   UNL     1      -9.064  12.270  68.200  1.00  0.00    -0.187 OA 
HETATM   32  C   UNL     1     -10.211  11.411  63.435  1.00  0.00    -0.457 A  
HETATM   33  C   UNL     1      -9.711  10.223  63.970  1.00  0.00    -0.343 A  
ENDBRANCH  20  21
ENDBRANCH  18  20
ENDBRANCH  16  17
ENDBRANCH  15  16
ENDBRANCH  13  15
ENDBRANCH  10  11
ENDBRANCH   9  10
ENDBRANCH   5   6
ENDBRANCH   4   5
TORSDOF 9
ENDMDL
MODEL       42
REMARK 921   NORMALIZED FREE ENERGY PREDICTED BY IDOCK:   -6.06 KCAL/MOL
REMARK 922        TOTAL FREE ENERGY PREDICTED BY IDOCK:  -12.44 KCAL/MOL
REMARK 923 INTER-LIGAND FREE ENERGY PREDICTED BY IDOCK:   -9.54 KCAL/MOL
REMARK 924 INTRA-LIGAND FREE ENERGY PREDICTED BY IDOCK:   -2.91 KCAL/MOL
REMARK 927      BINDING AFFINITY PREDICTED BY RF-SCORE:    0.00 PKD
ROOT
HETATM    1  C   UNL     1     -13.260   7.101  71.730  1.00  0.00    -0.355 C  
HETATM    2  C   UNL     1     -12.082   7.690  70.957  1.00  0.00    -0.282 C  
HETATM    3  C   UNL     1     -11.217   8.538  71.895  1.00  0.00    -0.397 C  
HETATM    4  C   UNL     1     -11.291   6.557  70.276  1.00  0.00    -0.456 C  
ENDROOT
BRANCH   4   5
HETATM    5  C   UNL     1     -10.107   7.092  69.481  1.00  0.00    -0.182 C  
BRANCH   5   6
HETATM    6  C   UNL     1     -10.528   7.811  68.203  1.00  0.00    -0.230 C  
HETATM    7  C   UNL     1      -9.314   8.131  67.309  1.00  0.00    -0.174 C  
HETATM    8  C   UNL     1      -8.552   6.863  66.895  1.00  0.00    -0.116 C  
HETATM    9  C   UNL     1      -9.788   8.935  66.086  1.00  0.00    -0.326 C  
BRANCH   9  10
HETATM   10  C   UNL     1      -8.627   9.280  65.159  1.00  0.00    -0.194 C  
BRANCH  10  11
HETATM   11  C   UNL     1      -7.918  10.558  65.578  1.00  0.00    -0.145 C  
HETATM   12  C   UNL     1      -6.553  10.266  66.230  1.00  0.00    -0.100 C  
HETATM   13  C   UNL     1      -5.914  11.561  66.771  1.00  0.00    -0.139 C  
HETATM   14  C   UNL     1      -5.582   9.567  65.271  1.00  0.00    -0.054 C  
BRANCH  13  15
HETATM   15  C   UNL     1      -6.748  12.298  67.826  1.00  0.00    -0.107 C  
BRANCH  15  16
HETATM   16  C   UNL     1      -6.973  13.770  67.479  1.00  0.00    -0.161 C  
BRANCH  16  17
HETATM   17  C   UNL     1      -8.426  14.069  67.208  1.00  0.00    -0.220 C  
HETATM   18  C   UNL     1      -9.371  13.195  67.610  1.00  0.00    -0.205 C  
HETATM   19  C   UNL     1      -8.735  15.377  66.543  1.00  0.00    -0.335 C  
BRANCH  18  20
HETATM   20  C   UNL     1     -10.863  13.369  67.502  1.00  0.00    -0.276 C  
BRANCH  20  21
HETATM   21  C   UNL     1     -11.518  13.398  68.869  1.00  0.00    -0.347 C  
HETATM   22  C   UNL     1     -11.993  12.313  69.517  1.00  0.00    -0.333 C  
HETATM   23  C   UNL     1     -12.003  10.907  68.979  1.00  0.00    -0.322 C  
HETATM   24  C   UNL     1     -12.552  12.426  70.896  1.00  0.00    -0.246 C  
HETATM   25  O   UNL     1     -13.023  11.452  71.469  1.00  0.00    -0.432 OA 
HETATM   26  C   UNL     1     -12.505  13.733  71.568  1.00  0.00    -0.364 A  
HETATM   27  C   UNL     1     -12.045  14.854  70.894  1.00  0.00    -0.377 A  
HETATM   28  C   UNL     1     -11.600  14.750  69.497  1.00  0.00    -0.304 C  
HETATM   29  C   UNL     1     -12.013  16.096  71.540  1.00  0.00    -0.490 A  
HETATM   30  C   UNL     1     -12.436  16.208  72.866  1.00  0.00    -0.570 A  
HETATM   31  O   UNL     1     -11.294  15.767  68.885  1.00  0.00    -0.309 OA 
HETATM   32  C   UNL     1     -12.894  15.080  73.546  1.00  0.00    -0.636 A  
HETATM   33  C   UNL     1     -12.930  13.843  72.900  1.00  0.00    -0.349 A  
ENDBRANCH  20  21
ENDBRANCH  18  20
ENDBRANCH  16  17
ENDBRANCH  15  16
ENDBRANCH  13  15
ENDBRANCH  10  11
ENDBRANCH   9  10
ENDBRANCH   5   6
ENDBRANCH   4   5
TORSDOF 9
ENDMDL
MODEL       43
REMARK 921   NORMALIZED FREE ENERGY PREDICTED BY IDOCK:   -6.05 KCAL/MOL
REMARK 922        TOTAL FREE ENERGY PREDICTED BY IDOCK:  -12.44 KCAL/MOL
REMARK 923 INTER-LIGAND FREE ENERGY PREDICTED BY IDOCK:   -8.77 KCAL/MOL
REMARK 924 INTRA-LIGAND FREE ENERGY PREDICTED BY IDOCK:   -3.67 KCAL/MOL
REMARK 927      BINDING AFFINITY PREDICTED BY RF-SCORE:    0.00 PKD
ROOT
HETATM    1  C   UNL     1      -9.593   5.240  71.243  1.00  0.00    -0.212 C  
HETATM    2  C   UNL     1      -9.493   5.190  69.721  1.00  0.00    -0.210 C  
HETATM    3  C   UNL     1      -9.350   3.736  69.258  1.00  0.00    -0.244 C  
HETATM    4  C   UNL     1     -10.712   5.897  69.098  1.00  0.00    -0.394 C  
ENDROOT
BRANCH   4   5
HETATM    5  C   UNL     1     -10.657   5.884  67.576  1.00  0.00    -0.347 C  
BRANCH   5   6
HETATM    6  C   UNL     1     -10.758   7.279  66.967  1.00  0.00    -0.406 C  
HETATM    7  C   UNL     1      -9.366   7.866  66.665  1.00  0.00    -0.244 C  
HETATM    8  C   UNL     1      -8.571   6.992  65.683  1.00  0.00    -0.121 C  
HETATM    9  C   UNL     1      -9.529   9.304  66.143  1.00  0.00    -0.298 C  
BRANCH   9  10
HETATM   10  C   UNL     1      -8.180   9.940  65.823  1.00  0.00    -0.125 C  
BRANCH  10  11
HETATM   11  C   UNL     1      -7.519  10.537  67.055  1.00  0.00    -0.100 C  
HETATM   12  C   UNL     1      -6.473   9.583  67.661  1.00  0.00    -0.062 C  
HETATM   13  C   UNL     1      -5.916  10.146  68.984  1.00  0.00    -0.037 C  
HETATM   14  C   UNL     1      -5.319   9.287  66.694  1.00  0.00    -0.041 C  
BRANCH  13  15
HETATM   15  C   UNL     1      -6.967  10.383  70.075  1.00  0.00    -0.159 C  
BRANCH  15  16
HETATM   16  C   UNL     1      -7.487   9.082  70.688  1.00  0.00    -0.113 C  
BRANCH  16  17
HETATM   17  C   UNL     1      -8.988   9.086  70.826  1.00  0.00    -0.286 C  
HETATM   18  C   UNL     1      -9.750   9.492  69.791  1.00  0.00    -0.234 C  
HETATM   19  C   UNL     1      -9.551   8.570  72.117  1.00  0.00    -0.382 C  
BRANCH  18  20
HETATM   20  C   UNL     1     -11.255   9.480  69.719  1.00  0.00    -0.173 C  
BRANCH  20  21
HETATM   21  C   UNL     1     -11.842  10.806  70.161  1.00  0.00    -0.427 C  
HETATM   22  C   UNL     1     -12.564  10.989  71.286  1.00  0.00    -0.517 C  
HETATM   23  C   UNL     1     -12.953   9.911  72.263  1.00  0.00    -0.387 C  
HETATM   24  C   UNL     1     -13.037  12.348  71.683  1.00  0.00    -0.307 C  
HETATM   25  O   UNL     1     -13.728  12.511  72.680  1.00  0.00    -0.322 OA 
HETATM   26  C   UNL     1     -12.635  13.499  70.861  1.00  0.00    -0.414 A  
HETATM   27  C   UNL     1     -11.919  13.309  69.689  1.00  0.00    -0.376 A  
HETATM   28  C   UNL     1     -11.554  11.954  69.252  1.00  0.00    -0.315 C  
HETATM   29  C   UNL     1     -11.549  14.412  68.908  1.00  0.00    -0.340 A  
HETATM   30  C   UNL     1     -11.892  15.704  69.311  1.00  0.00    -0.378 A  
HETATM   31  O   UNL     1     -11.012  11.798  68.164  1.00  0.00    -0.203 OA 
HETATM   32  C   UNL     1     -12.608  15.895  70.493  1.00  0.00    -0.183 A  
HETATM   33  C   UNL     1     -12.980  14.796  71.268  1.00  0.00    -0.413 A  
ENDBRANCH  20  21
ENDBRANCH  18  20
ENDBRANCH  16  17
ENDBRANCH  15  16
ENDBRANCH  13  15
ENDBRANCH  10  11
ENDBRANCH   9  10
ENDBRANCH   5   6
ENDBRANCH   4   5
TORSDOF 9
ENDMDL
MODEL       44
REMARK 921   NORMALIZED FREE ENERGY PREDICTED BY IDOCK:   -6.03 KCAL/MOL
REMARK 922        TOTAL FREE ENERGY PREDICTED BY IDOCK:  -12.40 KCAL/MOL
REMARK 923 INTER-LIGAND FREE ENERGY PREDICTED BY IDOCK:   -8.50 KCAL/MOL
REMARK 924 INTRA-LIGAND FREE ENERGY PREDICTED BY IDOCK:   -3.90 KCAL/MOL
REMARK 927      BINDING AFFINITY PREDICTED BY RF-SCORE:    0.00 PKD
ROOT
HETATM    1  C   UNL     1     -11.755  14.005  64.825  1.00  0.00    -0.403 C  
HETATM    2  C   UNL     1     -11.667  12.481  64.766  1.00  0.00    -0.411 C  
HETATM    3  C   UNL     1     -12.389  11.968  63.516  1.00  0.00    -0.661 C  
HETATM    4  C   UNL     1     -10.190  12.045  64.824  1.00  0.00    -0.311 C  
ENDROOT
BRANCH   4   5
HETATM    5  C   UNL     1     -10.046  10.530  64.778  1.00  0.00    -0.406 C  
BRANCH   5   6
HETATM    6  C   UNL     1     -10.591   9.844  66.027  1.00  0.00    -0.005 C  
HETATM    7  C   UNL     1      -9.944   8.461  66.239  1.00  0.00    -0.216 C  
HETATM    8  C   UNL     1      -8.419   8.555  66.394  1.00  0.00    -0.122 C  
HETATM    9  C   UNL     1     -10.598   7.781  67.455  1.00  0.00    -0.345 C  
BRANCH   9  10
HETATM   10  C   UNL     1      -9.996   6.405  67.718  1.00  0.00    -0.147 C  
BRANCH  10  11
HETATM   11  C   UNL     1      -9.962   6.066  69.199  1.00  0.00    -0.205 C  
HETATM   12  C   UNL     1      -8.690   5.283  69.577  1.00  0.00    -0.114 C  
HETATM   13  C   UNL     1      -8.740   4.830  71.049  1.00  0.00    -0.138 C  
HETATM   14  C   UNL     1      -7.409   6.087  69.322  1.00  0.00    -0.083 C  
BRANCH  13  15
HETATM   15  C   UNL     1      -9.926   3.924  71.404  1.00  0.00    -0.198 C  
BRANCH  15  16
HETATM   16  C   UNL     1     -10.410   4.119  72.841  1.00  0.00    -0.241 C  
BRANCH  16  17
HETATM   17  C   UNL     1     -10.358   5.566  73.261  1.00  0.00    -0.233 C  
HETATM   18  C   UNL     1     -11.096   6.478  72.597  1.00  0.00    -0.291 C  
HETATM   19  C   UNL     1      -9.511   5.895  74.455  1.00  0.00    -0.164 C  
BRANCH  18  20
HETATM   20  C   UNL     1     -11.234   7.941  72.929  1.00  0.00    -0.429 C  
BRANCH  20  21
HETATM   21  C   UNL     1     -10.961   8.812  71.720  1.00  0.00    -0.415 C  
HETATM   22  C   UNL     1     -11.901   9.511  71.048  1.00  0.00    -0.408 C  
HETATM   23  C   UNL     1     -13.377   9.505  71.348  1.00  0.00    -0.435 C  
HETATM   24  C   UNL     1     -11.528  10.407  69.915  1.00  0.00    -0.297 C  
HETATM   25  O   UNL     1     -12.383  11.008  69.276  1.00  0.00    -0.412 OA 
HETATM   26  C   UNL     1     -10.104  10.574  69.591  1.00  0.00    -0.177 A  
HETATM   27  C   UNL     1      -9.140   9.834  70.259  1.00  0.00    -0.208 A  
HETATM   28  C   UNL     1      -9.530   8.873  71.300  1.00  0.00    -0.272 C  
HETATM   29  C   UNL     1      -7.786   9.994  69.936  1.00  0.00    -0.185 A  
HETATM   30  C   UNL     1      -7.403  10.903  68.948  1.00  0.00    -0.111 A  
HETATM   31  O   UNL     1      -8.676   8.155  71.807  1.00  0.00    -0.125 OA 
HETATM   32  C   UNL     1      -8.372  11.650  68.279  1.00  0.00    -0.159 A  
HETATM   33  C   UNL     1      -9.721  11.487  68.597  1.00  0.00    -0.172 A  
ENDBRANCH  20  21
ENDBRANCH  18  20
ENDBRANCH  16  17
ENDBRANCH  15  16
ENDBRANCH  13  15
ENDBRANCH  10  11
ENDBRANCH   9  10
ENDBRANCH   5   6
ENDBRANCH   4   5
TORSDOF 9
ENDMDL
MODEL       45
REMARK 921   NORMALIZED FREE ENERGY PREDICTED BY IDOCK:   -6.03 KCAL/MOL
REMARK 922        TOTAL FREE ENERGY PREDICTED BY IDOCK:  -12.40 KCAL/MOL
REMARK 923 INTER-LIGAND FREE ENERGY PREDICTED BY IDOCK:   -9.35 KCAL/MOL
REMARK 924 INTRA-LIGAND FREE ENERGY PREDICTED BY IDOCK:   -3.05 KCAL/MOL
REMARK 927      BINDING AFFINITY PREDICTED BY RF-SCORE:    0.00 PKD
ROOT
HETATM    1  C   UNL     1     -13.724   9.063  72.500  1.00  0.00    -0.499 C  
HETATM    2  C   UNL     1     -12.333   9.135  71.875  1.00  0.00    -0.455 C  
HETATM    3  C   UNL     1     -11.929   7.753  71.348  1.00  0.00    -0.331 C  
HETATM    4  C   UNL     1     -12.311  10.220  70.782  1.00  0.00    -0.445 C  
ENDROOT
BRANCH   4   5
HETATM    5  C   UNL     1     -10.939  10.339  70.130  1.00  0.00    -0.377 C  
BRANCH   5   6
HETATM    6  C   UNL     1     -11.016  10.671  68.644  1.00  0.00    -0.291 C  
HETATM    7  C   UNL     1     -10.147   9.714  67.805  1.00  0.00    -0.232 C  
HETATM    8  C   UNL     1     -10.576   8.248  67.973  1.00  0.00    -0.188 C  
HETATM    9  C   UNL     1     -10.190  10.154  66.332  1.00  0.00    -0.288 C  
BRANCH   9  10
HETATM   10  C   UNL     1      -9.347   9.240  65.449  1.00  0.00    -0.292 C  
BRANCH  10  11
HETATM   11  C   UNL     1      -7.938   9.774  65.249  1.00  0.00    -0.123 C  
HETATM   12  C   UNL     1      -7.008   9.386  66.414  1.00  0.00    -0.084 C  
HETATM   13  C   UNL     1      -5.626  10.051  66.261  1.00  0.00    -0.057 C  
HETATM   14  C   UNL     1      -6.843   7.867  66.553  1.00  0.00    -0.070 C  
BRANCH  13  15
HETATM   15  C   UNL     1      -5.650  11.584  66.220  1.00  0.00    -0.003 C  
BRANCH  15  16
HETATM   16  C   UNL     1      -5.377  12.216  67.585  1.00  0.00    -0.091 C  
BRANCH  16  17
HETATM   17  C   UNL     1      -6.631  12.775  68.209  1.00  0.00    -0.085 C  
HETATM   18  C   UNL     1      -7.697  13.044  67.430  1.00  0.00    -0.159 C  
HETATM   19  C   UNL     1      -6.627  12.947  69.699  1.00  0.00     0.017 C  
BRANCH  18  20
HETATM   20  C   UNL     1      -9.051  13.521  67.888  1.00  0.00    -0.204 C  
BRANCH  20  21
HETATM   21  C   UNL     1      -9.414  14.850  67.256  1.00  0.00    -0.216 C  
HETATM   22  C   UNL     1     -10.027  14.991  66.062  1.00  0.00    -0.334 C  
HETATM   23  C   UNL     1     -10.406  13.867  65.134  1.00  0.00    -0.403 C  
HETATM   24  C   UNL     1     -10.418  16.338  65.553  1.00  0.00    -0.362 C  
HETATM   25  O   UNL     1     -10.934  16.473  64.452  1.00  0.00    -0.872 OA 
HETATM   26  C   UNL     1     -10.191  17.507  66.416  1.00  0.00    -0.354 A  
HETATM   27  C   UNL     1      -9.534  17.368  67.629  1.00  0.00    -0.251 A  
HETATM   28  C   UNL     1      -9.056  16.050  68.069  1.00  0.00    -0.189 C  
HETATM   29  C   UNL     1      -9.314  18.490  68.439  1.00  0.00    -0.359 A  
HETATM   30  C   UNL     1      -9.762  19.748  68.031  1.00  0.00    -0.505 A  
HETATM   31  O   UNL     1      -8.389  15.962  69.093  1.00  0.00    -0.228 OA 
HETATM   32  C   UNL     1     -10.426  19.888  66.813  1.00  0.00    -0.575 A  
HETATM   33  C   UNL     1     -10.641  18.770  66.004  1.00  0.00    -0.442 A  
ENDBRANCH  20  21
ENDBRANCH  18  20
ENDBRANCH  16  17
ENDBRANCH  15  16
ENDBRANCH  13  15
ENDBRANCH  10  11
ENDBRANCH   9  10
ENDBRANCH   5   6
ENDBRANCH   4   5
TORSDOF 9
ENDMDL
MODEL       46
REMARK 921   NORMALIZED FREE ENERGY PREDICTED BY IDOCK:   -6.02 KCAL/MOL
REMARK 922        TOTAL FREE ENERGY PREDICTED BY IDOCK:  -12.39 KCAL/MOL
REMARK 923 INTER-LIGAND FREE ENERGY PREDICTED BY IDOCK:  -10.43 KCAL/MOL
REMARK 924 INTRA-LIGAND FREE ENERGY PREDICTED BY IDOCK:   -1.96 KCAL/MOL
REMARK 927      BINDING AFFINITY PREDICTED BY RF-SCORE:    0.00 PKD
ROOT
HETATM    1  C   UNL     1     -14.151   8.844  72.271  1.00  0.00    -0.512 C  
HETATM    2  C   UNL     1     -12.672   8.544  72.037  1.00  0.00    -0.421 C  
HETATM    3  C   UNL     1     -12.522   7.193  71.330  1.00  0.00    -0.425 C  
HETATM    4  C   UNL     1     -12.026   9.703  71.253  1.00  0.00    -0.462 C  
ENDROOT
BRANCH   4   5
HETATM    5  C   UNL     1     -10.545   9.458  71.000  1.00  0.00    -0.400 C  
BRANCH   5   6
HETATM    6  C   UNL     1     -10.070  10.024  69.666  1.00  0.00    -0.263 C  
HETATM    7  C   UNL     1      -9.384   8.944  68.806  1.00  0.00    -0.137 C  
HETATM    8  C   UNL     1     -10.324   7.768  68.500  1.00  0.00    -0.226 C  
HETATM    9  C   UNL     1      -8.845   9.592  67.520  1.00  0.00    -0.129 C  
BRANCH   9  10
HETATM   10  C   UNL     1      -8.155   8.569  66.624  1.00  0.00    -0.104 C  
BRANCH  10  11
HETATM   11  C   UNL     1      -8.620   8.663  65.179  1.00  0.00    -0.200 C  
HETATM   12  C   UNL     1      -7.721   9.600  64.350  1.00  0.00    -0.128 C  
HETATM   13  C   UNL     1      -8.287   9.790  62.929  1.00  0.00    -0.163 C  
HETATM   14  C   UNL     1      -6.271   9.104  64.271  1.00  0.00    -0.075 C  
BRANCH  13  15
HETATM   15  C   UNL     1      -9.699  10.387  62.873  1.00  0.00    -0.266 C  
BRANCH  15  16
HETATM   16  C   UNL     1      -9.752  11.828  63.381  1.00  0.00    -0.341 C  
BRANCH  16  17
HETATM   17  C   UNL     1     -10.965  12.077  64.241  1.00  0.00    -0.401 C  
HETATM   18  C   UNL     1     -10.804  12.389  65.543  1.00  0.00    -0.316 C  
HETATM   19  C   UNL     1     -12.301  12.015  63.562  1.00  0.00    -0.661 C  
BRANCH  18  20
HETATM   20  C   UNL     1     -11.889  12.753  66.523  1.00  0.00    -0.471 C  
BRANCH  20  21
HETATM   21  C   UNL     1     -11.563  14.037  67.260  1.00  0.00    -0.396 C  
HETATM   22  C   UNL     1     -11.503  14.158  68.603  1.00  0.00    -0.332 C  
HETATM   23  C   UNL     1     -11.796  13.063  69.595  1.00  0.00    -0.385 C  
HETATM   24  C   UNL     1     -11.095  15.444  69.241  1.00  0.00    -0.280 C  
HETATM   25  O   UNL     1     -11.082  15.570  70.458  1.00  0.00    -0.297 OA 
HETATM   26  C   UNL     1     -10.687  16.559  68.374  1.00  0.00    -0.339 A  
HETATM   27  C   UNL     1     -10.777  16.447  66.995  1.00  0.00    -0.217 A  
HETATM   28  C   UNL     1     -11.284  15.211  66.382  1.00  0.00    -0.277 C  
HETATM   29  C   UNL     1     -10.394  17.519  66.179  1.00  0.00    -0.330 A  
HETATM   30  C   UNL     1      -9.913  18.699  66.750  1.00  0.00    -0.381 A  
HETATM   31  O   UNL     1     -11.454  15.166  65.169  1.00  0.00    -0.352 OA 
HETATM   32  C   UNL     1      -9.818  18.810  68.136  1.00  0.00    -0.396 A  
HETATM   33  C   UNL     1     -10.205  17.744  68.950  1.00  0.00    -0.345 A  
ENDBRANCH  20  21
ENDBRANCH  18  20
ENDBRANCH  16  17
ENDBRANCH  15  16
ENDBRANCH  13  15
ENDBRANCH  10  11
ENDBRANCH   9  10
ENDBRANCH   5   6
ENDBRANCH   4   5
TORSDOF 9
ENDMDL
MODEL       47
REMARK 921   NORMALIZED FREE ENERGY PREDICTED BY IDOCK:   -6.01 KCAL/MOL
REMARK 922        TOTAL FREE ENERGY PREDICTED BY IDOCK:  -12.37 KCAL/MOL
REMARK 923 INTER-LIGAND FREE ENERGY PREDICTED BY IDOCK:   -8.27 KCAL/MOL
REMARK 924 INTRA-LIGAND FREE ENERGY PREDICTED BY IDOCK:   -4.10 KCAL/MOL
REMARK 927      BINDING AFFINITY PREDICTED BY RF-SCORE:    0.00 PKD
ROOT
HETATM    1  C   UNL     1      -9.170  19.756  67.704  1.00  0.00    -0.430 C  
HETATM    2  C   UNL     1     -10.264  18.701  67.842  1.00  0.00    -0.433 C  
HETATM    3  C   UNL     1     -10.490  18.008  66.494  1.00  0.00    -0.341 C  
HETATM    4  C   UNL     1      -9.894  17.714  68.966  1.00  0.00    -0.231 C  
ENDROOT
BRANCH   4   5
HETATM    5  C   UNL     1     -10.960  16.642  69.152  1.00  0.00    -0.276 C  
BRANCH   5   6
HETATM    6  C   UNL     1     -10.387  15.229  69.144  1.00  0.00    -0.248 C  
HETATM    7  C   UNL     1     -11.504  14.167  69.109  1.00  0.00    -0.338 C  
HETATM    8  C   UNL     1     -12.397  14.309  67.866  1.00  0.00    -0.021 C  
HETATM    9  C   UNL     1     -10.871  12.768  69.197  1.00  0.00    -0.123 C  
BRANCH   9  10
HETATM   10  C   UNL     1     -11.930  11.671  69.164  1.00  0.00    -0.378 C  
BRANCH  10  11
HETATM   11  C   UNL     1     -11.390  10.335  69.650  1.00  0.00    -0.315 C  
HETATM   12  C   UNL     1     -11.503  10.196  71.180  1.00  0.00    -0.387 C  
HETATM   13  C   UNL     1     -10.827   8.899  71.666  1.00  0.00    -0.420 C  
HETATM   14  C   UNL     1     -12.957  10.240  71.668  1.00  0.00    -0.570 C  
BRANCH  13  15
HETATM   15  C   UNL     1      -9.334   8.787  71.331  1.00  0.00    -0.328 C  
BRANCH  15  16
HETATM   16  C   UNL     1      -8.994   7.508  70.566  1.00  0.00    -0.152 C  
BRANCH  16  17
HETATM   17  C   UNL     1      -8.668   7.786  69.120  1.00  0.00    -0.139 C  
HETATM   18  C   UNL     1      -8.176   8.991  68.770  1.00  0.00    -0.117 C  
HETATM   19  C   UNL     1      -8.865   6.657  68.152  1.00  0.00    -0.119 C  
BRANCH  18  20
HETATM   20  C   UNL     1      -7.716   9.413  67.399  1.00  0.00    -0.095 C  
BRANCH  20  21
HETATM   21  C   UNL     1      -8.267  10.774  67.023  1.00  0.00    -0.126 C  
HETATM   22  C   UNL     1      -7.672  11.950  67.315  1.00  0.00    -0.164 C  
HETATM   23  C   UNL     1      -6.398  12.116  68.101  1.00  0.00    -0.055 C  
HETATM   24  C   UNL     1      -8.247  13.242  66.836  1.00  0.00     0.047 C  
HETATM   25  O   UNL     1      -7.735  14.312  67.136  1.00  0.00    -0.164 OA 
HETATM   26  C   UNL     1      -9.437  13.203  65.973  1.00  0.00    -0.103 A  
HETATM   27  C   UNL     1     -10.066  11.998  65.698  1.00  0.00    -0.272 A  
HETATM   28  C   UNL     1      -9.553  10.744  66.266  1.00  0.00    -0.195 C  
HETATM   29  C   UNL     1     -11.205  11.974  64.882  1.00  0.00    -0.374 A  
HETATM   30  C   UNL     1     -11.704  13.159  64.338  1.00  0.00    -0.429 A  
HETATM   31  O   UNL     1     -10.179   9.705  66.097  1.00  0.00    -0.266 OA 
HETATM   32  C   UNL     1     -11.068  14.370  64.611  1.00  0.00    -0.363 A  
HETATM   33  C   UNL     1      -9.937  14.395  65.428  1.00  0.00    -0.344 A  
ENDBRANCH  20  21
ENDBRANCH  18  20
ENDBRANCH  16  17
ENDBRANCH  15  16
ENDBRANCH  13  15
ENDBRANCH  10  11
ENDBRANCH   9  10
ENDBRANCH   5   6
ENDBRANCH   4   5
TORSDOF 9
ENDMDL
MODEL       48
REMARK 921   NORMALIZED FREE ENERGY PREDICTED BY IDOCK:   -6.00 KCAL/MOL
REMARK 922        TOTAL FREE ENERGY PREDICTED BY IDOCK:  -12.36 KCAL/MOL
REMARK 923 INTER-LIGAND FREE ENERGY PREDICTED BY IDOCK:  -10.12 KCAL/MOL
REMARK 924 INTRA-LIGAND FREE ENERGY PREDICTED BY IDOCK:   -2.24 KCAL/MOL
REMARK 927      BINDING AFFINITY PREDICTED BY RF-SCORE:    0.00 PKD
ROOT
HETATM    1  C   UNL     1      -9.658  20.601  67.179  1.00  0.00    -0.534 C  
HETATM    2  C   UNL     1      -9.701  19.076  67.248  1.00  0.00    -0.368 C  
HETATM    3  C   UNL     1      -8.388  18.495  66.714  1.00  0.00    -0.279 C  
HETATM    4  C   UNL     1     -10.009  18.630  68.690  1.00  0.00    -0.431 C  
ENDROOT
BRANCH   4   5
HETATM    5  C   UNL     1     -10.073  17.113  68.812  1.00  0.00    -0.329 C  
BRANCH   5   6
HETATM    6  C   UNL     1     -11.105  16.487  67.880  1.00  0.00    -0.229 C  
HETATM    7  C   UNL     1     -10.995  14.950  67.867  1.00  0.00    -0.288 C  
HETATM    8  C   UNL     1     -11.208  14.345  69.263  1.00  0.00    -0.308 C  
HETATM    9  C   UNL     1     -11.993  14.382  66.843  1.00  0.00    -0.425 C  
BRANCH   9  10
HETATM   10  C   UNL     1     -11.933  12.860  66.787  1.00  0.00    -0.418 C  
BRANCH  10  11
HETATM   11  C   UNL     1     -10.816  12.361  65.884  1.00  0.00    -0.305 C  
HETATM   12  C   UNL     1     -11.353  11.877  64.525  1.00  0.00    -0.382 C  
HETATM   13  C   UNL     1     -10.227  11.249  63.680  1.00  0.00    -0.446 C  
HETATM   14  C   UNL     1     -12.038  12.997  63.731  1.00  0.00    -0.574 C  
BRANCH  13  15
HETATM   15  C   UNL     1      -9.535  10.042  64.325  1.00  0.00    -0.336 C  
BRANCH  15  16
HETATM   16  C   UNL     1      -8.069  10.314  64.667  1.00  0.00    -0.154 C  
BRANCH  16  17
HETATM   17  C   UNL     1      -7.836  10.354  66.156  1.00  0.00    -0.135 C  
HETATM   18  C   UNL     1      -8.200   9.301  66.915  1.00  0.00    -0.119 C  
HETATM   19  C   UNL     1      -7.147  11.570  66.701  1.00  0.00    -0.069 C  
BRANCH  18  20
HETATM   20  C   UNL     1      -7.968   9.132  68.393  1.00  0.00    -0.103 C  
BRANCH  20  21
HETATM   21  C   UNL     1      -9.257   8.816  69.125  1.00  0.00    -0.149 C  
HETATM   22  C   UNL     1      -9.670   7.573  69.451  1.00  0.00    -0.164 C  
HETATM   23  C   UNL     1      -8.956   6.293  69.103  1.00  0.00    -0.127 C  
HETATM   24  C   UNL     1     -10.917   7.361  70.244  1.00  0.00    -0.255 C  
HETATM   25  O   UNL     1     -11.317   6.234  70.503  1.00  0.00    -0.337 OA 
HETATM   26  C   UNL     1     -11.649   8.540  70.729  1.00  0.00    -0.257 A  
HETATM   27  C   UNL     1     -11.243   9.816  70.369  1.00  0.00    -0.362 A  
HETATM   28  C   UNL     1     -10.076  10.007  69.497  1.00  0.00    -0.227 C  
HETATM   29  C   UNL     1     -11.953  10.933  70.830  1.00  0.00    -0.449 A  
HETATM   30  C   UNL     1     -13.066  10.764  71.657  1.00  0.00    -0.551 A  
HETATM   31  O   UNL     1      -9.793  11.134  69.106  1.00  0.00    -0.163 OA 
HETATM   32  C   UNL     1     -13.471   9.481  72.022  1.00  0.00    -0.522 A  
HETATM   33  C   UNL     1     -12.766   8.369  71.560  1.00  0.00    -0.330 A  
ENDBRANCH  20  21
ENDBRANCH  18  20
ENDBRANCH  16  17
ENDBRANCH  15  16
ENDBRANCH  13  15
ENDBRANCH  10  11
ENDBRANCH   9  10
ENDBRANCH   5   6
ENDBRANCH   4   5
TORSDOF 9
ENDMDL
MODEL       49
REMARK 921   NORMALIZED FREE ENERGY PREDICTED BY IDOCK:   -5.98 KCAL/MOL
REMARK 922        TOTAL FREE ENERGY PREDICTED BY IDOCK:  -12.33 KCAL/MOL
REMARK 923 INTER-LIGAND FREE ENERGY PREDICTED BY IDOCK:   -9.96 KCAL/MOL
REMARK 924 INTRA-LIGAND FREE ENERGY PREDICTED BY IDOCK:   -2.38 KCAL/MOL
REMARK 927      BINDING AFFINITY PREDICTED BY RF-SCORE:    0.00 PKD
ROOT
HETATM    1  C   UNL     1     -14.315  14.316  71.989  1.00  0.00    -0.629 C  
HETATM    2  C   UNL     1     -13.182  15.333  71.862  1.00  0.00    -0.506 C  
HETATM    3  C   UNL     1     -12.679  15.725  73.255  1.00  0.00    -0.640 C  
HETATM    4  C   UNL     1     -12.069  14.759  70.965  1.00  0.00    -0.391 C  
ENDROOT
BRANCH   4   5
HETATM    5  C   UNL     1     -10.916  15.739  70.798  1.00  0.00    -0.311 C  
BRANCH   5   6
HETATM    6  C   UNL     1      -9.984  15.367  69.648  1.00  0.00    -0.270 C  
HETATM    7  C   UNL     1     -10.738  15.311  68.305  1.00  0.00    -0.254 C  
HETATM    8  C   UNL     1     -11.390  16.656  67.953  1.00  0.00     0.001 C  
HETATM    9  C   UNL     1      -9.770  14.842  67.205  1.00  0.00    -0.234 C  
BRANCH   9  10
HETATM   10  C   UNL     1     -10.461  14.768  65.847  1.00  0.00    -0.324 C  
BRANCH  10  11
HETATM   11  C   UNL     1     -10.060  13.528  65.064  1.00  0.00    -0.280 C  
HETATM   12  C   UNL     1     -11.284  12.812  64.461  1.00  0.00    -0.373 C  
HETATM   13  C   UNL     1     -10.871  11.487  63.791  1.00  0.00    -0.486 C  
HETATM   14  C   UNL     1     -12.041  13.690  63.457  1.00  0.00    -0.341 C  
BRANCH  13  15
HETATM   15  C   UNL     1     -10.197  10.475  64.727  1.00  0.00    -0.373 C  
BRANCH  15  16
HETATM   16  C   UNL     1      -8.674  10.467  64.591  1.00  0.00    -0.193 C  
BRANCH  16  17
HETATM   17  C   UNL     1      -7.989  10.393  65.932  1.00  0.00    -0.151 C  
HETATM   18  C   UNL     1      -8.588  10.927  67.015  1.00  0.00    -0.136 C  
HETATM   19  C   UNL     1      -6.679   9.664  65.984  1.00  0.00    -0.084 C  
BRANCH  18  20
HETATM   20  C   UNL     1      -8.096  10.870  68.438  1.00  0.00    -0.131 C  
BRANCH  20  21
HETATM   21  C   UNL     1      -9.069  10.126  69.332  1.00  0.00    -0.217 C  
HETATM   22  C   UNL     1      -8.817   8.937  69.919  1.00  0.00    -0.154 C  
HETATM   23  C   UNL     1      -7.560   8.124  69.748  1.00  0.00    -0.090 C  
HETATM   24  C   UNL     1      -9.805   8.314  70.849  1.00  0.00    -0.182 C  
HETATM   25  O   UNL     1      -9.598   7.216  71.348  1.00  0.00    -0.162 OA 
HETATM   26  C   UNL     1     -11.029   9.060  71.174  1.00  0.00    -0.371 A  
HETATM   27  C   UNL     1     -11.303  10.268  70.549  1.00  0.00    -0.422 A  
HETATM   28  C   UNL     1     -10.373  10.817  69.552  1.00  0.00    -0.144 C  
HETATM   29  C   UNL     1     -12.477  10.966  70.859  1.00  0.00    -0.507 A  
HETATM   30  C   UNL     1     -13.370  10.453  71.802  1.00  0.00    -0.456 A  
HETATM   31  O   UNL     1     -10.680  11.831  68.936  1.00  0.00    -0.216 OA 
HETATM   32  C   UNL     1     -13.092   9.242  72.434  1.00  0.00    -0.481 A  
HETATM   33  C   UNL     1     -11.925   8.544  72.121  1.00  0.00    -0.451 A  
ENDBRANCH  20  21
ENDBRANCH  18  20
ENDBRANCH  16  17
ENDBRANCH  15  16
ENDBRANCH  13  15
ENDBRANCH  10  11
ENDBRANCH   9  10
ENDBRANCH   5   6
ENDBRANCH   4   5
TORSDOF 9
ENDMDL
MODEL       50
REMARK 921   NORMALIZED FREE ENERGY PREDICTED BY IDOCK:   -5.98 KCAL/MOL
REMARK 922        TOTAL FREE ENERGY PREDICTED BY IDOCK:  -12.33 KCAL/MOL
REMARK 923 INTER-LIGAND FREE ENERGY PREDICTED BY IDOCK:   -8.50 KCAL/MOL
REMARK 924 INTRA-LIGAND FREE ENERGY PREDICTED BY IDOCK:   -3.83 KCAL/MOL
REMARK 927      BINDING AFFINITY PREDICTED BY RF-SCORE:    0.00 PKD
ROOT
HETATM    1  C   UNL     1     -10.438  13.730  64.667  1.00  0.00    -0.433 C  
HETATM    2  C   UNL     1     -10.959  12.314  64.904  1.00  0.00    -0.344 C  
HETATM    3  C   UNL     1     -11.874  11.898  63.747  1.00  0.00    -0.558 C  
HETATM    4  C   UNL     1      -9.773  11.352  65.103  1.00  0.00    -0.280 C  
ENDROOT
BRANCH   4   5
HETATM    5  C   UNL     1     -10.239   9.924  65.352  1.00  0.00    -0.149 C  
BRANCH   5   6
HETATM    6  C   UNL     1      -9.085   8.962  65.620  1.00  0.00    -0.269 C  
HETATM    7  C   UNL     1      -9.343   8.106  66.875  1.00  0.00    -0.219 C  
HETATM    8  C   UNL     1     -10.623   7.266  66.747  1.00  0.00    -0.288 C  
HETATM    9  C   UNL     1      -8.110   7.227  67.147  1.00  0.00    -0.114 C  
BRANCH   9  10
HETATM   10  C   UNL     1      -8.308   6.352  68.380  1.00  0.00    -0.116 C  
BRANCH  10  11
HETATM   11  C   UNL     1      -8.178   7.142  69.673  1.00  0.00    -0.131 C  
HETATM   12  C   UNL     1      -8.996   6.509  70.814  1.00  0.00    -0.144 C  
HETATM   13  C   UNL     1      -8.962   7.397  72.073  1.00  0.00    -0.143 C  
HETATM   14  C   UNL     1      -8.519   5.093  71.163  1.00  0.00    -0.123 C  
BRANCH  13  15
HETATM   15  C   UNL     1      -9.519   8.813  71.877  1.00  0.00    -0.362 C  
BRANCH  15  16
HETATM   16  C   UNL     1     -11.047   8.856  71.897  1.00  0.00    -0.442 C  
BRANCH  16  17
HETATM   17  C   UNL     1     -11.596   9.835  70.891  1.00  0.00    -0.441 C  
HETATM   18  C   UNL     1     -10.868  10.147  69.801  1.00  0.00    -0.320 C  
HETATM   19  C   UNL     1     -12.975  10.368  71.147  1.00  0.00    -0.506 C  
BRANCH  18  20
HETATM   20  C   UNL     1     -11.290  11.031  68.657  1.00  0.00    -0.346 C  
BRANCH  20  21
HETATM   21  C   UNL     1     -10.420  12.269  68.561  1.00  0.00    -0.248 C  
HETATM   22  C   UNL     1      -9.071  12.256  68.498  1.00  0.00    -0.076 C  
HETATM   23  C   UNL     1      -8.203  11.028  68.563  1.00  0.00    -0.146 C  
HETATM   24  C   UNL     1      -8.299  13.522  68.326  1.00  0.00    -0.165 C  
HETATM   25  O   UNL     1      -7.075  13.518  68.312  1.00  0.00    -0.087 OA 
HETATM   26  C   UNL     1      -9.041  14.779  68.149  1.00  0.00    -0.180 A  
HETATM   27  C   UNL     1     -10.424  14.797  68.244  1.00  0.00    -0.241 A  
HETATM   28  C   UNL     1     -11.167  13.561  68.523  1.00  0.00    -0.278 C  
HETATM   29  C   UNL     1     -11.121  16.002  68.083  1.00  0.00    -0.344 A  
HETATM   30  C   UNL     1     -10.426  17.184  67.820  1.00  0.00    -0.362 A  
HETATM   31  O   UNL     1     -12.378  13.613  68.706  1.00  0.00    -0.261 OA 
HETATM   32  C   UNL     1      -9.035  17.165  67.720  1.00  0.00    -0.226 A  
HETATM   33  C   UNL     1      -8.341  15.965  67.885  1.00  0.00    -0.158 A  
ENDBRANCH  20  21
ENDBRANCH  18  20
ENDBRANCH  16  17
ENDBRANCH  15  16
ENDBRANCH  13  15
ENDBRANCH  10  11
ENDBRANCH   9  10
ENDBRANCH   5   6
ENDBRANCH   4   5
TORSDOF 9
ENDMDL
MODEL       51
REMARK 921   NORMALIZED FREE ENERGY PREDICTED BY IDOCK:   -5.98 KCAL/MOL
REMARK 922        TOTAL FREE ENERGY PREDICTED BY IDOCK:  -12.33 KCAL/MOL
REMARK 923 INTER-LIGAND FREE ENERGY PREDICTED BY IDOCK:   -8.61 KCAL/MOL
REMARK 924 INTRA-LIGAND FREE ENERGY PREDICTED BY IDOCK:   -3.72 KCAL/MOL
REMARK 927      BINDING AFFINITY PREDICTED BY RF-SCORE:    0.00 PKD
ROOT
HETATM    1  C   UNL     1      -6.689   9.127  69.603  1.00  0.00    -0.046 C  
HETATM    2  C   UNL     1      -7.129  10.589  69.628  1.00  0.00    -0.141 C  
HETATM    3  C   UNL     1      -6.151  11.410  70.476  1.00  0.00    -0.045 C  
HETATM    4  C   UNL     1      -7.257  11.116  68.186  1.00  0.00    -0.080 C  
ENDROOT
BRANCH   4   5
HETATM    5  C   UNL     1      -7.703  12.572  68.154  1.00  0.00    -0.141 C  
BRANCH   5   6
HETATM    6  C   UNL     1      -6.633  13.508  67.601  1.00  0.00    -0.177 C  
HETATM    7  C   UNL     1      -6.877  14.965  68.039  1.00  0.00    -0.147 C  
HETATM    8  C   UNL     1      -6.876  15.116  69.568  1.00  0.00    -0.179 C  
HETATM    9  C   UNL     1      -5.824  15.872  67.377  1.00  0.00    -0.108 C  
BRANCH   9  10
HETATM   10  C   UNL     1      -6.013  17.332  67.775  1.00  0.00    -0.145 C  
BRANCH  10  11
HETATM   11  C   UNL     1      -7.404  17.845  67.438  1.00  0.00    -0.205 C  
HETATM   12  C   UNL     1      -8.123  18.406  68.679  1.00  0.00    -0.319 C  
HETATM   13  C   UNL     1      -9.577  18.792  68.344  1.00  0.00    -0.409 C  
HETATM   14  C   UNL     1      -7.391  19.609  69.287  1.00  0.00    -0.294 C  
BRANCH  13  15
HETATM   15  C   UNL     1     -10.447  17.639  67.826  1.00  0.00    -0.379 C  
BRANCH  15  16
HETATM   16  C   UNL     1     -10.277  16.358  68.643  1.00  0.00    -0.258 C  
BRANCH  16  17
HETATM   17  C   UNL     1     -11.362  15.354  68.347  1.00  0.00    -0.345 C  
HETATM   18  C   UNL     1     -11.453  14.817  67.114  1.00  0.00    -0.375 C  
HETATM   19  C   UNL     1     -12.257  14.967  69.487  1.00  0.00    -0.267 C  
BRANCH  18  20
HETATM   20  C   UNL     1     -12.411  13.744  66.666  1.00  0.00    -0.403 C  
BRANCH  20  21
HETATM   21  C   UNL     1     -11.682  12.463  66.310  1.00  0.00    -0.457 C  
HETATM   22  C   UNL     1     -11.149  12.194  65.100  1.00  0.00    -0.369 C  
HETATM   23  C   UNL     1     -11.228  13.086  63.889  1.00  0.00    -0.434 C  
HETATM   24  C   UNL     1     -10.378  10.938  64.862  1.00  0.00    -0.304 C  
HETATM   25  O   UNL     1      -9.931  10.670  63.755  1.00  0.00    -0.317 OA 
HETATM   26  C   UNL     1     -10.147  10.031  65.997  1.00  0.00    -0.318 A  
HETATM   27  C   UNL     1     -10.719  10.292  67.233  1.00  0.00    -0.323 A  
HETATM   28  C   UNL     1     -11.567  11.477  67.424  1.00  0.00    -0.228 C  
HETATM   29  C   UNL     1     -10.500   9.417  68.304  1.00  0.00    -0.260 A  
HETATM   30  C   UNL     1      -9.698   8.286  68.134  1.00  0.00    -0.178 A  
HETATM   31  O   UNL     1     -12.148  11.636  68.492  1.00  0.00    -0.491 OA 
HETATM   32  C   UNL     1      -9.118   8.027  66.893  1.00  0.00    -0.182 A  
HETATM   33  C   UNL     1      -9.341   8.896  65.824  1.00  0.00    -0.286 A  
ENDBRANCH  20  21
ENDBRANCH  18  20
ENDBRANCH  16  17
ENDBRANCH  15  16
ENDBRANCH  13  15
ENDBRANCH  10  11
ENDBRANCH   9  10
ENDBRANCH   5   6
ENDBRANCH   4   5
TORSDOF 9
ENDMDL
MODEL       52
REMARK 921   NORMALIZED FREE ENERGY PREDICTED BY IDOCK:   -5.97 KCAL/MOL
REMARK 922        TOTAL FREE ENERGY PREDICTED BY IDOCK:  -12.32 KCAL/MOL
REMARK 923 INTER-LIGAND FREE ENERGY PREDICTED BY IDOCK:   -9.78 KCAL/MOL
REMARK 924 INTRA-LIGAND FREE ENERGY PREDICTED BY IDOCK:   -2.54 KCAL/MOL
REMARK 927      BINDING AFFINITY PREDICTED BY RF-SCORE:    0.00 PKD
ROOT
HETATM    1  C   UNL     1     -13.896  14.178  72.315  1.00  0.00    -0.643 C  
HETATM    2  C   UNL     1     -13.169  15.192  71.434  1.00  0.00    -0.528 C  
HETATM    3  C   UNL     1     -12.150  15.972  72.273  1.00  0.00    -0.617 C  
HETATM    4  C   UNL     1     -12.526  14.470  70.234  1.00  0.00    -0.405 C  
ENDROOT
BRANCH   4   5
HETATM    5  C   UNL     1     -11.794  15.440  69.317  1.00  0.00    -0.365 C  
BRANCH   5   6
HETATM    6  C   UNL     1     -10.655  14.780  68.545  1.00  0.00    -0.248 C  
HETATM    7  C   UNL     1     -11.173  13.664  67.617  1.00  0.00    -0.303 C  
HETATM    8  C   UNL     1     -12.182  14.193  66.586  1.00  0.00    -0.450 C  
HETATM    9  C   UNL     1      -9.975  12.977  66.940  1.00  0.00    -0.243 C  
BRANCH   9  10
HETATM   10  C   UNL     1     -10.426  11.861  66.003  1.00  0.00    -0.282 C  
BRANCH  10  11
HETATM   11  C   UNL     1      -9.276  10.955  65.592  1.00  0.00    -0.227 C  
HETATM   12  C   UNL     1      -9.538  10.280  64.233  1.00  0.00    -0.375 C  
HETATM   13  C   UNL     1      -8.428   9.264  63.900  1.00  0.00    -0.198 C  
HETATM   14  C   UNL     1      -9.673  11.296  63.091  1.00  0.00    -0.408 C  
BRANCH  13  15
HETATM   15  C   UNL     1      -8.268   8.129  64.921  1.00  0.00    -0.150 C  
BRANCH  15  16
HETATM   16  C   UNL     1      -6.832   7.987  65.426  1.00  0.00    -0.062 C  
BRANCH  16  17
HETATM   17  C   UNL     1      -6.667   8.541  66.819  1.00  0.00    -0.061 C  
HETATM   18  C   UNL     1      -7.597   8.270  67.756  1.00  0.00    -0.102 C  
HETATM   19  C   UNL     1      -5.421   9.331  67.091  1.00  0.00    -0.040 C  
BRANCH  18  20
HETATM   20  C   UNL     1      -7.554   8.664  69.209  1.00  0.00    -0.094 C  
BRANCH  20  21
HETATM   21  C   UNL     1      -8.895   8.452  69.882  1.00  0.00    -0.137 C  
HETATM   22  C   UNL     1      -9.302   7.289  70.435  1.00  0.00    -0.158 C  
HETATM   23  C   UNL     1      -8.525   6.000  70.434  1.00  0.00    -0.132 C  
HETATM   24  C   UNL     1     -10.610   7.194  71.147  1.00  0.00    -0.223 C  
HETATM   25  O   UNL     1     -11.002   6.131  71.611  1.00  0.00    -0.248 OA 
HETATM   26  C   UNL     1     -11.417   8.413  71.301  1.00  0.00    -0.325 A  
HETATM   27  C   UNL     1     -11.015   9.601  70.708  1.00  0.00    -0.397 A  
HETATM   28  C   UNL     1      -9.778   9.655  69.916  1.00  0.00    -0.231 C  
HETATM   29  C   UNL     1     -11.795  10.755  70.853  1.00  0.00    -0.400 A  
HETATM   30  C   UNL     1     -12.974  10.716  71.601  1.00  0.00    -0.582 A  
HETATM   31  O   UNL     1      -9.492  10.684  69.315  1.00  0.00    -0.197 OA 
HETATM   32  C   UNL     1     -13.375   9.523  72.201  1.00  0.00    -0.545 A  
HETATM   33  C   UNL     1     -12.600   8.372  72.052  1.00  0.00    -0.400 A  
ENDBRANCH  20  21
ENDBRANCH  18  20
ENDBRANCH  16  17
ENDBRANCH  15  16
ENDBRANCH  13  15
ENDBRANCH  10  11
ENDBRANCH   9  10
ENDBRANCH   5   6
ENDBRANCH   4   5
TORSDOF 9
ENDMDL
MODEL       53
REMARK 921   NORMALIZED FREE ENERGY PREDICTED BY IDOCK:   -5.97 KCAL/MOL
REMARK 922        TOTAL FREE ENERGY PREDICTED BY IDOCK:  -12.32 KCAL/MOL
REMARK 923 INTER-LIGAND FREE ENERGY PREDICTED BY IDOCK:   -9.91 KCAL/MOL
REMARK 924 INTRA-LIGAND FREE ENERGY PREDICTED BY IDOCK:   -2.41 KCAL/MOL
REMARK 927      BINDING AFFINITY PREDICTED BY RF-SCORE:    0.00 PKD
ROOT
HETATM    1  C   UNL     1      -6.129  20.743  66.884  1.00  0.00    -0.289 C  
HETATM    2  C   UNL     1      -7.281  19.984  67.538  1.00  0.00    -0.313 C  
HETATM    3  C   UNL     1      -7.046  19.886  69.049  1.00  0.00    -0.306 C  
HETATM    4  C   UNL     1      -8.617  20.665  67.184  1.00  0.00    -0.299 C  
ENDROOT
BRANCH   4   5
HETATM    5  C   UNL     1      -9.803  19.940  67.806  1.00  0.00    -0.530 C  
BRANCH   5   6
HETATM    6  C   UNL     1     -10.492  18.988  66.834  1.00  0.00    -0.505 C  
HETATM    7  C   UNL     1     -10.044  17.531  67.057  1.00  0.00    -0.323 C  
HETATM    8  C   UNL     1     -10.357  17.042  68.479  1.00  0.00    -0.359 C  
HETATM    9  C   UNL     1     -10.697  16.634  65.991  1.00  0.00    -0.153 C  
BRANCH   9  10
HETATM   10  C   UNL     1     -10.291  15.174  66.162  1.00  0.00    -0.313 C  
BRANCH  10  11
HETATM   11  C   UNL     1     -10.557  14.353  64.911  1.00  0.00    -0.456 C  
HETATM   12  C   UNL     1     -11.484  13.157  65.199  1.00  0.00    -0.327 C  
HETATM   13  C   UNL     1     -11.629  12.261  63.953  1.00  0.00    -0.525 C  
HETATM   14  C   UNL     1     -12.870  13.594  65.690  1.00  0.00    -0.425 C  
BRANCH  13  15
HETATM   15  C   UNL     1     -10.314  11.671  63.428  1.00  0.00    -0.482 C  
BRANCH  15  16
HETATM   16  C   UNL     1     -10.025  10.278  63.990  1.00  0.00    -0.195 C  
BRANCH  16  17
HETATM   17  C   UNL     1      -9.311  10.344  65.316  1.00  0.00    -0.263 C  
HETATM   18  C   UNL     1      -9.679   9.513  66.312  1.00  0.00    -0.310 C  
HETATM   19  C   UNL     1      -8.172  11.315  65.425  1.00  0.00     0.262 C  
BRANCH  18  20
HETATM   20  C   UNL     1      -9.026   9.380  67.663  1.00  0.00    -0.125 C  
BRANCH  20  21
HETATM   21  C   UNL     1     -10.018   9.614  68.784  1.00  0.00    -0.184 C  
HETATM   22  C   UNL     1     -10.494  10.824  69.149  1.00  0.00    -0.243 C  
HETATM   23  C   UNL     1     -10.088  12.143  68.546  1.00  0.00    -0.192 C  
HETATM   24  C   UNL     1     -11.531  10.952  70.214  1.00  0.00    -0.302 C  
HETATM   25  O   UNL     1     -11.933  12.050  70.577  1.00  0.00    -0.351 OA 
HETATM   26  C   UNL     1     -12.082   9.725  70.809  1.00  0.00    -0.364 A  
HETATM   27  C   UNL     1     -11.573   8.484  70.458  1.00  0.00    -0.145 A  
HETATM   28  C   UNL     1     -10.475   8.379  69.487  1.00  0.00    -0.224 C  
HETATM   29  C   UNL     1     -12.098   7.322  71.038  1.00  0.00    -0.361 A  
HETATM   30  C   UNL     1     -13.140   7.410  71.964  1.00  0.00    -0.192 A  
HETATM   31  O   UNL     1      -9.969   7.285  69.266  1.00  0.00    -0.165 OA 
HETATM   32  C   UNL     1     -13.655   8.657  72.314  1.00  0.00    -0.428 A  
HETATM   33  C   UNL     1     -13.128   9.815  71.739  1.00  0.00    -0.528 A  
ENDBRANCH  20  21
ENDBRANCH  18  20
ENDBRANCH  16  17
ENDBRANCH  15  16
ENDBRANCH  13  15
ENDBRANCH  10  11
ENDBRANCH   9  10
ENDBRANCH   5   6
ENDBRANCH   4   5
TORSDOF 9
ENDMDL
MODEL       54
REMARK 921   NORMALIZED FREE ENERGY PREDICTED BY IDOCK:   -5.96 KCAL/MOL
REMARK 922        TOTAL FREE ENERGY PREDICTED BY IDOCK:  -12.30 KCAL/MOL
REMARK 923 INTER-LIGAND FREE ENERGY PREDICTED BY IDOCK:   -9.81 KCAL/MOL
REMARK 924 INTRA-LIGAND FREE ENERGY PREDICTED BY IDOCK:   -2.49 KCAL/MOL
REMARK 927      BINDING AFFINITY PREDICTED BY RF-SCORE:    0.00 PKD
ROOT
HETATM    1  C   UNL     1     -11.017  11.362  64.643  1.00  0.00    -0.324 C  
HETATM    2  C   UNL     1     -10.764  12.859  64.478  1.00  0.00    -0.392 C  
HETATM    3  C   UNL     1     -12.075  13.570  64.123  1.00  0.00    -0.488 C  
HETATM    4  C   UNL     1     -10.108  13.418  65.754  1.00  0.00    -0.297 C  
ENDROOT
BRANCH   4   5
HETATM    5  C   UNL     1      -9.825  14.910  65.638  1.00  0.00    -0.372 C  
BRANCH   5   6
HETATM    6  C   UNL     1     -10.706  15.754  66.554  1.00  0.00    -0.283 C  
HETATM    7  C   UNL     1     -10.668  15.238  68.006  1.00  0.00    -0.268 C  
HETATM    8  C   UNL     1      -9.246  15.256  68.588  1.00  0.00    -0.201 C  
HETATM    9  C   UNL     1     -11.643  16.066  68.860  1.00  0.00    -0.354 C  
BRANCH   9  10
HETATM   10  C   UNL     1     -11.649  15.602  70.313  1.00  0.00    -0.370 C  
BRANCH  10  11
HETATM   11  C   UNL     1     -12.398  14.292  70.495  1.00  0.00    -0.430 C  
HETATM   12  C   UNL     1     -13.024  14.183  71.899  1.00  0.00    -0.441 C  
HETATM   13  C   UNL     1     -13.659  12.795  72.111  1.00  0.00    -0.547 C  
HETATM   14  C   UNL     1     -14.064  15.278  72.164  1.00  0.00    -0.658 C  
BRANCH  13  15
HETATM   15  C   UNL     1     -12.687  11.615  71.979  1.00  0.00    -0.095 C  
BRANCH  15  16
HETATM   16  C   UNL     1     -13.402  10.265  71.913  1.00  0.00    -0.487 C  
BRANCH  16  17
HETATM   17  C   UNL     1     -12.447   9.136  71.615  1.00  0.00    -0.434 C  
HETATM   18  C   UNL     1     -11.164   9.414  71.309  1.00  0.00    -0.437 C  
HETATM   19  C   UNL     1     -12.987   7.742  71.737  1.00  0.00    -0.351 C  
BRANCH  18  20
HETATM   20  C   UNL     1     -10.058   8.419  71.070  1.00  0.00    -0.242 C  
BRANCH  20  21
HETATM   21  C   UNL     1      -9.732   8.297  69.595  1.00  0.00    -0.173 C  
HETATM   22  C   UNL     1     -10.225   7.344  68.775  1.00  0.00    -0.199 C  
HETATM   23  C   UNL     1     -11.136   6.219  69.189  1.00  0.00    -0.457 C  
HETATM   24  C   UNL     1      -9.911   7.348  67.316  1.00  0.00    -0.175 C  
HETATM   25  O   UNL     1     -10.321   6.462  66.579  1.00  0.00    -0.164 OA 
HETATM   26  C   UNL     1      -9.111   8.456  66.773  1.00  0.00    -0.192 A  
HETATM   27  C   UNL     1      -8.578   9.418  67.618  1.00  0.00    -0.116 A  
HETATM   28  C   UNL     1      -8.805   9.341  69.068  1.00  0.00    -0.136 C  
HETATM   29  C   UNL     1      -7.810  10.464  67.091  1.00  0.00    -0.110 A  
HETATM   30  C   UNL     1      -7.585  10.546  65.716  1.00  0.00    -0.142 A  
HETATM   31  O   UNL     1      -8.242  10.140  69.809  1.00  0.00    -0.172 OA 
HETATM   32  C   UNL     1      -8.125   9.582  64.865  1.00  0.00    -0.131 A  
HETATM   33  C   UNL     1      -8.887   8.537  65.391  1.00  0.00    -0.173 A  
ENDBRANCH  20  21
ENDBRANCH  18  20
ENDBRANCH  16  17
ENDBRANCH  15  16
ENDBRANCH  13  15
ENDBRANCH  10  11
ENDBRANCH   9  10
ENDBRANCH   5   6
ENDBRANCH   4   5
TORSDOF 9
ENDMDL
MODEL       55
REMARK 921   NORMALIZED FREE ENERGY PREDICTED BY IDOCK:   -5.96 KCAL/MOL
REMARK 922        TOTAL FREE ENERGY PREDICTED BY IDOCK:  -12.30 KCAL/MOL
REMARK 923 INTER-LIGAND FREE ENERGY PREDICTED BY IDOCK:   -7.80 KCAL/MOL
REMARK 924 INTRA-LIGAND FREE ENERGY PREDICTED BY IDOCK:   -4.49 KCAL/MOL
REMARK 927      BINDING AFFINITY PREDICTED BY RF-SCORE:    0.00 PKD
ROOT
HETATM    1  C   UNL     1      -9.831   5.854  72.132  1.00  0.00    -0.185 C  
HETATM    2  C   UNL     1      -9.235   7.259  72.087  1.00  0.00    -0.151 C  
HETATM    3  C   UNL     1      -9.231   7.866  73.494  1.00  0.00    -0.340 C  
HETATM    4  C   UNL     1      -7.830   7.206  71.456  1.00  0.00    -0.093 C  
ENDROOT
BRANCH   4   5
HETATM    5  C   UNL     1      -7.192   8.586  71.378  1.00  0.00    -0.096 C  
BRANCH   5   6
HETATM    6  C   UNL     1      -8.004   9.568  70.539  1.00  0.00    -0.188 C  
HETATM    7  C   UNL     1      -7.132  10.249  69.466  1.00  0.00    -0.107 C  
HETATM    8  C   UNL     1      -6.503   9.231  68.503  1.00  0.00    -0.053 C  
HETATM    9  C   UNL     1      -7.980  11.292  68.717  1.00  0.00    -0.137 C  
BRANCH   9  10
HETATM   10  C   UNL     1      -7.169  12.000  67.636  1.00  0.00    -0.117 C  
BRANCH  10  11
HETATM   11  C   UNL     1      -7.556  13.463  67.493  1.00  0.00    -0.176 C  
HETATM   12  C   UNL     1      -7.187  14.277  68.747  1.00  0.00    -0.129 C  
HETATM   13  C   UNL     1      -7.710  15.723  68.638  1.00  0.00    -0.153 C  
HETATM   14  C   UNL     1      -5.676  14.289  69.015  1.00  0.00    -0.088 C  
BRANCH  13  15
HETATM   15  C   UNL     1      -9.230  15.846  68.476  1.00  0.00    -0.200 C  
BRANCH  15  16
HETATM   16  C   UNL     1      -9.636  16.413  67.115  1.00  0.00    -0.239 C  
BRANCH  16  17
HETATM   17  C   UNL     1     -10.563  15.485  66.372  1.00  0.00    -0.312 C  
HETATM   18  C   UNL     1     -10.991  14.355  66.969  1.00  0.00    -0.304 C  
HETATM   19  C   UNL     1     -11.004  15.920  65.006  1.00  0.00    -0.426 C  
BRANCH  18  20
HETATM   20  C   UNL     1     -11.979  13.362  66.416  1.00  0.00    -0.457 C  
BRANCH  20  21
HETATM   21  C   UNL     1     -11.348  11.996  66.228  1.00  0.00    -0.415 C  
HETATM   22  C   UNL     1     -10.657  11.614  65.134  1.00  0.00    -0.343 C  
HETATM   23  C   UNL     1     -10.437  12.449  63.900  1.00  0.00    -0.469 C  
HETATM   24  C   UNL     1     -10.001  10.274  65.068  1.00  0.00    -0.323 C  
HETATM   25  O   UNL     1      -9.411   9.908  64.061  1.00  0.00    -0.269 OA 
HETATM   26  C   UNL     1     -10.060   9.406  66.253  1.00  0.00    -0.328 A  
HETATM   27  C   UNL     1     -10.796   9.784  67.366  1.00  0.00    -0.265 A  
HETATM   28  C   UNL     1     -11.527  11.059  67.375  1.00  0.00    -0.135 C  
HETATM   29  C   UNL     1     -10.853   8.945  68.486  1.00  0.00    -0.038 A  
HETATM   30  C   UNL     1     -10.164   7.730  68.488  1.00  0.00    -0.227 A  
HETATM   31  O   UNL     1     -12.254  11.329  68.325  1.00  0.00    -0.611 OA 
HETATM   32  C   UNL     1      -9.421   7.351  67.371  1.00  0.00    -0.170 A  
HETATM   33  C   UNL     1      -9.368   8.186  66.253  1.00  0.00    -0.259 A  
ENDBRANCH  20  21
ENDBRANCH  18  20
ENDBRANCH  16  17
ENDBRANCH  15  16
ENDBRANCH  13  15
ENDBRANCH  10  11
ENDBRANCH   9  10
ENDBRANCH   5   6
ENDBRANCH   4   5
TORSDOF 9
ENDMDL
MODEL       56
REMARK 921   NORMALIZED FREE ENERGY PREDICTED BY IDOCK:   -5.94 KCAL/MOL
REMARK 922        TOTAL FREE ENERGY PREDICTED BY IDOCK:  -12.27 KCAL/MOL
REMARK 923 INTER-LIGAND FREE ENERGY PREDICTED BY IDOCK:   -9.88 KCAL/MOL
REMARK 924 INTRA-LIGAND FREE ENERGY PREDICTED BY IDOCK:   -2.39 KCAL/MOL
REMARK 927      BINDING AFFINITY PREDICTED BY RF-SCORE:    0.00 PKD
ROOT
HETATM    1  C   UNL     1     -12.679   9.797  71.517  1.00  0.00    -0.504 C  
HETATM    2  C   UNL     1     -11.642   8.694  71.316  1.00  0.00    -0.340 C  
HETATM    3  C   UNL     1     -10.483   8.886  72.300  1.00  0.00    -0.215 C  
HETATM    4  C   UNL     1     -12.318   7.316  71.450  1.00  0.00    -0.403 C  
ENDROOT
BRANCH   4   5
HETATM    5  C   UNL     1     -11.327   6.178  71.248  1.00  0.00    -0.335 C  
BRANCH   5   6
HETATM    6  C   UNL     1     -10.858   6.050  69.803  1.00  0.00    -0.433 C  
HETATM    7  C   UNL     1      -9.347   6.325  69.673  1.00  0.00    -0.150 C  
HETATM    8  C   UNL     1      -8.509   5.353  70.517  1.00  0.00    -0.122 C  
HETATM    9  C   UNL     1      -8.952   6.274  68.187  1.00  0.00    -0.115 C  
BRANCH   9  10
HETATM   10  C   UNL     1      -7.462   6.538  67.995  1.00  0.00    -0.095 C  
BRANCH  10  11
HETATM   11  C   UNL     1      -7.201   7.786  67.167  1.00  0.00    -0.090 C  
HETATM   12  C   UNL     1      -7.584   9.068  67.929  1.00  0.00    -0.093 C  
HETATM   13  C   UNL     1      -7.443  10.309  67.026  1.00  0.00    -0.093 C  
HETATM   14  C   UNL     1      -6.760   9.259  69.209  1.00  0.00    -0.049 C  
BRANCH  13  15
HETATM   15  C   UNL     1      -8.308  10.285  65.759  1.00  0.00    -0.152 C  
BRANCH  15  16
HETATM   16  C   UNL     1      -9.681   9.654  65.994  1.00  0.00    -0.331 C  
BRANCH  16  17
HETATM   17  C   UNL     1     -10.597  10.570  66.766  1.00  0.00    -0.284 C  
HETATM   18  C   UNL     1     -10.906  11.781  66.261  1.00  0.00    -0.325 C  
HETATM   19  C   UNL     1     -11.161  10.038  68.050  1.00  0.00    -0.263 C  
BRANCH  18  20
HETATM   20  C   UNL     1     -11.865  12.784  66.848  1.00  0.00    -0.440 C  
BRANCH  20  21
HETATM   21  C   UNL     1     -11.424  14.206  66.563  1.00  0.00    -0.368 C  
HETATM   22  C   UNL     1     -11.521  14.814  65.361  1.00  0.00    -0.341 C  
HETATM   23  C   UNL     1     -12.032  14.177  64.096  1.00  0.00    -0.421 C  
HETATM   24  C   UNL     1     -11.134  16.246  65.192  1.00  0.00    -0.212 C  
HETATM   25  O   UNL     1     -11.180  16.787  64.095  1.00  0.00    -1.155 OA 
HETATM   26  C   UNL     1     -10.714  17.005  66.378  1.00  0.00    -0.075 A  
HETATM   27  C   UNL     1     -10.584  16.374  67.607  1.00  0.00    -0.313 A  
HETATM   28  C   UNL     1     -10.864  14.937  67.737  1.00  0.00    -0.286 C  
HETATM   29  C   UNL     1     -10.174  17.105  68.729  1.00  0.00    -0.332 A  
HETATM   30  C   UNL     1      -9.903  18.470  68.617  1.00  0.00    -0.419 A  
HETATM   31  O   UNL     1     -10.645  14.376  68.805  1.00  0.00    -0.242 OA 
HETATM   32  C   UNL     1     -10.038  19.105  67.383  1.00  0.00    -0.465 A  
HETATM   33  C   UNL     1     -10.442  18.376  66.264  1.00  0.00    -0.421 A  
ENDBRANCH  20  21
ENDBRANCH  18  20
ENDBRANCH  16  17
ENDBRANCH  15  16
ENDBRANCH  13  15
ENDBRANCH  10  11
ENDBRANCH   9  10
ENDBRANCH   5   6
ENDBRANCH   4   5
TORSDOF 9
ENDMDL
MODEL       57
REMARK 921   NORMALIZED FREE ENERGY PREDICTED BY IDOCK:   -5.93 KCAL/MOL
REMARK 922        TOTAL FREE ENERGY PREDICTED BY IDOCK:  -12.25 KCAL/MOL
REMARK 923 INTER-LIGAND FREE ENERGY PREDICTED BY IDOCK:   -9.94 KCAL/MOL
REMARK 924 INTRA-LIGAND FREE ENERGY PREDICTED BY IDOCK:   -2.31 KCAL/MOL
REMARK 927      BINDING AFFINITY PREDICTED BY RF-SCORE:    0.00 PKD
ROOT
HETATM    1  C   UNL     1      -6.549   3.403  69.426  1.00  0.00    -0.034 C  
HETATM    2  C   UNL     1      -6.654   4.718  68.657  1.00  0.00    -0.045 C  
HETATM    3  C   UNL     1      -5.427   5.589  68.948  1.00  0.00    -0.004 C  
HETATM    4  C   UNL     1      -6.837   4.427  67.155  1.00  0.00    -0.052 C  
ENDROOT
BRANCH   4   5
HETATM    5  C   UNL     1      -6.957   5.708  66.341  1.00  0.00    -0.060 C  
BRANCH   5   6
HETATM    6  C   UNL     1      -8.200   6.519  66.692  1.00  0.00    -0.112 C  
HETATM    7  C   UNL     1      -8.112   7.956  66.141  1.00  0.00    -0.109 C  
HETATM    8  C   UNL     1      -7.962   7.980  64.613  1.00  0.00    -0.151 C  
HETATM    9  C   UNL     1      -9.346   8.749  66.605  1.00  0.00    -0.242 C  
BRANCH   9  10
HETATM   10  C   UNL     1      -9.316  10.184  66.088  1.00  0.00    -0.217 C  
BRANCH  10  11
HETATM   11  C   UNL     1     -10.653  10.613  65.504  1.00  0.00    -0.180 C  
HETATM   12  C   UNL     1     -10.474  11.572  64.312  1.00  0.00    -0.393 C  
HETATM   13  C   UNL     1     -11.837  12.102  63.824  1.00  0.00    -0.592 C  
HETATM   14  C   UNL     1      -9.719  10.923  63.145  1.00  0.00    -0.396 C  
BRANCH  13  15
HETATM   15  C   UNL     1     -12.644  12.870  64.879  1.00  0.00    -0.525 C  
BRANCH  15  16
HETATM   16  C   UNL     1     -12.243  14.343  64.973  1.00  0.00    -0.418 C  
BRANCH  16  17
HETATM   17  C   UNL     1     -11.442  14.629  66.219  1.00  0.00    -0.351 C  
HETATM   18  C   UNL     1     -12.068  14.700  67.410  1.00  0.00    -0.216 C  
HETATM   19  C   UNL     1      -9.957  14.764  66.053  1.00  0.00    -0.336 C  
BRANCH  18  20
HETATM   20  C   UNL     1     -11.423  14.889  68.758  1.00  0.00    -0.328 C  
BRANCH  20  21
HETATM   21  C   UNL     1     -11.873  13.829  69.743  1.00  0.00    -0.394 C  
HETATM   22  C   UNL     1     -12.723  14.045  70.769  1.00  0.00    -0.396 C  
HETATM   23  C   UNL     1     -13.324  15.374  71.143  1.00  0.00    -0.580 C  
HETATM   24  C   UNL     1     -13.174  12.922  71.643  1.00  0.00    -0.324 C  
HETATM   25  O   UNL     1     -13.909  13.122  72.601  1.00  0.00    -0.691 OA 
HETATM   26  C   UNL     1     -12.733  11.558  71.316  1.00  0.00    -0.469 A  
HETATM   27  C   UNL     1     -11.837  11.338  70.281  1.00  0.00    -0.446 A  
HETATM   28  C   UNL     1     -11.315  12.466  69.497  1.00  0.00    -0.180 C  
HETATM   29  C   UNL     1     -11.416  10.035  69.984  1.00  0.00    -0.310 A  
HETATM   30  C   UNL     1     -11.903   8.955  70.723  1.00  0.00    -0.230 A  
HETATM   31  O   UNL     1     -10.447  12.265  68.656  1.00  0.00    -0.227 OA 
HETATM   32  C   UNL     1     -12.808   9.175  71.760  1.00  0.00    -0.448 A  
HETATM   33  C   UNL     1     -13.223  10.474  72.059  1.00  0.00    -0.483 A  
ENDBRANCH  20  21
ENDBRANCH  18  20
ENDBRANCH  16  17
ENDBRANCH  15  16
ENDBRANCH  13  15
ENDBRANCH  10  11
ENDBRANCH   9  10
ENDBRANCH   5   6
ENDBRANCH   4   5
TORSDOF 9
ENDMDL
MODEL       58
REMARK 921   NORMALIZED FREE ENERGY PREDICTED BY IDOCK:   -5.92 KCAL/MOL
REMARK 922        TOTAL FREE ENERGY PREDICTED BY IDOCK:  -12.24 KCAL/MOL
REMARK 923 INTER-LIGAND FREE ENERGY PREDICTED BY IDOCK:   -9.43 KCAL/MOL
REMARK 924 INTRA-LIGAND FREE ENERGY PREDICTED BY IDOCK:   -2.81 KCAL/MOL
REMARK 927      BINDING AFFINITY PREDICTED BY RF-SCORE:    0.00 PKD
ROOT
HETATM    1  C   UNL     1     -12.757  10.289  71.852  1.00  0.00    -0.478 C  
HETATM    2  C   UNL     1     -11.884   9.207  71.220  1.00  0.00    -0.396 C  
HETATM    3  C   UNL     1     -10.430   9.685  71.158  1.00  0.00    -0.281 C  
HETATM    4  C   UNL     1     -12.047   7.889  72.000  1.00  0.00    -0.363 C  
ENDROOT
BRANCH   4   5
HETATM    5  C   UNL     1     -11.202   6.771  71.405  1.00  0.00    -0.309 C  
BRANCH   5   6
HETATM    6  C   UNL     1     -11.596   6.430  69.971  1.00  0.00    -0.446 C  
HETATM    7  C   UNL     1     -10.410   5.839  69.184  1.00  0.00    -0.316 C  
HETATM    8  C   UNL     1      -9.871   4.554  69.832  1.00  0.00    -0.298 C  
HETATM    9  C   UNL     1     -10.840   5.603  67.726  1.00  0.00    -0.176 C  
BRANCH   9  10
HETATM   10  C   UNL     1      -9.705   5.015  66.895  1.00  0.00    -0.182 C  
BRANCH  10  11
HETATM   11  C   UNL     1      -9.152   6.012  65.889  1.00  0.00    -0.117 C  
HETATM   12  C   UNL     1      -7.781   6.562  66.324  1.00  0.00    -0.095 C  
HETATM   13  C   UNL     1      -7.303   7.670  65.365  1.00  0.00    -0.071 C  
HETATM   14  C   UNL     1      -6.714   5.465  66.426  1.00  0.00    -0.057 C  
BRANCH  13  15
HETATM   15  C   UNL     1      -8.241   8.880  65.261  1.00  0.00    -0.139 C  
BRANCH  15  16
HETATM   16  C   UNL     1      -8.331   9.672  66.566  1.00  0.00    -0.120 C  
BRANCH  16  17
HETATM   17  C   UNL     1      -9.706  10.253  66.778  1.00  0.00    -0.231 C  
HETATM   18  C   UNL     1     -10.034  11.418  66.185  1.00  0.00    -0.265 C  
HETATM   19  C   UNL     1     -10.660   9.449  67.610  1.00  0.00    -0.333 C  
BRANCH  18  20
HETATM   20  C   UNL     1     -11.378  12.097  66.214  1.00  0.00    -0.411 C  
BRANCH  20  21
HETATM   21  C   UNL     1     -11.304  13.444  66.906  1.00  0.00    -0.351 C  
HETATM   22  C   UNL     1     -11.477  13.637  68.231  1.00  0.00    -0.348 C  
HETATM   23  C   UNL     1     -11.822  12.569  69.234  1.00  0.00    -0.360 C  
HETATM   24  C   UNL     1     -11.308  14.990  68.838  1.00  0.00    -0.297 C  
HETATM   25  O   UNL     1     -11.507  15.177  70.031  1.00  0.00    -0.250 OA 
HETATM   26  C   UNL     1     -10.874  16.098  67.975  1.00  0.00    -0.333 A  
HETATM   27  C   UNL     1     -10.725  15.908  66.609  1.00  0.00    -0.270 A  
HETATM   28  C   UNL     1     -11.001  14.596  66.007  1.00  0.00    -0.325 C  
HETATM   29  C   UNL     1     -10.320  16.973  65.794  1.00  0.00    -0.275 A  
HETATM   30  C   UNL     1     -10.057  18.224  66.354  1.00  0.00    -0.406 A  
HETATM   31  O   UNL     1     -10.965  14.473  64.788  1.00  0.00    -0.390 OA 
HETATM   32  C   UNL     1     -10.202  18.415  67.728  1.00  0.00    -0.407 A  
HETATM   33  C   UNL     1     -10.610  17.355  68.539  1.00  0.00    -0.340 A  
ENDBRANCH  20  21
ENDBRANCH  18  20
ENDBRANCH  16  17
ENDBRANCH  15  16
ENDBRANCH  13  15
ENDBRANCH  10  11
ENDBRANCH   9  10
ENDBRANCH   5   6
ENDBRANCH   4   5
TORSDOF 9
ENDMDL
MODEL       59
REMARK 921   NORMALIZED FREE ENERGY PREDICTED BY IDOCK:   -5.92 KCAL/MOL
REMARK 922        TOTAL FREE ENERGY PREDICTED BY IDOCK:  -12.24 KCAL/MOL
REMARK 923 INTER-LIGAND FREE ENERGY PREDICTED BY IDOCK:   -9.57 KCAL/MOL
REMARK 924 INTRA-LIGAND FREE ENERGY PREDICTED BY IDOCK:   -2.67 KCAL/MOL
REMARK 927      BINDING AFFINITY PREDICTED BY RF-SCORE:    0.00 PKD
ROOT
HETATM    1  C   UNL     1     -12.448  16.333  73.423  1.00  0.00    -0.616 C  
HETATM    2  C   UNL     1     -13.256  15.423  72.499  1.00  0.00    -0.543 C  
HETATM    3  C   UNL     1     -12.868  15.689  71.041  1.00  0.00    -0.521 C  
HETATM    4  C   UNL     1     -13.054  13.953  72.913  1.00  0.00    -0.403 C  
ENDROOT
BRANCH   4   5
HETATM    5  C   UNL     1     -13.847  13.002  72.027  1.00  0.00    -0.330 C  
BRANCH   5   6
HETATM    6  C   UNL     1     -12.997  12.361  70.934  1.00  0.00    -0.061 C  
HETATM    7  C   UNL     1     -12.291  11.089  71.441  1.00  0.00    -0.368 C  
HETATM    8  C   UNL     1     -13.291  10.029  71.928  1.00  0.00    -0.516 C  
HETATM    9  C   UNL     1     -11.378  10.543  70.330  1.00  0.00    -0.407 C  
BRANCH   9  10
HETATM   10  C   UNL     1     -10.651   9.277  70.773  1.00  0.00    -0.351 C  
BRANCH  10  11
HETATM   11  C   UNL     1     -10.399   8.324  69.616  1.00  0.00    -0.218 C  
HETATM   12  C   UNL     1     -10.505   6.851  70.056  1.00  0.00    -0.231 C  
HETATM   13  C   UNL     1     -10.111   5.904  68.906  1.00  0.00    -0.231 C  
HETATM   14  C   UNL     1     -11.905   6.492  70.571  1.00  0.00    -0.393 C  
BRANCH  13  15
HETATM   15  C   UNL     1      -8.685   6.094  68.376  1.00  0.00    -0.115 C  
BRANCH  15  16
HETATM   16  C   UNL     1      -8.575   5.844  66.871  1.00  0.00    -0.111 C  
BRANCH  16  17
HETATM   17  C   UNL     1      -8.241   7.105  66.114  1.00  0.00    -0.128 C  
HETATM   18  C   UNL     1      -8.149   8.274  66.778  1.00  0.00    -0.103 C  
HETATM   19  C   UNL     1      -7.972   6.962  64.646  1.00  0.00    -0.112 C  
BRANCH  18  20
HETATM   20  C   UNL     1      -7.743   9.607  66.205  1.00  0.00    -0.101 C  
BRANCH  20  21
HETATM   21  C   UNL     1      -8.809  10.659  66.438  1.00  0.00    -0.164 C  
HETATM   22  C   UNL     1      -8.868  11.467  67.518  1.00  0.00    -0.146 C  
HETATM   23  C   UNL     1      -7.926  11.429  68.692  1.00  0.00    -0.141 C  
HETATM   24  C   UNL     1      -9.910  12.530  67.626  1.00  0.00    -0.202 C  
HETATM   25  O   UNL     1      -9.994  13.235  68.623  1.00  0.00    -0.210 OA 
HETATM   26  C   UNL     1     -10.828  12.731  66.495  1.00  0.00    -0.280 A  
HETATM   27  C   UNL     1     -10.788  11.883  65.398  1.00  0.00    -0.343 A  
HETATM   28  C   UNL     1      -9.828  10.771  65.353  1.00  0.00    -0.262 C  
HETATM   29  C   UNL     1     -11.673  12.077  64.330  1.00  0.00    -0.399 A  
HETATM   30  C   UNL     1     -12.591  13.129  64.362  1.00  0.00    -0.315 A  
HETATM   31  O   UNL     1      -9.876   9.971  64.426  1.00  0.00    -0.296 OA 
HETATM   32  C   UNL     1     -12.628  13.985  65.463  1.00  0.00    -0.543 A  
HETATM   33  C   UNL     1     -11.750  13.787  66.529  1.00  0.00    -0.412 A  
ENDBRANCH  20  21
ENDBRANCH  18  20
ENDBRANCH  16  17
ENDBRANCH  15  16
ENDBRANCH  13  15
ENDBRANCH  10  11
ENDBRANCH   9  10
ENDBRANCH   5   6
ENDBRANCH   4   5
TORSDOF 9
ENDMDL
MODEL       60
REMARK 921   NORMALIZED FREE ENERGY PREDICTED BY IDOCK:   -5.91 KCAL/MOL
REMARK 922        TOTAL FREE ENERGY PREDICTED BY IDOCK:  -12.22 KCAL/MOL
REMARK 923 INTER-LIGAND FREE ENERGY PREDICTED BY IDOCK:   -7.36 KCAL/MOL
REMARK 924 INTRA-LIGAND FREE ENERGY PREDICTED BY IDOCK:   -4.86 KCAL/MOL
REMARK 927      BINDING AFFINITY PREDICTED BY RF-SCORE:    0.00 PKD
ROOT
HETATM    1  C   UNL     1     -13.324  11.834  71.848  1.00  0.00    -0.401 C  
HETATM    2  C   UNL     1     -12.298  10.753  71.516  1.00  0.00    -0.381 C  
HETATM    3  C   UNL     1     -12.956   9.372  71.592  1.00  0.00    -0.471 C  
HETATM    4  C   UNL     1     -11.671  11.040  70.138  1.00  0.00    -0.442 C  
ENDROOT
BRANCH   4   5
HETATM    5  C   UNL     1     -10.631   9.994  69.760  1.00  0.00    -0.301 C  
BRANCH   5   6
HETATM    6  C   UNL     1     -10.868   9.394  68.378  1.00  0.00    -0.156 C  
HETATM    7  C   UNL     1     -10.341   7.948  68.291  1.00  0.00    -0.239 C  
HETATM    8  C   UNL     1     -11.016   7.025  69.316  1.00  0.00    -0.211 C  
HETATM    9  C   UNL     1     -10.522   7.432  66.854  1.00  0.00    -0.379 C  
BRANCH   9  10
HETATM   10  C   UNL     1     -10.018   6.000  66.705  1.00  0.00    -0.215 C  
BRANCH  10  11
HETATM   11  C   UNL     1      -8.527   5.884  66.977  1.00  0.00    -0.107 C  
HETATM   12  C   UNL     1      -8.240   5.077  68.257  1.00  0.00    -0.089 C  
HETATM   13  C   UNL     1      -6.735   5.088  68.589  1.00  0.00    -0.050 C  
HETATM   14  C   UNL     1      -8.742   3.630  68.163  1.00  0.00    -0.130 C  
BRANCH  13  15
HETATM   15  C   UNL     1      -6.137   6.482  68.816  1.00  0.00    -0.025 C  
BRANCH  15  16
HETATM   16  C   UNL     1      -7.079   7.413  69.581  1.00  0.00    -0.072 C  
BRANCH  16  17
HETATM   17  C   UNL     1      -6.880   8.857  69.194  1.00  0.00    -0.055 C  
HETATM   18  C   UNL     1      -6.673   9.176  67.901  1.00  0.00    -0.068 C  
HETATM   19  C   UNL     1      -6.984   9.872  70.293  1.00  0.00    -0.147 C  
BRANCH  18  20
HETATM   20  C   UNL     1      -6.542  10.562  67.325  1.00  0.00    -0.072 C  
BRANCH  20  21
HETATM   21  C   UNL     1      -7.866  11.065  66.783  1.00  0.00    -0.149 C  
HETATM   22  C   UNL     1      -8.513  10.535  65.723  1.00  0.00    -0.177 C  
HETATM   23  C   UNL     1      -8.013   9.399  64.871  1.00  0.00    -0.120 C  
HETATM   24  C   UNL     1      -9.853  11.045  65.308  1.00  0.00    -0.259 C  
HETATM   25  O   UNL     1     -10.422  10.597  64.322  1.00  0.00    -0.349 OA 
HETATM   26  C   UNL     1     -10.490  12.088  66.125  1.00  0.00    -0.271 A  
HETATM   27  C   UNL     1      -9.815  12.654  67.195  1.00  0.00    -0.212 A  
HETATM   28  C   UNL     1      -8.451  12.219  67.527  1.00  0.00    -0.172 C  
HETATM   29  C   UNL     1     -10.428  13.654  67.961  1.00  0.00    -0.251 A  
HETATM   30  C   UNL     1     -11.723  14.077  67.654  1.00  0.00    -0.412 A  
HETATM   31  O   UNL     1      -7.831  12.800  68.410  1.00  0.00    -0.133 OA 
HETATM   32  C   UNL     1     -12.404  13.505  66.581  1.00  0.00    -0.351 A  
HETATM   33  C   UNL     1     -11.791  12.512  65.815  1.00  0.00    -0.494 A  
ENDBRANCH  20  21
ENDBRANCH  18  20
ENDBRANCH  16  17
ENDBRANCH  15  16
ENDBRANCH  13  15
ENDBRANCH  10  11
ENDBRANCH   9  10
ENDBRANCH   5   6
ENDBRANCH   4   5
TORSDOF 9
ENDMDL
MODEL       61
REMARK 921   NORMALIZED FREE ENERGY PREDICTED BY IDOCK:   -5.89 KCAL/MOL
REMARK 922        TOTAL FREE ENERGY PREDICTED BY IDOCK:  -12.19 KCAL/MOL
REMARK 923 INTER-LIGAND FREE ENERGY PREDICTED BY IDOCK:   -9.61 KCAL/MOL
REMARK 924 INTRA-LIGAND FREE ENERGY PREDICTED BY IDOCK:   -2.59 KCAL/MOL
REMARK 927      BINDING AFFINITY PREDICTED BY RF-SCORE:    0.00 PKD
ROOT
HETATM    1  C   UNL     1     -12.429  15.412  73.816  1.00  0.00    -0.751 C  
HETATM    2  C   UNL     1     -12.653  14.772  72.448  1.00  0.00    -0.421 C  
HETATM    3  C   UNL     1     -14.122  14.359  72.303  1.00  0.00    -0.609 C  
HETATM    4  C   UNL     1     -12.193  15.740  71.341  1.00  0.00    -0.500 C  
ENDROOT
BRANCH   4   5
HETATM    5  C   UNL     1     -12.387  15.145  69.953  1.00  0.00    -0.314 C  
BRANCH   5   6
HETATM    6  C   UNL     1     -11.297  14.146  69.578  1.00  0.00    -0.308 C  
HETATM    7  C   UNL     1     -11.695  13.310  68.347  1.00  0.00    -0.389 C  
HETATM    8  C   UNL     1     -11.958  14.189  67.114  1.00  0.00    -0.460 C  
HETATM    9  C   UNL     1     -10.603  12.262  68.075  1.00  0.00    -0.235 C  
BRANCH   9  10
HETATM   10  C   UNL     1     -10.941  11.402  66.862  1.00  0.00    -0.355 C  
BRANCH  10  11
HETATM   11  C   UNL     1      -9.915  11.547  65.750  1.00  0.00    -0.271 C  
HETATM   12  C   UNL     1     -10.447  11.014  64.407  1.00  0.00    -0.422 C  
HETATM   13  C   UNL     1      -9.347  11.042  63.328  1.00  0.00    -0.319 C  
HETATM   14  C   UNL     1     -11.679  11.786  63.916  1.00  0.00    -0.461 C  
BRANCH  13  15
HETATM   15  C   UNL     1      -8.101  10.211  63.658  1.00  0.00    -0.163 C  
BRANCH  15  16
HETATM   16  C   UNL     1      -8.213   8.762  63.182  1.00  0.00    -0.182 C  
BRANCH  16  17
HETATM   17  C   UNL     1      -7.916   7.782  64.289  1.00  0.00    -0.120 C  
HETATM   18  C   UNL     1      -8.692   7.768  65.391  1.00  0.00    -0.051 C  
HETATM   19  C   UNL     1      -6.783   6.825  64.060  1.00  0.00    -0.045 C  
BRANCH  18  20
HETATM   20  C   UNL     1      -8.598   6.808  66.548  1.00  0.00    -0.128 C  
BRANCH  20  21
HETATM   21  C   UNL     1      -9.002   7.469  67.851  1.00  0.00    -0.131 C  
HETATM   22  C   UNL     1      -8.471   8.615  68.328  1.00  0.00    -0.131 C  
HETATM   23  C   UNL     1      -7.361   9.401  67.682  1.00  0.00    -0.084 C  
HETATM   24  C   UNL     1      -8.987   9.236  69.583  1.00  0.00    -0.160 C  
HETATM   25  O   UNL     1      -8.479  10.251  70.042  1.00  0.00    -0.101 OA 
HETATM   26  C   UNL     1     -10.139   8.614  70.253  1.00  0.00    -0.206 A  
HETATM   27  C   UNL     1     -10.665   7.421  69.781  1.00  0.00    -0.252 A  
HETATM   28  C   UNL     1     -10.078   6.762  68.607  1.00  0.00    -0.159 C  
HETATM   29  C   UNL     1     -11.757   6.832  70.432  1.00  0.00    -0.418 A  
HETATM   30  C   UNL     1     -12.322   7.447  71.551  1.00  0.00    -0.385 A  
HETATM   31  O   UNL     1     -10.489   5.658  68.266  1.00  0.00    -0.198 OA 
HETATM   32  C   UNL     1     -11.796   8.649  72.022  1.00  0.00    -0.443 A  
HETATM   33  C   UNL     1     -10.705   9.233  71.376  1.00  0.00    -0.432 A  
ENDBRANCH  20  21
ENDBRANCH  18  20
ENDBRANCH  16  17
ENDBRANCH  15  16
ENDBRANCH  13  15
ENDBRANCH  10  11
ENDBRANCH   9  10
ENDBRANCH   5   6
ENDBRANCH   4   5
TORSDOF 9
ENDMDL
MODEL       62
REMARK 921   NORMALIZED FREE ENERGY PREDICTED BY IDOCK:   -5.89 KCAL/MOL
REMARK 922        TOTAL FREE ENERGY PREDICTED BY IDOCK:  -12.19 KCAL/MOL
REMARK 923 INTER-LIGAND FREE ENERGY PREDICTED BY IDOCK:   -8.20 KCAL/MOL
REMARK 924 INTRA-LIGAND FREE ENERGY PREDICTED BY IDOCK:   -3.99 KCAL/MOL
REMARK 927      BINDING AFFINITY PREDICTED BY RF-SCORE:    0.00 PKD
ROOT
HETATM    1  C   UNL     1      -9.172  20.623  67.331  1.00  0.00    -0.436 C  
HETATM    2  C   UNL     1      -8.234  19.499  66.900  1.00  0.00    -0.310 C  
HETATM    3  C   UNL     1      -7.389  19.957  65.706  1.00  0.00    -0.337 C  
HETATM    4  C   UNL     1      -7.378  19.049  68.100  1.00  0.00    -0.298 C  
ENDROOT
BRANCH   4   5
HETATM    5  C   UNL     1      -6.428  17.920  67.725  1.00  0.00    -0.192 C  
BRANCH   5   6
HETATM    6  C   UNL     1      -7.147  16.711  67.136  1.00  0.00    -0.221 C  
HETATM    7  C   UNL     1      -6.899  15.442  67.975  1.00  0.00    -0.152 C  
HETATM    8  C   UNL     1      -7.382  15.604  69.424  1.00  0.00    -0.216 C  
HETATM    9  C   UNL     1      -7.570  14.242  67.283  1.00  0.00    -0.118 C  
BRANCH   9  10
HETATM   10  C   UNL     1      -7.360  12.953  68.070  1.00  0.00    -0.120 C  
BRANCH  10  11
HETATM   11  C   UNL     1      -7.934  11.742  67.353  1.00  0.00    -0.155 C  
HETATM   12  C   UNL     1      -7.540  10.425  68.050  1.00  0.00    -0.091 C  
HETATM   13  C   UNL     1      -8.014   9.207  67.233  1.00  0.00    -0.102 C  
HETATM   14  C   UNL     1      -8.081  10.335  69.482  1.00  0.00    -0.170 C  
BRANCH  13  15
HETATM   15  C   UNL     1      -7.450   9.128  65.809  1.00  0.00    -0.090 C  
BRANCH  15  16
HETATM   16  C   UNL     1      -8.524   8.826  64.763  1.00  0.00    -0.179 C  
BRANCH  16  17
HETATM   17  C   UNL     1      -9.257  10.072  64.334  1.00  0.00    -0.316 C  
HETATM   18  C   UNL     1     -10.335  10.483  65.031  1.00  0.00    -0.310 C  
HETATM   19  C   UNL     1      -8.691  10.822  63.164  1.00  0.00    -0.169 C  
BRANCH  18  20
HETATM   20  C   UNL     1     -11.132  11.740  64.802  1.00  0.00    -0.356 C  
BRANCH  20  21
HETATM   21  C   UNL     1     -11.224  12.576  66.062  1.00  0.00    -0.354 C  
HETATM   22  C   UNL     1     -11.367  12.075  67.308  1.00  0.00    -0.394 C  
HETATM   23  C   UNL     1     -11.511  10.616  67.653  1.00  0.00    -0.169 C  
HETATM   24  C   UNL     1     -11.369  12.971  68.501  1.00  0.00    -0.288 C  
HETATM   25  O   UNL     1     -11.543  12.524  69.627  1.00  0.00    -0.283 OA 
HETATM   26  C   UNL     1     -11.136  14.409  68.300  1.00  0.00    -0.275 A  
HETATM   27  C   UNL     1     -11.020  14.929  67.020  1.00  0.00    -0.327 A  
HETATM   28  C   UNL     1     -11.129  14.050  65.847  1.00  0.00    -0.301 C  
HETATM   29  C   UNL     1     -10.807  16.302  66.839  1.00  0.00    -0.151 A  
HETATM   30  C   UNL     1     -10.704  17.148  67.945  1.00  0.00    -0.355 A  
HETATM   31  O   UNL     1     -11.126  14.541  64.724  1.00  0.00    -0.382 OA 
HETATM   32  C   UNL     1     -10.817  16.624  69.233  1.00  0.00    -0.310 A  
HETATM   33  C   UNL     1     -11.033  15.257  69.412  1.00  0.00    -0.271 A  
ENDBRANCH  20  21
ENDBRANCH  18  20
ENDBRANCH  16  17
ENDBRANCH  15  16
ENDBRANCH  13  15
ENDBRANCH  10  11
ENDBRANCH   9  10
ENDBRANCH   5   6
ENDBRANCH   4   5
TORSDOF 9
ENDMDL
MODEL       63
REMARK 921   NORMALIZED FREE ENERGY PREDICTED BY IDOCK:   -5.89 KCAL/MOL
REMARK 922        TOTAL FREE ENERGY PREDICTED BY IDOCK:  -12.19 KCAL/MOL
REMARK 923 INTER-LIGAND FREE ENERGY PREDICTED BY IDOCK:   -9.07 KCAL/MOL
REMARK 924 INTRA-LIGAND FREE ENERGY PREDICTED BY IDOCK:   -3.11 KCAL/MOL
REMARK 927      BINDING AFFINITY PREDICTED BY RF-SCORE:    0.00 PKD
ROOT
HETATM    1  C   UNL     1     -11.034   3.901  74.117  1.00  0.00    -0.165 C  
HETATM    2  C   UNL     1     -10.296   4.930  73.264  1.00  0.00    -0.233 C  
HETATM    3  C   UNL     1      -9.111   4.263  72.557  1.00  0.00    -0.136 C  
HETATM    4  C   UNL     1     -11.281   5.592  72.281  1.00  0.00    -0.281 C  
ENDROOT
BRANCH   4   5
HETATM    5  C   UNL     1     -10.596   6.635  71.410  1.00  0.00    -0.255 C  
BRANCH   5   6
HETATM    6  C   UNL     1     -11.247   6.784  70.039  1.00  0.00    -0.380 C  
HETATM    7  C   UNL     1     -10.300   6.332  68.911  1.00  0.00    -0.246 C  
HETATM    8  C   UNL     1      -9.879   4.862  69.064  1.00  0.00    -0.250 C  
HETATM    9  C   UNL     1     -10.974   6.592  67.553  1.00  0.00    -0.444 C  
BRANCH   9  10
HETATM   10  C   UNL     1     -10.081   6.161  66.393  1.00  0.00    -0.119 C  
BRANCH  10  11
HETATM   11  C   UNL     1      -9.219   7.302  65.877  1.00  0.00    -0.004 C  
HETATM   12  C   UNL     1      -7.761   7.179  66.360  1.00  0.00    -0.100 C  
HETATM   13  C   UNL     1      -6.938   8.414  65.942  1.00  0.00    -0.068 C  
HETATM   14  C   UNL     1      -7.080   5.902  65.851  1.00  0.00    -0.074 C  
BRANCH  13  15
HETATM   15  C   UNL     1      -7.461   9.750  66.485  1.00  0.00    -0.095 C  
BRANCH  15  16
HETATM   16  C   UNL     1      -7.352   9.853  68.007  1.00  0.00    -0.084 C  
BRANCH  16  17
HETATM   17  C   UNL     1      -8.706   9.962  68.662  1.00  0.00    -0.124 C  
HETATM   18  C   UNL     1      -9.783  10.272  67.914  1.00  0.00    -0.165 C  
HETATM   19  C   UNL     1      -8.775   9.655  70.129  1.00  0.00    -0.263 C  
BRANCH  18  20
HETATM   20  C   UNL     1     -11.215  10.339  68.379  1.00  0.00    -0.284 C  
BRANCH  20  21
HETATM   21  C   UNL     1     -11.557  11.710  68.927  1.00  0.00    -0.377 C  
HETATM   22  C   UNL     1     -11.425  12.866  68.242  1.00  0.00    -0.348 C  
HETATM   23  C   UNL     1     -10.871  12.999  66.849  1.00  0.00    -0.282 C  
HETATM   24  C   UNL     1     -11.862  14.164  68.835  1.00  0.00    -0.347 C  
HETATM   25  O   UNL     1     -11.703  15.218  68.235  1.00  0.00    -0.343 OA 
HETATM   26  C   UNL     1     -12.512  14.150  70.154  1.00  0.00    -0.391 A  
HETATM   27  C   UNL     1     -12.621  12.968  70.871  1.00  0.00    -0.364 A  
HETATM   28  C   UNL     1     -12.087  11.714  70.323  1.00  0.00    -0.358 C  
HETATM   29  C   UNL     1     -13.233  12.968  72.131  1.00  0.00    -0.558 A  
HETATM   30  C   UNL     1     -13.742  14.154  72.664  1.00  0.00    -0.568 A  
HETATM   31  O   UNL     1     -12.100  10.701  71.012  1.00  0.00    -0.340 OA 
HETATM   32  C   UNL     1     -13.637  15.342  71.941  1.00  0.00    -0.575 A  
HETATM   33  C   UNL     1     -13.022  15.342  70.688  1.00  0.00    -0.450 A  
ENDBRANCH  20  21
ENDBRANCH  18  20
ENDBRANCH  16  17
ENDBRANCH  15  16
ENDBRANCH  13  15
ENDBRANCH  10  11
ENDBRANCH   9  10
ENDBRANCH   5   6
ENDBRANCH   4   5
TORSDOF 9
ENDMDL
MODEL       64
REMARK 921   NORMALIZED FREE ENERGY PREDICTED BY IDOCK:   -5.88 KCAL/MOL
REMARK 922        TOTAL FREE ENERGY PREDICTED BY IDOCK:  -12.17 KCAL/MOL
REMARK 923 INTER-LIGAND FREE ENERGY PREDICTED BY IDOCK:  -10.44 KCAL/MOL
REMARK 924 INTRA-LIGAND FREE ENERGY PREDICTED BY IDOCK:   -1.73 KCAL/MOL
REMARK 927      BINDING AFFINITY PREDICTED BY RF-SCORE:    0.00 PKD
ROOT
HETATM    1  C   UNL     1     -13.637   8.349  71.871  1.00  0.00    -0.409 C  
HETATM    2  C   UNL     1     -12.249   8.026  71.323  1.00  0.00    -0.308 C  
HETATM    3  C   UNL     1     -11.177   8.621  72.243  1.00  0.00    -0.399 C  
HETATM    4  C   UNL     1     -12.103   6.503  71.144  1.00  0.00    -0.318 C  
ENDROOT
BRANCH   4   5
HETATM    5  C   UNL     1     -10.736   6.127  70.590  1.00  0.00    -0.336 C  
BRANCH   5   6
HETATM    6  C   UNL     1     -10.696   6.118  69.065  1.00  0.00    -0.377 C  
HETATM    7  C   UNL     1      -9.741   7.196  68.518  1.00  0.00    -0.143 C  
HETATM    8  C   UNL     1      -8.301   6.998  69.017  1.00  0.00    -0.126 C  
HETATM    9  C   UNL     1      -9.814   7.201  66.981  1.00  0.00    -0.257 C  
BRANCH   9  10
HETATM   10  C   UNL     1      -8.884   8.250  66.380  1.00  0.00    -0.180 C  
BRANCH  10  11
HETATM   11  C   UNL     1      -9.524   8.983  65.212  1.00  0.00    -0.093 C  
HETATM   12  C   UNL     1      -8.792  10.301  64.895  1.00  0.00    -0.213 C  
HETATM   13  C   UNL     1      -9.536  11.094  63.802  1.00  0.00    -0.258 C  
HETATM   14  C   UNL     1      -7.334  10.076  64.474  1.00  0.00    -0.142 C  
BRANCH  13  15
HETATM   15  C   UNL     1     -10.979  11.476  64.154  1.00  0.00    -0.434 C  
BRANCH  15  16
HETATM   16  C   UNL     1     -11.220  12.986  64.103  1.00  0.00    -0.439 C  
BRANCH  16  17
HETATM   17  C   UNL     1     -11.103  13.621  65.465  1.00  0.00    -0.301 C  
HETATM   18  C   UNL     1      -9.971  13.461  66.178  1.00  0.00    -0.299 C  
HETATM   19  C   UNL     1     -12.261  14.457  65.924  1.00  0.00    -0.354 C  
BRANCH  18  20
HETATM   20  C   UNL     1      -9.646  14.090  67.508  1.00  0.00    -0.228 C  
BRANCH  20  21
HETATM   21  C   UNL     1     -10.696  13.758  68.550  1.00  0.00    -0.274 C  
HETATM   22  C   UNL     1     -11.093  12.507  68.868  1.00  0.00    -0.309 C  
HETATM   23  C   UNL     1     -10.607  11.241  68.214  1.00  0.00    -0.228 C  
HETATM   24  C   UNL     1     -12.077  12.270  69.965  1.00  0.00    -0.273 C  
HETATM   25  O   UNL     1     -12.472  11.141  70.226  1.00  0.00    -0.303 OA 
HETATM   26  C   UNL     1     -12.550  13.422  70.745  1.00  0.00    -0.369 A  
HETATM   27  C   UNL     1     -12.167  14.710  70.400  1.00  0.00    -0.391 A  
HETATM   28  C   UNL     1     -11.283  14.939  69.249  1.00  0.00    -0.284 C  
HETATM   29  C   UNL     1     -12.631  15.802  71.145  1.00  0.00    -0.487 A  
HETATM   30  C   UNL     1     -13.473  15.597  72.240  1.00  0.00    -0.586 A  
HETATM   31  O   UNL     1     -11.038  16.086  68.896  1.00  0.00    -0.287 OA 
HETATM   32  C   UNL     1     -13.855  14.302  72.590  1.00  0.00    -0.489 A  
HETATM   33  C   UNL     1     -13.396  13.215  71.844  1.00  0.00    -0.546 A  
ENDBRANCH  20  21
ENDBRANCH  18  20
ENDBRANCH  16  17
ENDBRANCH  15  16
ENDBRANCH  13  15
ENDBRANCH  10  11
ENDBRANCH   9  10
ENDBRANCH   5   6
ENDBRANCH   4   5
TORSDOF 9
ENDMDL
MODEL       65
REMARK 921   NORMALIZED FREE ENERGY PREDICTED BY IDOCK:   -5.86 KCAL/MOL
REMARK 922        TOTAL FREE ENERGY PREDICTED BY IDOCK:  -12.15 KCAL/MOL
REMARK 923 INTER-LIGAND FREE ENERGY PREDICTED BY IDOCK:   -7.75 KCAL/MOL
REMARK 924 INTRA-LIGAND FREE ENERGY PREDICTED BY IDOCK:   -4.40 KCAL/MOL
REMARK 927      BINDING AFFINITY PREDICTED BY RF-SCORE:    0.00 PKD
ROOT
HETATM    1  C   UNL     1     -12.161  14.259  63.844  1.00  0.00    -0.247 C  
HETATM    2  C   UNL     1     -11.469  13.880  65.151  1.00  0.00    -0.324 C  
HETATM    3  C   UNL     1     -10.270  14.803  65.390  1.00  0.00    -0.415 C  
HETATM    4  C   UNL     1     -12.489  13.914  66.306  1.00  0.00    -0.454 C  
ENDROOT
BRANCH   4   5
HETATM    5  C   UNL     1     -11.851  13.533  67.635  1.00  0.00    -0.399 C  
BRANCH   5   6
HETATM    6  C   UNL     1     -11.850  12.028  67.882  1.00  0.00    -0.320 C  
HETATM    7  C   UNL     1     -11.309  11.686  69.284  1.00  0.00    -0.353 C  
HETATM    8  C   UNL     1     -12.143  12.336  70.399  1.00  0.00    -0.385 C  
HETATM    9  C   UNL     1     -11.244  10.157  69.440  1.00  0.00    -0.265 C  
BRANCH   9  10
HETATM   10  C   UNL     1     -10.716   9.756  70.813  1.00  0.00    -0.393 C  
BRANCH  10  11
HETATM   11  C   UNL     1     -10.823   8.259  71.056  1.00  0.00    -0.269 C  
HETATM   12  C   UNL     1     -11.796   7.934  72.205  1.00  0.00    -0.404 C  
HETATM   13  C   UNL     1     -11.785   6.427  72.526  1.00  0.00    -0.222 C  
HETATM   14  C   UNL     1     -13.229   8.393  71.909  1.00  0.00    -0.381 C  
BRANCH  13  15
HETATM   15  C   UNL     1     -10.419   5.868  72.945  1.00  0.00    -0.249 C  
BRANCH  15  16
HETATM   16  C   UNL     1      -9.979   4.678  72.091  1.00  0.00    -0.241 C  
BRANCH  16  17
HETATM   17  C   UNL     1      -9.336   5.120  70.800  1.00  0.00    -0.210 C  
HETATM   18  C   UNL     1      -8.165   5.786  70.835  1.00  0.00    -0.121 C  
HETATM   19  C   UNL     1     -10.031   4.730  69.529  1.00  0.00    -0.287 C  
BRANCH  18  20
HETATM   20  C   UNL     1      -7.341   6.224  69.653  1.00  0.00    -0.080 C  
BRANCH  20  21
HETATM   21  C   UNL     1      -7.465   7.715  69.412  1.00  0.00    -0.089 C  
HETATM   22  C   UNL     1      -6.919   8.668  70.197  1.00  0.00    -0.043 C  
HETATM   23  C   UNL     1      -6.144   8.420  71.464  1.00  0.00    -0.043 C  
HETATM   24  C   UNL     1      -7.026  10.113  69.839  1.00  0.00    -0.133 C  
HETATM   25  O   UNL     1      -6.570  10.981  70.571  1.00  0.00    -0.299 OA 
HETATM   26  C   UNL     1      -7.675  10.476  68.571  1.00  0.00    -0.104 A  
HETATM   27  C   UNL     1      -8.263   9.501  67.778  1.00  0.00    -0.114 A  
HETATM   28  C   UNL     1      -8.246   8.093  68.197  1.00  0.00    -0.129 C  
HETATM   29  C   UNL     1      -8.886   9.859  66.576  1.00  0.00    -0.154 A  
HETATM   30  C   UNL     1      -8.911  11.194  66.168  1.00  0.00    -0.205 A  
HETATM   31  O   UNL     1      -8.858   7.261  67.538  1.00  0.00    -0.120 OA 
HETATM   32  C   UNL     1      -8.316  12.173  66.963  1.00  0.00    -0.173 A  
HETATM   33  C   UNL     1      -7.699  11.817  68.163  1.00  0.00    -0.124 A  
ENDBRANCH  20  21
ENDBRANCH  18  20
ENDBRANCH  16  17
ENDBRANCH  15  16
ENDBRANCH  13  15
ENDBRANCH  10  11
ENDBRANCH   9  10
ENDBRANCH   5   6
ENDBRANCH   4   5
TORSDOF 9
ENDMDL
MODEL       66
REMARK 921   NORMALIZED FREE ENERGY PREDICTED BY IDOCK:   -5.86 KCAL/MOL
REMARK 922        TOTAL FREE ENERGY PREDICTED BY IDOCK:  -12.15 KCAL/MOL
REMARK 923 INTER-LIGAND FREE ENERGY PREDICTED BY IDOCK:   -8.68 KCAL/MOL
REMARK 924 INTRA-LIGAND FREE ENERGY PREDICTED BY IDOCK:   -3.47 KCAL/MOL
REMARK 927      BINDING AFFINITY PREDICTED BY RF-SCORE:    0.00 PKD
ROOT
HETATM    1  C   UNL     1     -12.734  13.993  65.339  1.00  0.00    -0.499 C  
HETATM    2  C   UNL     1     -12.079  12.623  65.183  1.00  0.00    -0.508 C  
HETATM    3  C   UNL     1     -12.301  12.101  63.759  1.00  0.00    -0.635 C  
HETATM    4  C   UNL     1     -10.588  12.716  65.559  1.00  0.00    -0.301 C  
ENDROOT
BRANCH   4   5
HETATM    5  C   UNL     1      -9.887  11.370  65.430  1.00  0.00    -0.277 C  
BRANCH   5   6
HETATM    6  C   UNL     1     -10.359  10.353  66.464  1.00  0.00    -0.287 C  
HETATM    7  C   UNL     1      -9.886   8.929  66.114  1.00  0.00    -0.326 C  
HETATM    8  C   UNL     1      -8.354   8.833  66.039  1.00  0.00    -0.130 C  
HETATM    9  C   UNL     1     -10.469   7.939  67.136  1.00  0.00    -0.414 C  
BRANCH   9  10
HETATM   10  C   UNL     1     -10.032   6.508  66.842  1.00  0.00    -0.227 C  
BRANCH  10  11
HETATM   11  C   UNL     1      -9.686   5.740  68.108  1.00  0.00    -0.146 C  
HETATM   12  C   UNL     1      -8.493   4.790  67.892  1.00  0.00    -0.103 C  
HETATM   13  C   UNL     1      -8.247   3.923  69.143  1.00  0.00    -0.072 C  
HETATM   14  C   UNL     1      -7.208   5.539  67.516  1.00  0.00    -0.075 C  
BRANCH  13  15
HETATM   15  C   UNL     1      -9.431   3.041  69.557  1.00  0.00    -0.173 C  
BRANCH  15  16
HETATM   16  C   UNL     1      -9.431   2.715  71.051  1.00  0.00    -0.224 C  
BRANCH  16  17
HETATM   17  C   UNL     1      -8.975   3.887  71.883  1.00  0.00    -0.153 C  
HETATM   18  C   UNL     1      -9.758   4.980  71.979  1.00  0.00    -0.214 C  
HETATM   19  C   UNL     1      -7.672   3.734  72.612  1.00  0.00    -0.069 C  
BRANCH  18  20
HETATM   20  C   UNL     1      -9.505   6.198  72.827  1.00  0.00    -0.151 C  
BRANCH  20  21
HETATM   21  C   UNL     1      -9.665   7.475  72.026  1.00  0.00    -0.195 C  
HETATM   22  C   UNL     1      -8.765   7.940  71.134  1.00  0.00    -0.146 C  
HETATM   23  C   UNL     1      -7.435   7.307  70.821  1.00  0.00    -0.079 C  
HETATM   24  C   UNL     1      -9.043   9.167  70.331  1.00  0.00    -0.233 C  
HETATM   25  O   UNL     1      -8.210   9.616  69.554  1.00  0.00    -0.109 OA 
HETATM   26  C   UNL     1     -10.352   9.819  70.475  1.00  0.00    -0.348 A  
HETATM   27  C   UNL     1     -11.266   9.361  71.412  1.00  0.00    -0.452 A  
HETATM   28  C   UNL     1     -10.936   8.217  72.275  1.00  0.00    -0.348 C  
HETATM   29  C   UNL     1     -12.508   9.995  71.548  1.00  0.00    -0.516 A  
HETATM   30  C   UNL     1     -12.832  11.084  70.736  1.00  0.00    -0.354 A  
HETATM   31  O   UNL     1     -11.712   7.891  73.165  1.00  0.00    -0.264 OA 
HETATM   32  C   UNL     1     -11.915  11.542  69.791  1.00  0.00    -0.415 A  
HETATM   33  C   UNL     1     -10.676  10.913  69.659  1.00  0.00    -0.232 A  
ENDBRANCH  20  21
ENDBRANCH  18  20
ENDBRANCH  16  17
ENDBRANCH  15  16
ENDBRANCH  13  15
ENDBRANCH  10  11
ENDBRANCH   9  10
ENDBRANCH   5   6
ENDBRANCH   4   5
TORSDOF 9
ENDMDL
MODEL       67
REMARK 921   NORMALIZED FREE ENERGY PREDICTED BY IDOCK:   -5.86 KCAL/MOL
REMARK 922        TOTAL FREE ENERGY PREDICTED BY IDOCK:  -12.14 KCAL/MOL
REMARK 923 INTER-LIGAND FREE ENERGY PREDICTED BY IDOCK:  -10.44 KCAL/MOL
REMARK 924 INTRA-LIGAND FREE ENERGY PREDICTED BY IDOCK:   -1.70 KCAL/MOL
REMARK 927      BINDING AFFINITY PREDICTED BY RF-SCORE:    0.00 PKD
ROOT
HETATM    1  C   UNL     1     -12.499  11.711  70.641  1.00  0.00    -0.386 C  
HETATM    2  C   UNL     1     -12.287  10.483  71.523  1.00  0.00    -0.443 C  
HETATM    3  C   UNL     1     -13.532   9.591  71.478  1.00  0.00    -0.444 C  
HETATM    4  C   UNL     1     -11.007   9.745  71.086  1.00  0.00    -0.386 C  
ENDROOT
BRANCH   4   5
HETATM    5  C   UNL     1     -10.744   8.514  71.942  1.00  0.00    -0.394 C  
BRANCH   5   6
HETATM    6  C   UNL     1     -11.080   7.210  71.225  1.00  0.00    -0.275 C  
HETATM    7  C   UNL     1     -10.125   6.952  70.044  1.00  0.00    -0.195 C  
HETATM    8  C   UNL     1      -8.659   6.864  70.496  1.00  0.00    -0.142 C  
HETATM    9  C   UNL     1     -10.570   5.678  69.306  1.00  0.00    -0.359 C  
BRANCH   9  10
HETATM   10  C   UNL     1      -9.657   5.368  68.123  1.00  0.00    -0.154 C  
BRANCH  10  11
HETATM   11  C   UNL     1      -9.710   6.451  67.057  1.00  0.00    -0.182 C  
HETATM   12  C   UNL     1      -8.522   6.350  66.082  1.00  0.00    -0.140 C  
HETATM   13  C   UNL     1      -8.518   7.535  65.096  1.00  0.00    -0.043 C  
HETATM   14  C   UNL     1      -8.510   5.027  65.306  1.00  0.00    -0.141 C  
BRANCH  13  15
HETATM   15  C   UNL     1      -8.422   8.918  65.752  1.00  0.00    -0.157 C  
BRANCH  15  16
HETATM   16  C   UNL     1      -9.460   9.903  65.212  1.00  0.00    -0.331 C  
BRANCH  16  17
HETATM   17  C   UNL     1     -10.067  10.739  66.310  1.00  0.00    -0.285 C  
HETATM   18  C   UNL     1     -10.568  11.956  66.018  1.00  0.00    -0.304 C  
HETATM   19  C   UNL     1     -10.125  10.124  67.676  1.00  0.00    -0.231 C  
BRANCH  18  20
HETATM   20  C   UNL     1     -11.284  12.886  66.963  1.00  0.00    -0.329 C  
BRANCH  20  21
HETATM   21  C   UNL     1     -11.029  14.338  66.611  1.00  0.00    -0.310 C  
HETATM   22  C   UNL     1     -11.334  14.906  65.424  1.00  0.00    -0.346 C  
HETATM   23  C   UNL     1     -11.926  14.191  64.238  1.00  0.00    -0.460 C  
HETATM   24  C   UNL     1     -11.120  16.365  65.193  1.00  0.00    -0.170 C  
HETATM   25  O   UNL     1     -11.354  16.873  64.104  1.00  0.00    -1.208 OA 
HETATM   26  C   UNL     1     -10.640  17.190  66.311  1.00  0.00    -0.185 A  
HETATM   27  C   UNL     1     -10.298  16.604  67.520  1.00  0.00    -0.294 A  
HETATM   28  C   UNL     1     -10.409  15.150  67.699  1.00  0.00    -0.248 C  
HETATM   29  C   UNL     1      -9.832  17.398  68.576  1.00  0.00    -0.320 A  
HETATM   30  C   UNL     1      -9.719  18.781  68.417  1.00  0.00    -0.421 A  
HETATM   31  O   UNL     1     -10.006  14.638  68.737  1.00  0.00    -0.227 OA 
HETATM   32  C   UNL     1     -10.068  19.371  67.202  1.00  0.00    -0.490 A  
HETATM   33  C   UNL     1     -10.527  18.578  66.149  1.00  0.00    -0.447 A  
ENDBRANCH  20  21
ENDBRANCH  18  20
ENDBRANCH  16  17
ENDBRANCH  15  16
ENDBRANCH  13  15
ENDBRANCH  10  11
ENDBRANCH   9  10
ENDBRANCH   5   6
ENDBRANCH   4   5
TORSDOF 9
ENDMDL
MODEL       68
REMARK 921   NORMALIZED FREE ENERGY PREDICTED BY IDOCK:   -5.82 KCAL/MOL
REMARK 922        TOTAL FREE ENERGY PREDICTED BY IDOCK:  -12.09 KCAL/MOL
REMARK 923 INTER-LIGAND FREE ENERGY PREDICTED BY IDOCK:   -9.49 KCAL/MOL
REMARK 924 INTRA-LIGAND FREE ENERGY PREDICTED BY IDOCK:   -2.60 KCAL/MOL
REMARK 927      BINDING AFFINITY PREDICTED BY RF-SCORE:    0.00 PKD
ROOT
HETATM    1  C   UNL     1      -7.319  15.165  69.402  1.00  0.00    -0.203 C  
HETATM    2  C   UNL     1      -7.430  14.396  68.087  1.00  0.00    -0.128 C  
HETATM    3  C   UNL     1      -6.038  13.943  67.633  1.00  0.00    -0.084 C  
HETATM    4  C   UNL     1      -8.416  13.224  68.253  1.00  0.00    -0.160 C  
ENDROOT
BRANCH   4   5
HETATM    5  C   UNL     1      -8.570  12.428  66.964  1.00  0.00    -0.191 C  
BRANCH   5   6
HETATM    6  C   UNL     1      -8.098  10.984  67.099  1.00  0.00    -0.134 C  
HETATM    7  C   UNL     1      -9.189  10.089  67.719  1.00  0.00    -0.143 C  
HETATM    8  C   UNL     1     -10.473  10.077  66.877  1.00  0.00    -0.284 C  
HETATM    9  C   UNL     1      -8.624   8.671  67.916  1.00  0.00    -0.137 C  
BRANCH   9  10
HETATM   10  C   UNL     1      -9.662   7.735  68.527  1.00  0.00    -0.165 C  
BRANCH  10  11
HETATM   11  C   UNL     1     -10.224   8.274  69.833  1.00  0.00    -0.201 C  
HETATM   12  C   UNL     1     -11.301   7.342  70.419  1.00  0.00    -0.299 C  
HETATM   13  C   UNL     1     -11.954   7.970  71.665  1.00  0.00    -0.336 C  
HETATM   14  C   UNL     1     -10.750   5.952  70.764  1.00  0.00    -0.344 C  
BRANCH  13  15
HETATM   15  C   UNL     1     -12.639   9.321  71.420  1.00  0.00    -0.411 C  
BRANCH  15  16
HETATM   16  C   UNL     1     -11.666  10.399  70.941  1.00  0.00    -0.455 C  
BRANCH  16  17
HETATM   17  C   UNL     1     -12.298  11.768  70.941  1.00  0.00    -0.420 C  
HETATM   18  C   UNL     1     -11.946  12.664  69.998  1.00  0.00    -0.377 C  
HETATM   19  C   UNL     1     -13.344  12.030  71.984  1.00  0.00    -0.447 C  
BRANCH  18  20
HETATM   20  C   UNL     1     -12.532  14.036  69.794  1.00  0.00    -0.255 C  
BRANCH  20  21
HETATM   21  C   UNL     1     -11.726  14.840  68.792  1.00  0.00    -0.354 C  
HETATM   22  C   UNL     1     -11.600  14.532  67.484  1.00  0.00    -0.403 C  
HETATM   23  C   UNL     1     -12.188  13.321  66.809  1.00  0.00    -0.340 C  
HETATM   24  C   UNL     1     -10.851  15.426  66.553  1.00  0.00    -0.298 C  
HETATM   25  O   UNL     1     -10.698  15.127  65.376  1.00  0.00    -0.327 OA 
HETATM   26  C   UNL     1     -10.315  16.692  67.075  1.00  0.00    -0.301 A  
HETATM   27  C   UNL     1     -10.417  16.995  68.424  1.00  0.00    -0.370 A  
HETATM   28  C   UNL     1     -11.062  16.054  69.350  1.00  0.00    -0.331 C  
HETATM   29  C   UNL     1      -9.895  18.200  68.912  1.00  0.00    -0.322 A  
HETATM   30  C   UNL     1      -9.278  19.101  68.042  1.00  0.00    -0.364 A  
HETATM   31  O   UNL     1     -11.052  16.291  70.553  1.00  0.00    -0.348 OA 
HETATM   32  C   UNL     1      -9.179  18.798  66.684  1.00  0.00    -0.333 A  
HETATM   33  C   UNL     1      -9.695  17.595  66.199  1.00  0.00    -0.228 A  
ENDBRANCH  20  21
ENDBRANCH  18  20
ENDBRANCH  16  17
ENDBRANCH  15  16
ENDBRANCH  13  15
ENDBRANCH  10  11
ENDBRANCH   9  10
ENDBRANCH   5   6
ENDBRANCH   4   5
TORSDOF 9
ENDMDL
MODEL       69
REMARK 921   NORMALIZED FREE ENERGY PREDICTED BY IDOCK:   -5.82 KCAL/MOL
REMARK 922        TOTAL FREE ENERGY PREDICTED BY IDOCK:  -12.08 KCAL/MOL
REMARK 923 INTER-LIGAND FREE ENERGY PREDICTED BY IDOCK:   -8.18 KCAL/MOL
REMARK 924 INTRA-LIGAND FREE ENERGY PREDICTED BY IDOCK:   -3.90 KCAL/MOL
REMARK 927      BINDING AFFINITY PREDICTED BY RF-SCORE:    0.00 PKD
ROOT
HETATM    1  C   UNL     1     -13.130  11.362  71.788  1.00  0.00    -0.523 C  
HETATM    2  C   UNL     1     -12.199  10.194  71.468  1.00  0.00    -0.473 C  
HETATM    3  C   UNL     1     -12.991   8.883  71.473  1.00  0.00    -0.379 C  
HETATM    4  C   UNL     1     -11.483  10.454  70.129  1.00  0.00    -0.396 C  
ENDROOT
BRANCH   4   5
HETATM    5  C   UNL     1     -10.533   9.321  69.766  1.00  0.00    -0.235 C  
BRANCH   5   6
HETATM    6  C   UNL     1     -10.803   8.741  68.382  1.00  0.00    -0.019 C  
HETATM    7  C   UNL     1     -10.495   7.232  68.331  1.00  0.00    -0.228 C  
HETATM    8  C   UNL     1     -11.341   6.437  69.337  1.00  0.00    -0.443 C  
HETATM    9  C   UNL     1     -10.696   6.725  66.893  1.00  0.00    -0.394 C  
BRANCH   9  10
HETATM   10  C   UNL     1     -10.407   5.232  66.780  1.00  0.00    -0.320 C  
BRANCH  10  11
HETATM   11  C   UNL     1      -8.918   4.928  66.833  1.00  0.00    -0.109 C  
HETATM   12  C   UNL     1      -8.482   4.449  68.230  1.00  0.00    -0.101 C  
HETATM   13  C   UNL     1      -6.952   4.280  68.301  1.00  0.00    -0.052 C  
HETATM   14  C   UNL     1      -9.171   3.142  68.644  1.00  0.00    -0.228 C  
BRANCH  13  15
HETATM   15  C   UNL     1      -6.149   5.555  68.012  1.00  0.00    -0.022 C  
BRANCH  15  16
HETATM   16  C   UNL     1      -6.765   6.799  68.653  1.00  0.00    -0.064 C  
BRANCH  16  17
HETATM   17  C   UNL     1      -6.421   8.054  67.891  1.00  0.00    -0.053 C  
HETATM   18  C   UNL     1      -7.235   8.477  66.904  1.00  0.00    -0.075 C  
HETATM   19  C   UNL     1      -5.194   8.797  68.329  1.00  0.00    -0.034 C  
BRANCH  18  20
HETATM   20  C   UNL     1      -7.097   9.744  66.101  1.00  0.00    -0.099 C  
BRANCH  20  21
HETATM   21  C   UNL     1      -8.345  10.599  66.194  1.00  0.00    -0.158 C  
HETATM   22  C   UNL     1      -8.667  11.376  67.250  1.00  0.00    -0.148 C  
HETATM   23  C   UNL     1      -7.878  11.488  68.528  1.00  0.00    -0.140 C  
HETATM   24  C   UNL     1      -9.879  12.247  67.222  1.00  0.00    -0.205 C  
HETATM   25  O   UNL     1     -10.197  12.919  68.194  1.00  0.00    -0.226 OA 
HETATM   26  C   UNL     1     -10.677  12.299  65.988  1.00  0.00    -0.296 A  
HETATM   27  C   UNL     1     -10.365  11.480  64.914  1.00  0.00    -0.340 A  
HETATM   28  C   UNL     1      -9.233  10.546  64.996  1.00  0.00    -0.206 C  
HETATM   29  C   UNL     1     -11.138  11.531  63.747  1.00  0.00    -0.471 A  
HETATM   30  C   UNL     1     -12.217  12.412  63.658  1.00  0.00    -0.653 A  
HETATM   31  O   UNL     1      -9.035   9.757  64.079  1.00  0.00    -0.218 OA 
HETATM   32  C   UNL     1     -12.528  13.240  64.736  1.00  0.00    -0.439 A  
HETATM   33  C   UNL     1     -11.761  13.185  65.901  1.00  0.00    -0.427 A  
ENDBRANCH  20  21
ENDBRANCH  18  20
ENDBRANCH  16  17
ENDBRANCH  15  16
ENDBRANCH  13  15
ENDBRANCH  10  11
ENDBRANCH   9  10
ENDBRANCH   5   6
ENDBRANCH   4   5
TORSDOF 9
ENDMDL
MODEL       70
REMARK 921   NORMALIZED FREE ENERGY PREDICTED BY IDOCK:   -5.81 KCAL/MOL
REMARK 922        TOTAL FREE ENERGY PREDICTED BY IDOCK:  -12.06 KCAL/MOL
REMARK 923 INTER-LIGAND FREE ENERGY PREDICTED BY IDOCK:   -7.94 KCAL/MOL
REMARK 924 INTRA-LIGAND FREE ENERGY PREDICTED BY IDOCK:   -4.12 KCAL/MOL
REMARK 927      BINDING AFFINITY PREDICTED BY RF-SCORE:    0.00 PKD
ROOT
HETATM    1  C   UNL     1     -12.618   6.226  71.942  1.00  0.00    -0.028 C  
HETATM    2  C   UNL     1     -11.279   6.484  71.256  1.00  0.00    -0.338 C  
HETATM    3  C   UNL     1     -11.409   6.223  69.751  1.00  0.00    -0.506 C  
HETATM    4  C   UNL     1     -10.800   7.914  71.574  1.00  0.00    -0.268 C  
ENDROOT
BRANCH   4   5
HETATM    5  C   UNL     1      -9.460   8.221  70.919  1.00  0.00    -0.192 C  
BRANCH   5   6
HETATM    6  C   UNL     1      -9.272   9.705  70.623  1.00  0.00    -0.148 C  
HETATM    7  C   UNL     1      -8.842   9.940  69.162  1.00  0.00    -0.165 C  
HETATM    8  C   UNL     1      -9.876   9.399  68.163  1.00  0.00    -0.183 C  
HETATM    9  C   UNL     1      -8.577  11.440  68.951  1.00  0.00    -0.020 C  
BRANCH   9  10
HETATM   10  C   UNL     1      -8.148  11.736  67.517  1.00  0.00    -0.152 C  
BRANCH  10  11
HETATM   11  C   UNL     1      -7.566  13.133  67.367  1.00  0.00    -0.137 C  
HETATM   12  C   UNL     1      -6.183  13.250  68.035  1.00  0.00    -0.129 C  
HETATM   13  C   UNL     1      -5.673  14.704  67.993  1.00  0.00    -0.145 C  
HETATM   14  C   UNL     1      -5.145  12.315  67.402  1.00  0.00    -0.095 C  
BRANCH  13  15
HETATM   15  C   UNL     1      -6.579  15.724  68.695  1.00  0.00    -0.116 C  
BRANCH  15  16
HETATM   16  C   UNL     1      -7.033  16.849  67.764  1.00  0.00    -0.156 C  
BRANCH  16  17
HETATM   17  C   UNL     1      -8.504  16.755  67.444  1.00  0.00    -0.203 C  
HETATM   18  C   UNL     1      -9.374  16.402  68.410  1.00  0.00    -0.217 C  
HETATM   19  C   UNL     1      -8.918  17.125  66.050  1.00  0.00    -0.141 C  
BRANCH  18  20
HETATM   20  C   UNL     1     -10.874  16.341  68.295  1.00  0.00    -0.340 C  
BRANCH  20  21
HETATM   21  C   UNL     1     -11.392  14.934  68.520  1.00  0.00    -0.314 C  
HETATM   22  C   UNL     1     -11.382  13.955  67.591  1.00  0.00    -0.335 C  
HETATM   23  C   UNL     1     -10.909  14.100  66.169  1.00  0.00    -0.296 C  
HETATM   24  C   UNL     1     -11.840  12.574  67.926  1.00  0.00    -0.323 C  
HETATM   25  O   UNL     1     -11.874  11.695  67.075  1.00  0.00    -0.591 OA 
HETATM   26  C   UNL     1     -12.233  12.282  69.313  1.00  0.00    -0.097 A  
HETATM   27  C   UNL     1     -12.272  13.294  70.260  1.00  0.00    -0.391 A  
HETATM   28  C   UNL     1     -11.923  14.673  69.890  1.00  0.00    -0.329 C  
HETATM   29  C   UNL     1     -12.656  13.006  71.576  1.00  0.00    -0.279 A  
HETATM   30  C   UNL     1     -12.993  11.701  71.940  1.00  0.00    -0.442 A  
HETATM   31  O   UNL     1     -12.062  15.571  70.712  1.00  0.00    -0.327 OA 
HETATM   32  C   UNL     1     -12.949  10.682  70.988  1.00  0.00    -0.456 A  
HETATM   33  C   UNL     1     -12.570  10.970  69.676  1.00  0.00    -0.084 A  
ENDBRANCH  20  21
ENDBRANCH  18  20
ENDBRANCH  16  17
ENDBRANCH  15  16
ENDBRANCH  13  15
ENDBRANCH  10  11
ENDBRANCH   9  10
ENDBRANCH   5   6
ENDBRANCH   4   5
TORSDOF 9
ENDMDL
MODEL       71
REMARK 921   NORMALIZED FREE ENERGY PREDICTED BY IDOCK:   -5.80 KCAL/MOL
REMARK 922        TOTAL FREE ENERGY PREDICTED BY IDOCK:  -12.06 KCAL/MOL
REMARK 923 INTER-LIGAND FREE ENERGY PREDICTED BY IDOCK:  -10.55 KCAL/MOL
REMARK 924 INTRA-LIGAND FREE ENERGY PREDICTED BY IDOCK:   -1.51 KCAL/MOL
REMARK 927      BINDING AFFINITY PREDICTED BY RF-SCORE:    0.00 PKD
ROOT
HETATM    1  C   UNL     1      -5.582   7.407  74.343  1.00  0.00    -0.066 C  
HETATM    2  C   UNL     1      -6.619   6.921  73.333  1.00  0.00    -0.067 C  
HETATM    3  C   UNL     1      -6.494   7.724  72.034  1.00  0.00    -0.044 C  
HETATM    4  C   UNL     1      -6.458   5.404  73.115  1.00  0.00    -0.065 C  
ENDROOT
BRANCH   4   5
HETATM    5  C   UNL     1      -7.477   4.864  72.120  1.00  0.00    -0.088 C  
BRANCH   5   6
HETATM    6  C   UNL     1      -8.898   4.856  72.673  1.00  0.00    -0.125 C  
HETATM    7  C   UNL     1      -9.834   5.755  71.842  1.00  0.00    -0.195 C  
HETATM    8  C   UNL     1      -9.908   5.309  70.373  1.00  0.00    -0.281 C  
HETATM    9  C   UNL     1     -11.224   5.780  72.500  1.00  0.00    -0.347 C  
BRANCH   9  10
HETATM   10  C   UNL     1     -12.198   6.655  71.718  1.00  0.00    -0.400 C  
BRANCH  10  11
HETATM   11  C   UNL     1     -11.920   8.137  71.909  1.00  0.00    -0.367 C  
HETATM   12  C   UNL     1     -13.166   8.995  71.620  1.00  0.00    -0.427 C  
HETATM   13  C   UNL     1     -12.828  10.497  71.684  1.00  0.00    -0.581 C  
HETATM   14  C   UNL     1     -14.328   8.681  72.572  1.00  0.00    -0.347 C  
BRANCH  13  15
HETATM   15  C   UNL     1     -11.749  10.957  70.695  1.00  0.00    -0.418 C  
BRANCH  15  16
HETATM   16  C   UNL     1     -12.080  12.299  70.041  1.00  0.00    -0.346 C  
BRANCH  16  17
HETATM   17  C   UNL     1     -11.342  12.488  68.740  1.00  0.00    -0.337 C  
HETATM   18  C   UNL     1     -10.413  13.459  68.637  1.00  0.00    -0.237 C  
HETATM   19  C   UNL     1     -11.660  11.524  67.635  1.00  0.00    -0.320 C  
BRANCH  18  20
HETATM   20  C   UNL     1      -9.524  13.735  67.453  1.00  0.00    -0.224 C  
BRANCH  20  21
HETATM   21  C   UNL     1      -9.755  15.127  66.898  1.00  0.00    -0.248 C  
HETATM   22  C   UNL     1     -10.433  15.398  65.763  1.00  0.00    -0.371 C  
HETATM   23  C   UNL     1     -11.028  14.375  64.832  1.00  0.00    -0.416 C  
HETATM   24  C   UNL     1     -10.680  16.806  65.334  1.00  0.00    -0.189 C  
HETATM   25  O   UNL     1     -11.256  17.055  64.283  1.00  0.00    -1.186 OA 
HETATM   26  C   UNL     1     -10.234  17.897  66.213  1.00  0.00    -0.363 A  
HETATM   27  C   UNL     1      -9.511  17.620  67.364  1.00  0.00    -0.256 A  
HETATM   28  C   UNL     1      -9.180  16.233  67.718  1.00  0.00    -0.203 C  
HETATM   29  C   UNL     1      -9.083  18.667  68.190  1.00  0.00    -0.337 A  
HETATM   30  C   UNL     1      -9.389  19.990  67.863  1.00  0.00    -0.438 A  
HETATM   31  O   UNL     1      -8.454  16.014  68.681  1.00  0.00    -0.185 OA 
HETATM   32  C   UNL     1     -10.120  20.268  66.709  1.00  0.00    -0.556 A  
HETATM   33  C   UNL     1     -10.543  19.224  65.883  1.00  0.00    -0.521 A  
ENDBRANCH  20  21
ENDBRANCH  18  20
ENDBRANCH  16  17
ENDBRANCH  15  16
ENDBRANCH  13  15
ENDBRANCH  10  11
ENDBRANCH   9  10
ENDBRANCH   5   6
ENDBRANCH   4   5
TORSDOF 9
ENDMDL
MODEL       72
REMARK 921   NORMALIZED FREE ENERGY PREDICTED BY IDOCK:   -5.78 KCAL/MOL
REMARK 922        TOTAL FREE ENERGY PREDICTED BY IDOCK:  -12.02 KCAL/MOL
REMARK 923 INTER-LIGAND FREE ENERGY PREDICTED BY IDOCK:   -7.73 KCAL/MOL
REMARK 924 INTRA-LIGAND FREE ENERGY PREDICTED BY IDOCK:   -4.29 KCAL/MOL
REMARK 927      BINDING AFFINITY PREDICTED BY RF-SCORE:    0.00 PKD
ROOT
HETATM    1  C   UNL     1     -12.775  13.782  65.463  1.00  0.00    -0.530 C  
HETATM    2  C   UNL     1     -11.734  13.065  64.607  1.00  0.00    -0.408 C  
HETATM    3  C   UNL     1     -10.460  13.913  64.521  1.00  0.00    -0.334 C  
HETATM    4  C   UNL     1     -11.477  11.656  65.175  1.00  0.00    -0.180 C  
ENDROOT
BRANCH   4   5
HETATM    5  C   UNL     1     -10.449  10.893  64.350  1.00  0.00    -0.403 C  
BRANCH   5   6
HETATM    6  C   UNL     1      -9.248  10.437  65.172  1.00  0.00    -0.250 C  
HETATM    7  C   UNL     1      -8.775   9.032  64.752  1.00  0.00    -0.187 C  
HETATM    8  C   UNL     1      -8.367   8.979  63.272  1.00  0.00    -0.189 C  
HETATM    9  C   UNL     1      -7.627   8.591  65.676  1.00  0.00    -0.090 C  
BRANCH   9  10
HETATM   10  C   UNL     1      -7.114   7.203  65.306  1.00  0.00    -0.060 C  
BRANCH  10  11
HETATM   11  C   UNL     1      -7.804   6.104  66.098  1.00  0.00    -0.105 C  
HETATM   12  C   UNL     1      -9.035   5.551  65.355  1.00  0.00    -0.106 C  
HETATM   13  C   UNL     1      -9.799   4.539  66.231  1.00  0.00    -0.244 C  
HETATM   14  C   UNL     1      -8.667   4.904  64.013  1.00  0.00    -0.119 C  
BRANCH  13  15
HETATM   15  C   UNL     1     -10.316   5.102  67.561  1.00  0.00    -0.190 C  
BRANCH  15  16
HETATM   16  C   UNL     1     -10.882   6.516  67.425  1.00  0.00    -0.449 C  
BRANCH  16  17
HETATM   17  C   UNL     1     -10.522   7.383  68.605  1.00  0.00    -0.211 C  
HETATM   18  C   UNL     1      -9.825   8.520  68.408  1.00  0.00    -0.189 C  
HETATM   19  C   UNL     1     -11.024   6.941  69.948  1.00  0.00    -0.318 C  
BRANCH  18  20
HETATM   20  C   UNL     1      -9.456   9.543  69.449  1.00  0.00    -0.182 C  
BRANCH  20  21
HETATM   21  C   UNL     1      -9.813  10.946  68.999  1.00  0.00    -0.196 C  
HETATM   22  C   UNL     1     -11.014  11.532  69.192  1.00  0.00    -0.276 C  
HETATM   23  C   UNL     1     -12.212  10.883  69.834  1.00  0.00    -0.408 C  
HETATM   24  C   UNL     1     -11.252  12.948  68.786  1.00  0.00    -0.279 C  
HETATM   25  O   UNL     1     -12.352  13.468  68.919  1.00  0.00    -0.248 OA 
HETATM   26  C   UNL     1     -10.127  13.720  68.238  1.00  0.00    -0.239 A  
HETATM   27  C   UNL     1      -8.901  13.111  68.011  1.00  0.00    -0.191 A  
HETATM   28  C   UNL     1      -8.712  11.685  68.314  1.00  0.00    -0.163 C  
HETATM   29  C   UNL     1      -7.839  13.853  67.480  1.00  0.00    -0.193 A  
HETATM   30  C   UNL     1      -8.007  15.207  67.185  1.00  0.00    -0.248 A  
HETATM   31  O   UNL     1      -7.657  11.140  68.012  1.00  0.00    -0.094 OA 
HETATM   32  C   UNL     1      -9.237  15.821  67.417  1.00  0.00    -0.208 A  
HETATM   33  C   UNL     1     -10.297  15.080  67.942  1.00  0.00    -0.241 A  
ENDBRANCH  20  21
ENDBRANCH  18  20
ENDBRANCH  16  17
ENDBRANCH  15  16
ENDBRANCH  13  15
ENDBRANCH  10  11
ENDBRANCH   9  10
ENDBRANCH   5   6
ENDBRANCH   4   5
TORSDOF 9
ENDMDL
MODEL       73
REMARK 921   NORMALIZED FREE ENERGY PREDICTED BY IDOCK:   -5.76 KCAL/MOL
REMARK 922        TOTAL FREE ENERGY PREDICTED BY IDOCK:  -11.99 KCAL/MOL
REMARK 923 INTER-LIGAND FREE ENERGY PREDICTED BY IDOCK:   -9.28 KCAL/MOL
REMARK 924 INTRA-LIGAND FREE ENERGY PREDICTED BY IDOCK:   -2.71 KCAL/MOL
REMARK 927      BINDING AFFINITY PREDICTED BY RF-SCORE:    0.00 PKD
ROOT
HETATM    1  C   UNL     1     -14.277  15.231  72.132  1.00  0.00    -0.667 C  
HETATM    2  C   UNL     1     -13.097  15.322  71.168  1.00  0.00    -0.546 C  
HETATM    3  C   UNL     1     -11.907  15.990  71.866  1.00  0.00    -0.619 C  
HETATM    4  C   UNL     1     -12.760  13.920  70.626  1.00  0.00    -0.351 C  
ENDROOT
BRANCH   4   5
HETATM    5  C   UNL     1     -11.592  13.956  69.650  1.00  0.00    -0.347 C  
BRANCH   5   6
HETATM    6  C   UNL     1     -12.037  13.913  68.191  1.00  0.00    -0.317 C  
HETATM    7  C   UNL     1     -11.406  12.723  67.443  1.00  0.00    -0.363 C  
HETATM    8  C   UNL     1     -11.784  11.376  68.079  1.00  0.00    -0.324 C  
HETATM    9  C   UNL     1     -11.815  12.787  65.961  1.00  0.00    -0.495 C  
BRANCH   9  10
HETATM   10  C   UNL     1     -11.221  11.628  65.166  1.00  0.00    -0.262 C  
BRANCH  10  11
HETATM   11  C   UNL     1      -9.704  11.591  65.251  1.00  0.00    -0.268 C  
HETATM   12  C   UNL     1      -9.117  10.397  64.474  1.00  0.00    -0.263 C  
HETATM   13  C   UNL     1      -7.594  10.298  64.686  1.00  0.00    -0.103 C  
HETATM   14  C   UNL     1      -9.432  10.461  62.974  1.00  0.00    -0.362 C  
BRANCH  13  15
HETATM   15  C   UNL     1      -7.157  10.120  66.146  1.00  0.00    -0.114 C  
BRANCH  15  16
HETATM   16  C   UNL     1      -6.465  11.360  66.711  1.00  0.00    -0.140 C  
BRANCH  16  17
HETATM   17  C   UNL     1      -7.305  12.045  67.760  1.00  0.00    -0.113 C  
HETATM   18  C   UNL     1      -7.533  13.370  67.669  1.00  0.00    -0.182 C  
HETATM   19  C   UNL     1      -7.891  11.174  68.832  1.00  0.00    -0.131 C  
BRANCH  18  20
HETATM   20  C   UNL     1      -8.412  14.198  68.569  1.00  0.00    -0.157 C  
BRANCH  20  21
HETATM   21  C   UNL     1      -7.957  15.643  68.612  1.00  0.00    -0.152 C  
HETATM   22  C   UNL     1      -6.952  16.110  69.383  1.00  0.00    -0.220 C  
HETATM   23  C   UNL     1      -6.150  15.296  70.363  1.00  0.00    -0.071 C  
HETATM   24  C   UNL     1      -6.520  17.537  69.301  1.00  0.00    -0.243 C  
HETATM   25  O   UNL     1      -5.639  17.973  70.029  1.00  0.00    -0.221 OA 
HETATM   26  C   UNL     1      -7.163  18.408  68.306  1.00  0.00    -0.274 A  
HETATM   27  C   UNL     1      -8.215  17.939  67.535  1.00  0.00    -0.228 A  
HETATM   28  C   UNL     1      -8.703  16.563  67.703  1.00  0.00    -0.190 C  
HETATM   29  C   UNL     1      -8.826  18.781  66.597  1.00  0.00    -0.315 A  
HETATM   30  C   UNL     1      -8.373  20.091  66.430  1.00  0.00    -0.338 A  
HETATM   31  O   UNL     1      -9.699  16.197  67.088  1.00  0.00    -0.228 OA 
HETATM   32  C   UNL     1      -7.311  20.562  67.202  1.00  0.00    -0.374 A  
HETATM   33  C   UNL     1      -6.706  19.724  68.140  1.00  0.00    -0.308 A  
ENDBRANCH  20  21
ENDBRANCH  18  20
ENDBRANCH  16  17
ENDBRANCH  15  16
ENDBRANCH  13  15
ENDBRANCH  10  11
ENDBRANCH   9  10
ENDBRANCH   5   6
ENDBRANCH   4   5
TORSDOF 9
ENDMDL
MODEL       74
REMARK 921   NORMALIZED FREE ENERGY PREDICTED BY IDOCK:   -5.75 KCAL/MOL
REMARK 922        TOTAL FREE ENERGY PREDICTED BY IDOCK:  -11.98 KCAL/MOL
REMARK 923 INTER-LIGAND FREE ENERGY PREDICTED BY IDOCK:  -10.65 KCAL/MOL
REMARK 924 INTRA-LIGAND FREE ENERGY PREDICTED BY IDOCK:   -1.33 KCAL/MOL
REMARK 927      BINDING AFFINITY PREDICTED BY RF-SCORE:    0.00 PKD
ROOT
HETATM    1  C   UNL     1      -9.338   2.722  67.058  1.00  0.00    -0.106 C  
HETATM    2  C   UNL     1      -9.091   2.396  68.529  1.00  0.00    -0.207 C  
HETATM    3  C   UNL     1      -7.691   1.798  68.700  1.00  0.00    -0.046 C  
HETATM    4  C   UNL     1      -9.310   3.658  69.385  1.00  0.00    -0.246 C  
ENDROOT
BRANCH   4   5
HETATM    5  C   UNL     1      -9.085   3.384  70.865  1.00  0.00    -0.184 C  
BRANCH   5   6
HETATM    6  C   UNL     1      -8.806   4.652  71.667  1.00  0.00    -0.147 C  
HETATM    7  C   UNL     1     -10.098   5.451  71.928  1.00  0.00    -0.246 C  
HETATM    8  C   UNL     1     -11.136   4.631  72.709  1.00  0.00    -0.213 C  
HETATM    9  C   UNL     1      -9.742   6.759  72.655  1.00  0.00    -0.164 C  
BRANCH   9  10
HETATM   10  C   UNL     1     -10.984   7.595  72.944  1.00  0.00    -0.456 C  
BRANCH  10  11
HETATM   11  C   UNL     1     -10.971   8.921  72.201  1.00  0.00    -0.349 C  
HETATM   12  C   UNL     1     -12.298   9.176  71.463  1.00  0.00    -0.421 C  
HETATM   13  C   UNL     1     -12.215  10.455  70.606  1.00  0.00    -0.441 C  
HETATM   14  C   UNL     1     -13.493   9.268  72.420  1.00  0.00    -0.526 C  
BRANCH  13  15
HETATM   15  C   UNL     1     -11.120  10.439  69.532  1.00  0.00    -0.314 C  
BRANCH  15  16
HETATM   16  C   UNL     1     -11.599  10.998  68.191  1.00  0.00    -0.345 C  
BRANCH  16  17
HETATM   17  C   UNL     1     -10.482  11.660  67.426  1.00  0.00    -0.239 C  
HETATM   18  C   UNL     1     -10.037  12.872  67.814  1.00  0.00    -0.229 C  
HETATM   19  C   UNL     1      -9.887  10.884  66.289  1.00  0.00    -0.261 C  
BRANCH  18  20
HETATM   20  C   UNL     1      -8.881  13.639  67.226  1.00  0.00    -0.227 C  
BRANCH  20  21
HETATM   21  C   UNL     1      -9.309  15.017  66.762  1.00  0.00    -0.271 C  
HETATM   22  C   UNL     1     -10.076  15.259  65.678  1.00  0.00    -0.401 C  
HETATM   23  C   UNL     1     -10.594  14.218  64.722  1.00  0.00    -0.434 C  
HETATM   24  C   UNL     1     -10.515  16.645  65.341  1.00  0.00    -0.233 C  
HETATM   25  O   UNL     1     -11.174  16.873  64.336  1.00  0.00    -1.159 OA 
HETATM   26  C   UNL     1     -10.156  17.737  66.258  1.00  0.00    -0.345 A  
HETATM   27  C   UNL     1      -9.342  17.495  67.355  1.00  0.00    -0.249 A  
HETATM   28  C   UNL     1      -8.827  16.144  67.614  1.00  0.00    -0.186 C  
HETATM   29  C   UNL     1      -8.998  18.545  68.217  1.00  0.00    -0.332 A  
HETATM   30  C   UNL     1      -9.480  19.834  67.979  1.00  0.00    -0.466 A  
HETATM   31  O   UNL     1      -8.028  15.968  68.527  1.00  0.00    -0.145 OA 
HETATM   32  C   UNL     1     -10.302  20.076  66.879  1.00  0.00    -0.567 A  
HETATM   33  C   UNL     1     -10.640  19.031  66.018  1.00  0.00    -0.499 A  
ENDBRANCH  20  21
ENDBRANCH  18  20
ENDBRANCH  16  17
ENDBRANCH  15  16
ENDBRANCH  13  15
ENDBRANCH  10  11
ENDBRANCH   9  10
ENDBRANCH   5   6
ENDBRANCH   4   5
TORSDOF 9
ENDMDL
MODEL       75
REMARK 921   NORMALIZED FREE ENERGY PREDICTED BY IDOCK:   -5.72 KCAL/MOL
REMARK 922        TOTAL FREE ENERGY PREDICTED BY IDOCK:  -11.93 KCAL/MOL
REMARK 923 INTER-LIGAND FREE ENERGY PREDICTED BY IDOCK:   -8.95 KCAL/MOL
REMARK 924 INTRA-LIGAND FREE ENERGY PREDICTED BY IDOCK:   -2.99 KCAL/MOL
REMARK 927      BINDING AFFINITY PREDICTED BY RF-SCORE:    0.00 PKD
ROOT
HETATM    1  C   UNL     1     -10.992   7.580  73.018  1.00  0.00    -0.443 C  
HETATM    2  C   UNL     1     -11.501   6.648  71.921  1.00  0.00    -0.332 C  
HETATM    3  C   UNL     1     -12.859   7.142  71.410  1.00  0.00    -0.431 C  
HETATM    4  C   UNL     1     -10.447   6.538  70.803  1.00  0.00    -0.262 C  
ENDROOT
BRANCH   4   5
HETATM    5  C   UNL     1     -10.902   5.610  69.685  1.00  0.00    -0.365 C  
BRANCH   5   6
HETATM    6  C   UNL     1     -11.127   6.339  68.364  1.00  0.00    -0.371 C  
HETATM    7  C   UNL     1      -9.794   6.765  67.719  1.00  0.00    -0.148 C  
HETATM    8  C   UNL     1      -8.882   5.562  67.432  1.00  0.00    -0.105 C  
HETATM    9  C   UNL     1     -10.087   7.574  66.444  1.00  0.00    -0.082 C  
BRANCH   9  10
HETATM   10  C   UNL     1      -8.802   8.023  65.758  1.00  0.00    -0.170 C  
BRANCH  10  11
HETATM   11  C   UNL     1      -8.119   9.159  66.502  1.00  0.00    -0.107 C  
HETATM   12  C   UNL     1      -7.143   8.636  67.573  1.00  0.00    -0.080 C  
HETATM   13  C   UNL     1      -6.567   9.797  68.407  1.00  0.00    -0.056 C  
HETATM   14  C   UNL     1      -5.999   7.809  66.971  1.00  0.00    -0.051 C  
BRANCH  13  15
HETATM   15  C   UNL     1      -7.613  10.636  69.151  1.00  0.00    -0.131 C  
BRANCH  15  16
HETATM   16  C   UNL     1      -8.769   9.795  69.694  1.00  0.00    -0.211 C  
BRANCH  16  17
HETATM   17  C   UNL     1     -10.098  10.486  69.522  1.00  0.00    -0.208 C  
HETATM   18  C   UNL     1     -10.289  11.309  68.472  1.00  0.00    -0.217 C  
HETATM   19  C   UNL     1     -11.165  10.161  70.526  1.00  0.00    -0.411 C  
BRANCH  18  20
HETATM   20  C   UNL     1     -11.568  12.010  68.097  1.00  0.00    -0.403 C  
BRANCH  20  21
HETATM   21  C   UNL     1     -11.464  13.507  68.312  1.00  0.00    -0.345 C  
HETATM   22  C   UNL     1     -11.730  14.135  69.476  1.00  0.00    -0.364 C  
HETATM   23  C   UNL     1     -12.220  13.474  70.737  1.00  0.00    -0.417 C  
HETATM   24  C   UNL     1     -11.523  15.607  69.619  1.00  0.00    -0.340 C  
HETATM   25  O   UNL     1     -11.804  16.186  70.660  1.00  0.00    -0.348 OA 
HETATM   26  C   UNL     1     -10.952  16.349  68.486  1.00  0.00    -0.350 A  
HETATM   27  C   UNL     1     -10.707  15.710  67.280  1.00  0.00    -0.305 A  
HETATM   28  C   UNL     1     -11.018  14.283  67.118  1.00  0.00    -0.302 C  
HETATM   29  C   UNL     1     -10.171  16.429  66.203  1.00  0.00    -0.363 A  
HETATM   30  C   UNL     1      -9.874  17.786  66.344  1.00  0.00    -0.328 A  
HETATM   31  O   UNL     1     -10.892  13.760  66.016  1.00  0.00    -0.281 OA 
HETATM   32  C   UNL     1     -10.116  18.427  67.558  1.00  0.00    -0.373 A  
HETATM   33  C   UNL     1     -10.655  17.712  68.629  1.00  0.00    -0.245 A  
ENDBRANCH  20  21
ENDBRANCH  18  20
ENDBRANCH  16  17
ENDBRANCH  15  16
ENDBRANCH  13  15
ENDBRANCH  10  11
ENDBRANCH   9  10
ENDBRANCH   5   6
ENDBRANCH   4   5
TORSDOF 9
ENDMDL
MODEL       76
REMARK 921   NORMALIZED FREE ENERGY PREDICTED BY IDOCK:   -5.72 KCAL/MOL
REMARK 922        TOTAL FREE ENERGY PREDICTED BY IDOCK:  -11.92 KCAL/MOL
REMARK 923 INTER-LIGAND FREE ENERGY PREDICTED BY IDOCK:   -7.50 KCAL/MOL
REMARK 924 INTRA-LIGAND FREE ENERGY PREDICTED BY IDOCK:   -4.42 KCAL/MOL
REMARK 927      BINDING AFFINITY PREDICTED BY RF-SCORE:    0.00 PKD
ROOT
HETATM    1  C   UNL     1     -11.106  15.911  67.737  1.00  0.00    -0.288 C  
HETATM    2  C   UNL     1     -10.082  14.904  67.218  1.00  0.00    -0.235 C  
HETATM    3  C   UNL     1      -9.998  14.990  65.691  1.00  0.00    -0.387 C  
HETATM    4  C   UNL     1      -8.724  15.146  67.905  1.00  0.00    -0.157 C  
ENDROOT
BRANCH   4   5
HETATM    5  C   UNL     1      -7.666  14.160  67.429  1.00  0.00    -0.189 C  
BRANCH   5   6
HETATM    6  C   UNL     1      -7.040  13.365  68.570  1.00  0.00    -0.108 C  
HETATM    7  C   UNL     1      -7.550  11.912  68.593  1.00  0.00    -0.119 C  
HETATM    8  C   UNL     1      -7.233  11.168  67.286  1.00  0.00    -0.113 C  
HETATM    9  C   UNL     1      -6.959  11.189  69.816  1.00  0.00    -0.053 C  
BRANCH   9  10
HETATM   10  C   UNL     1      -7.428   9.740  69.891  1.00  0.00    -0.142 C  
BRANCH  10  11
HETATM   11  C   UNL     1      -7.042   9.078  71.205  1.00  0.00    -0.107 C  
HETATM   12  C   UNL     1      -7.547   7.625  71.282  1.00  0.00    -0.080 C  
HETATM   13  C   UNL     1      -7.267   7.019  72.671  1.00  0.00    -0.073 C  
HETATM   14  C   UNL     1      -6.937   6.734  70.192  1.00  0.00    -0.066 C  
BRANCH  13  15
HETATM   15  C   UNL     1      -7.920   7.765  73.842  1.00  0.00    -0.226 C  
BRANCH  15  16
HETATM   16  C   UNL     1      -9.052   6.969  74.493  1.00  0.00    -0.219 C  
BRANCH  16  17
HETATM   17  C   UNL     1     -10.230   6.805  73.567  1.00  0.00    -0.320 C  
HETATM   18  C   UNL     1     -10.685   7.869  72.875  1.00  0.00    -0.440 C  
HETATM   19  C   UNL     1     -10.797   5.423  73.430  1.00  0.00    -0.347 C  
BRANCH  18  20
HETATM   20  C   UNL     1     -11.787   7.872  71.848  1.00  0.00    -0.345 C  
BRANCH  20  21
HETATM   21  C   UNL     1     -11.251   8.172  70.461  1.00  0.00    -0.249 C  
HETATM   22  C   UNL     1     -10.730   7.250  69.624  1.00  0.00    -0.249 C  
HETATM   23  C   UNL     1     -10.543   5.789  69.937  1.00  0.00    -0.388 C  
HETATM   24  C   UNL     1     -10.299   7.622  68.244  1.00  0.00    -0.198 C  
HETATM   25  O   UNL     1      -9.785   6.799  67.499  1.00  0.00    -0.124 OA 
HETATM   26  C   UNL     1     -10.524   9.001  67.787  1.00  0.00    -0.305 A  
HETATM   27  C   UNL     1     -11.031   9.956  68.655  1.00  0.00    -0.222 A  
HETATM   28  C   UNL     1     -11.349   9.602  70.045  1.00  0.00    -0.195 C  
HETATM   29  C   UNL     1     -11.233  11.269  68.211  1.00  0.00    -0.331 A  
HETATM   30  C   UNL     1     -10.932  11.618  66.893  1.00  0.00    -0.342 A  
HETATM   31  O   UNL     1     -11.699  10.479  70.826  1.00  0.00    -0.326 OA 
HETATM   32  C   UNL     1     -10.427  10.657  66.018  1.00  0.00    -0.250 A  
HETATM   33  C   UNL     1     -10.221   9.350  66.462  1.00  0.00    -0.308 A  
ENDBRANCH  20  21
ENDBRANCH  18  20
ENDBRANCH  16  17
ENDBRANCH  15  16
ENDBRANCH  13  15
ENDBRANCH  10  11
ENDBRANCH   9  10
ENDBRANCH   5   6
ENDBRANCH   4   5
TORSDOF 9
ENDMDL
MODEL       77
REMARK 921   NORMALIZED FREE ENERGY PREDICTED BY IDOCK:   -5.70 KCAL/MOL
REMARK 922        TOTAL FREE ENERGY PREDICTED BY IDOCK:  -11.90 KCAL/MOL
REMARK 923 INTER-LIGAND FREE ENERGY PREDICTED BY IDOCK:   -9.93 KCAL/MOL
REMARK 924 INTRA-LIGAND FREE ENERGY PREDICTED BY IDOCK:   -1.97 KCAL/MOL
REMARK 927      BINDING AFFINITY PREDICTED BY RF-SCORE:    0.00 PKD
ROOT
HETATM    1  C   UNL     1     -10.288  20.070  68.568  1.00  0.00    -0.425 C  
HETATM    2  C   UNL     1      -9.572  19.334  67.438  1.00  0.00    -0.389 C  
HETATM    3  C   UNL     1      -9.995  19.920  66.087  1.00  0.00    -0.593 C  
HETATM    4  C   UNL     1      -8.049  19.393  67.665  1.00  0.00    -0.317 C  
ENDROOT
BRANCH   4   5
HETATM    5  C   UNL     1      -7.285  18.664  66.568  1.00  0.00    -0.252 C  
BRANCH   5   6
HETATM    6  C   UNL     1      -7.684  17.197  66.443  1.00  0.00    -0.345 C  
HETATM    7  C   UNL     1      -6.994  16.331  67.515  1.00  0.00    -0.184 C  
HETATM    8  C   UNL     1      -7.349  16.785  68.939  1.00  0.00    -0.235 C  
HETATM    9  C   UNL     1      -7.359  14.855  67.281  1.00  0.00    -0.174 C  
BRANCH   9  10
HETATM   10  C   UNL     1      -6.706  13.946  68.316  1.00  0.00    -0.109 C  
BRANCH  10  11
HETATM   11  C   UNL     1      -7.414  12.605  68.433  1.00  0.00    -0.127 C  
HETATM   12  C   UNL     1      -6.423  11.458  68.710  1.00  0.00    -0.056 C  
HETATM   13  C   UNL     1      -7.141  10.094  68.687  1.00  0.00    -0.074 C  
HETATM   14  C   UNL     1      -5.679  11.634  70.040  1.00  0.00    -0.128 C  
BRANCH  13  15
HETATM   15  C   UNL     1      -7.836   9.754  67.363  1.00  0.00    -0.099 C  
BRANCH  15  16
HETATM   16  C   UNL     1      -9.318   9.425  67.540  1.00  0.00    -0.147 C  
BRANCH  16  17
HETATM   17  C   UNL     1     -10.205  10.541  67.048  1.00  0.00    -0.275 C  
HETATM   18  C   UNL     1     -11.008  11.185  67.917  1.00  0.00    -0.307 C  
HETATM   19  C   UNL     1     -10.092  10.905  65.597  1.00  0.00    -0.318 C  
BRANCH  18  20
HETATM   20  C   UNL     1     -11.890  12.371  67.622  1.00  0.00    -0.363 C  
BRANCH  20  21
HETATM   21  C   UNL     1     -11.745  13.447  68.680  1.00  0.00    -0.384 C  
HETATM   22  C   UNL     1     -11.258  14.686  68.454  1.00  0.00    -0.290 C  
HETATM   23  C   UNL     1     -10.732  15.193  67.138  1.00  0.00    -0.310 C  
HETATM   24  C   UNL     1     -11.226  15.708  69.541  1.00  0.00    -0.313 C  
HETATM   25  O   UNL     1     -10.746  16.818  69.351  1.00  0.00    -0.326 OA 
HETATM   26  C   UNL     1     -11.806  15.363  70.847  1.00  0.00    -0.400 A  
HETATM   27  C   UNL     1     -12.278  14.082  71.090  1.00  0.00    -0.417 A  
HETATM   28  C   UNL     1     -12.203  13.052  70.044  1.00  0.00    -0.236 C  
HETATM   29  C   UNL     1     -12.819  13.761  72.341  1.00  0.00    -0.353 A  
HETATM   30  C   UNL     1     -12.893  14.730  73.344  1.00  0.00    -0.597 A  
HETATM   31  O   UNL     1     -12.530  11.900  70.309  1.00  0.00    -0.217 OA 
HETATM   32  C   UNL     1     -12.423  16.020  73.098  1.00  0.00    -0.633 A  
HETATM   33  C   UNL     1     -11.879  16.338  71.853  1.00  0.00    -0.538 A  
ENDBRANCH  20  21
ENDBRANCH  18  20
ENDBRANCH  16  17
ENDBRANCH  15  16
ENDBRANCH  13  15
ENDBRANCH  10  11
ENDBRANCH   9  10
ENDBRANCH   5   6
ENDBRANCH   4   5
TORSDOF 9
ENDMDL
MODEL       78
REMARK 921   NORMALIZED FREE ENERGY PREDICTED BY IDOCK:   -5.68 KCAL/MOL
REMARK 922        TOTAL FREE ENERGY PREDICTED BY IDOCK:  -11.87 KCAL/MOL
REMARK 923 INTER-LIGAND FREE ENERGY PREDICTED BY IDOCK:   -7.81 KCAL/MOL
REMARK 924 INTRA-LIGAND FREE ENERGY PREDICTED BY IDOCK:   -4.06 KCAL/MOL
REMARK 927      BINDING AFFINITY PREDICTED BY RF-SCORE:    0.00 PKD
ROOT
HETATM    1  C   UNL     1     -12.056  14.306  64.365  1.00  0.00    -0.490 C  
HETATM    2  C   UNL     1     -11.916  12.787  64.432  1.00  0.00    -0.464 C  
HETATM    3  C   UNL     1     -12.781  12.139  63.346  1.00  0.00    -0.508 C  
HETATM    4  C   UNL     1     -10.429  12.397  64.322  1.00  0.00    -0.389 C  
ENDROOT
BRANCH   4   5
HETATM    5  C   UNL     1     -10.233  10.889  64.392  1.00  0.00    -0.423 C  
BRANCH   5   6
HETATM    6  C   UNL     1      -8.900  10.493  65.018  1.00  0.00    -0.207 C  
HETATM    7  C   UNL     1      -8.512   9.047  64.654  1.00  0.00    -0.194 C  
HETATM    8  C   UNL     1      -8.385   8.849  63.136  1.00  0.00    -0.185 C  
HETATM    9  C   UNL     1      -7.211   8.675  65.387  1.00  0.00    -0.083 C  
BRANCH   9  10
HETATM   10  C   UNL     1      -6.774   7.250  65.062  1.00  0.00    -0.047 C  
BRANCH  10  11
HETATM   11  C   UNL     1      -7.576   6.213  65.832  1.00  0.00    -0.087 C  
HETATM   12  C   UNL     1      -8.759   5.675  65.003  1.00  0.00    -0.068 C  
HETATM   13  C   UNL     1      -9.638   4.731  65.847  1.00  0.00    -0.188 C  
HETATM   14  C   UNL     1      -8.302   4.959  63.725  1.00  0.00    -0.127 C  
BRANCH  13  15
HETATM   15  C   UNL     1     -10.245   5.369  67.103  1.00  0.00    -0.266 C  
BRANCH  15  16
HETATM   16  C   UNL     1     -10.739   6.796  66.861  1.00  0.00    -0.394 C  
BRANCH  16  17
HETATM   17  C   UNL     1     -10.562   7.666  68.080  1.00  0.00    -0.213 C  
HETATM   18  C   UNL     1     -10.653   9.005  67.960  1.00  0.00    -0.242 C  
HETATM   19  C   UNL     1     -10.347   6.964  69.388  1.00  0.00    -0.220 C  
BRANCH  18  20
HETATM   20  C   UNL     1     -10.591  10.017  69.074  1.00  0.00    -0.235 C  
BRANCH  20  21
HETATM   21  C   UNL     1      -9.863  11.275  68.641  1.00  0.00    -0.208 C  
HETATM   22  C   UNL     1      -8.538  11.348  68.393  1.00  0.00    -0.156 C  
HETATM   23  C   UNL     1      -7.553  10.220  68.551  1.00  0.00    -0.089 C  
HETATM   24  C   UNL     1      -7.919  12.612  67.894  1.00  0.00    -0.156 C  
HETATM   25  O   UNL     1      -6.712  12.695  67.710  1.00  0.00    -0.096 OA 
HETATM   26  C   UNL     1      -8.796  13.756  67.605  1.00  0.00    -0.189 A  
HETATM   27  C   UNL     1     -10.152  13.692  67.887  1.00  0.00    -0.244 A  
HETATM   28  C   UNL     1     -10.730  12.479  68.482  1.00  0.00    -0.239 C  
HETATM   29  C   UNL     1     -10.976  14.792  67.617  1.00  0.00    -0.292 A  
HETATM   30  C   UNL     1     -10.438  15.951  67.055  1.00  0.00    -0.306 A  
HETATM   31  O   UNL     1     -11.908  12.476  68.820  1.00  0.00    -0.306 OA 
HETATM   32  C   UNL     1      -9.075  16.014  66.766  1.00  0.00    -0.271 A  
HETATM   33  C   UNL     1      -8.253  14.920  67.040  1.00  0.00    -0.228 A  
ENDBRANCH  20  21
ENDBRANCH  18  20
ENDBRANCH  16  17
ENDBRANCH  15  16
ENDBRANCH  13  15
ENDBRANCH  10  11
ENDBRANCH   9  10
ENDBRANCH   5   6
ENDBRANCH   4   5
TORSDOF 9
ENDMDL
MODEL       79
REMARK 921   NORMALIZED FREE ENERGY PREDICTED BY IDOCK:   -5.68 KCAL/MOL
REMARK 922        TOTAL FREE ENERGY PREDICTED BY IDOCK:  -11.87 KCAL/MOL
REMARK 923 INTER-LIGAND FREE ENERGY PREDICTED BY IDOCK:   -9.82 KCAL/MOL
REMARK 924 INTRA-LIGAND FREE ENERGY PREDICTED BY IDOCK:   -2.05 KCAL/MOL
REMARK 927      BINDING AFFINITY PREDICTED BY RF-SCORE:    0.00 PKD
ROOT
HETATM    1  C   UNL     1      -9.451   6.524  74.221  1.00  0.00    -0.253 C  
HETATM    2  C   UNL     1     -10.304   6.469  72.956  1.00  0.00    -0.239 C  
HETATM    3  C   UNL     1     -11.135   5.181  72.946  1.00  0.00    -0.359 C  
HETATM    4  C   UNL     1     -11.171   7.739  72.859  1.00  0.00    -0.434 C  
ENDROOT
BRANCH   4   5
HETATM    5  C   UNL     1     -12.037   7.739  71.607  1.00  0.00    -0.335 C  
BRANCH   5   6
HETATM    6  C   UNL     1     -11.395   8.485  70.442  1.00  0.00    -0.193 C  
HETATM    7  C   UNL     1     -10.382   7.598  69.693  1.00  0.00    -0.213 C  
HETATM    8  C   UNL     1     -11.035   6.329  69.123  1.00  0.00    -0.442 C  
HETATM    9  C   UNL     1      -9.701   8.430  68.593  1.00  0.00    -0.171 C  
BRANCH   9  10
HETATM   10  C   UNL     1      -8.685   7.602  67.812  1.00  0.00    -0.127 C  
BRANCH  10  11
HETATM   11  C   UNL     1      -8.899   7.696  66.310  1.00  0.00    -0.182 C  
HETATM   12  C   UNL     1      -7.596   8.045  65.567  1.00  0.00    -0.085 C  
HETATM   13  C   UNL     1      -7.861   8.271  64.066  1.00  0.00    -0.146 C  
HETATM   14  C   UNL     1      -6.512   6.974  65.750  1.00  0.00    -0.051 C  
BRANCH  13  15
HETATM   15  C   UNL     1      -8.852   9.398  63.750  1.00  0.00    -0.201 C  
BRANCH  15  16
HETATM   16  C   UNL     1      -8.735  10.577  64.718  1.00  0.00    -0.196 C  
BRANCH  16  17
HETATM   17  C   UNL     1     -10.008  11.382  64.781  1.00  0.00    -0.313 C  
HETATM   18  C   UNL     1     -10.704  11.436  65.934  1.00  0.00    -0.311 C  
HETATM   19  C   UNL     1     -10.397  12.133  63.542  1.00  0.00    -0.473 C  
BRANCH  18  20
HETATM   20  C   UNL     1     -11.941  12.254  66.203  1.00  0.00    -0.323 C  
BRANCH  20  21
HETATM   21  C   UNL     1     -11.682  13.325  67.243  1.00  0.00    -0.424 C  
HETATM   22  C   UNL     1     -11.241  14.572  66.969  1.00  0.00    -0.342 C  
HETATM   23  C   UNL     1     -10.885  15.093  65.602  1.00  0.00    -0.367 C  
HETATM   24  C   UNL     1     -11.089  15.588  68.051  1.00  0.00    -0.322 C  
HETATM   25  O   UNL     1     -10.649  16.705  67.812  1.00  0.00    -0.325 OA 
HETATM   26  C   UNL     1     -11.502  15.228  69.416  1.00  0.00    -0.329 A  
HETATM   27  C   UNL     1     -11.926  13.939  69.704  1.00  0.00    -0.399 A  
HETATM   28  C   UNL     1     -11.966  12.917  68.650  1.00  0.00    -0.247 C  
HETATM   29  C   UNL     1     -12.308  13.604  71.010  1.00  0.00    -0.436 A  
HETATM   30  C   UNL     1     -12.271  14.567  72.021  1.00  0.00    -0.329 A  
HETATM   31  O   UNL     1     -12.244  11.760  68.944  1.00  0.00    -0.330 OA 
HETATM   32  C   UNL     1     -11.849  15.864  71.729  1.00  0.00    -0.579 A  
HETATM   33  C   UNL     1     -11.464  16.196  70.430  1.00  0.00    -0.344 A  
ENDBRANCH  20  21
ENDBRANCH  18  20
ENDBRANCH  16  17
ENDBRANCH  15  16
ENDBRANCH  13  15
ENDBRANCH  10  11
ENDBRANCH   9  10
ENDBRANCH   5   6
ENDBRANCH   4   5
TORSDOF 9
ENDMDL
MODEL       80
REMARK 921   NORMALIZED FREE ENERGY PREDICTED BY IDOCK:   -5.67 KCAL/MOL
REMARK 922        TOTAL FREE ENERGY PREDICTED BY IDOCK:  -11.86 KCAL/MOL
REMARK 923 INTER-LIGAND FREE ENERGY PREDICTED BY IDOCK:   -9.43 KCAL/MOL
REMARK 924 INTRA-LIGAND FREE ENERGY PREDICTED BY IDOCK:   -2.43 KCAL/MOL
REMARK 927      BINDING AFFINITY PREDICTED BY RF-SCORE:    0.00 PKD
ROOT
HETATM    1  C   UNL     1      -8.154  11.188  67.650  1.00  0.00    -0.117 C  
HETATM    2  C   UNL     1      -8.903  10.141  66.829  1.00  0.00    -0.143 C  
HETATM    3  C   UNL     1      -9.471  10.785  65.561  1.00  0.00    -0.253 C  
HETATM    4  C   UNL     1      -7.968   8.953  66.529  1.00  0.00    -0.103 C  
ENDROOT
BRANCH   4   5
HETATM    5  C   UNL     1      -8.670   7.872  65.718  1.00  0.00    -0.163 C  
BRANCH   5   6
HETATM    6  C   UNL     1      -8.548   6.487  66.345  1.00  0.00    -0.136 C  
HETATM    7  C   UNL     1      -9.485   6.332  67.559  1.00  0.00    -0.115 C  
HETATM    8  C   UNL     1     -10.959   6.538  67.181  1.00  0.00    -0.480 C  
HETATM    9  C   UNL     1      -9.250   4.955  68.203  1.00  0.00    -0.151 C  
BRANCH   9  10
HETATM   10  C   UNL     1     -10.153   4.741  69.413  1.00  0.00    -0.241 C  
BRANCH  10  11
HETATM   11  C   UNL     1      -9.840   5.710  70.543  1.00  0.00    -0.249 C  
HETATM   12  C   UNL     1      -9.632   4.978  71.882  1.00  0.00    -0.199 C  
HETATM   13  C   UNL     1      -9.453   5.984  73.036  1.00  0.00    -0.143 C  
HETATM   14  C   UNL     1      -8.441   4.012  71.844  1.00  0.00    -0.107 C  
BRANCH  13  15
HETATM   15  C   UNL     1     -10.635   6.940  73.246  1.00  0.00    -0.353 C  
BRANCH  15  16
HETATM   16  C   UNL     1     -10.431   8.291  72.560  1.00  0.00    -0.406 C  
BRANCH  16  17
HETATM   17  C   UNL     1     -11.662   8.733  71.810  1.00  0.00    -0.416 C  
HETATM   18  C   UNL     1     -11.790  10.024  71.445  1.00  0.00    -0.447 C  
HETATM   19  C   UNL     1     -12.661   7.670  71.463  1.00  0.00    -0.373 C  
BRANCH  18  20
HETATM   20  C   UNL     1     -12.901  10.623  70.623  1.00  0.00    -0.404 C  
BRANCH  20  21
HETATM   21  C   UNL     1     -12.599  12.059  70.243  1.00  0.00    -0.060 C  
HETATM   22  C   UNL     1     -12.793  13.124  71.050  1.00  0.00    -0.295 C  
HETATM   23  C   UNL     1     -13.386  13.078  72.433  1.00  0.00    -0.563 C  
HETATM   24  C   UNL     1     -12.392  14.496  70.621  1.00  0.00    -0.339 C  
HETATM   25  O   UNL     1     -12.607  15.469  71.331  1.00  0.00    -0.366 OA 
HETATM   26  C   UNL     1     -11.710  14.656  69.328  1.00  0.00    -0.348 A  
HETATM   27  C   UNL     1     -11.537  13.568  68.485  1.00  0.00    -0.368 A  
HETATM   28  C   UNL     1     -12.035  12.241  68.873  1.00  0.00    -0.248 C  
HETATM   29  C   UNL     1     -10.894  13.733  67.252  1.00  0.00    -0.292 A  
HETATM   30  C   UNL     1     -10.418  14.990  66.871  1.00  0.00    -0.279 A  
HETATM   31  O   UNL     1     -11.966  11.314  68.074  1.00  0.00    -0.621 OA 
HETATM   32  C   UNL     1     -10.588  16.083  67.720  1.00  0.00    -0.309 A  
HETATM   33  C   UNL     1     -11.233  15.919  68.947  1.00  0.00    -0.343 A  
ENDBRANCH  20  21
ENDBRANCH  18  20
ENDBRANCH  16  17
ENDBRANCH  15  16
ENDBRANCH  13  15
ENDBRANCH  10  11
ENDBRANCH   9  10
ENDBRANCH   5   6
ENDBRANCH   4   5
TORSDOF 9
ENDMDL
MODEL       81
REMARK 921   NORMALIZED FREE ENERGY PREDICTED BY IDOCK:   -5.66 KCAL/MOL
REMARK 922        TOTAL FREE ENERGY PREDICTED BY IDOCK:  -11.84 KCAL/MOL
REMARK 923 INTER-LIGAND FREE ENERGY PREDICTED BY IDOCK:   -8.56 KCAL/MOL
REMARK 924 INTRA-LIGAND FREE ENERGY PREDICTED BY IDOCK:   -3.29 KCAL/MOL
REMARK 927      BINDING AFFINITY PREDICTED BY RF-SCORE:    0.00 PKD
ROOT
HETATM    1  C   UNL     1     -10.019  11.236  62.862  1.00  0.00    -0.282 C  
HETATM    2  C   UNL     1     -10.901  12.325  63.469  1.00  0.00    -0.508 C  
HETATM    3  C   UNL     1     -12.361  11.861  63.485  1.00  0.00    -0.603 C  
HETATM    4  C   UNL     1     -10.376  12.695  64.870  1.00  0.00    -0.330 C  
ENDROOT
BRANCH   4   5
HETATM    5  C   UNL     1     -11.217  13.787  65.518  1.00  0.00    -0.303 C  
BRANCH   5   6
HETATM    6  C   UNL     1     -11.897  13.326  66.804  1.00  0.00    -0.448 C  
HETATM    7  C   UNL     1     -11.020  12.323  67.579  1.00  0.00    -0.298 C  
HETATM    8  C   UNL     1      -9.661  12.925  67.967  1.00  0.00    -0.221 C  
HETATM    9  C   UNL     1     -11.795  11.825  68.811  1.00  0.00    -0.380 C  
BRANCH   9  10
HETATM   10  C   UNL     1     -10.974  10.828  69.622  1.00  0.00    -0.320 C  
BRANCH  10  11
HETATM   11  C   UNL     1     -11.838   9.737  70.236  1.00  0.00    -0.208 C  
HETATM   12  C   UNL     1     -12.208  10.055  71.697  1.00  0.00    -0.456 C  
HETATM   13  C   UNL     1     -12.964   8.877  72.342  1.00  0.00    -0.467 C  
HETATM   14  C   UNL     1     -13.036  11.339  71.826  1.00  0.00    -0.527 C  
BRANCH  13  15
HETATM   15  C   UNL     1     -12.189   7.553  72.371  1.00  0.00    -0.167 C  
BRANCH  15  16
HETATM   16  C   UNL     1     -10.902   7.640  73.192  1.00  0.00    -0.440 C  
BRANCH  16  17
HETATM   17  C   UNL     1      -9.673   7.506  72.329  1.00  0.00    -0.203 C  
HETATM   18  C   UNL     1      -9.514   6.408  71.564  1.00  0.00    -0.162 C  
HETATM   19  C   UNL     1      -8.712   8.658  72.336  1.00  0.00    -0.167 C  
BRANCH  18  20
HETATM   20  C   UNL     1      -8.402   6.146  70.582  1.00  0.00    -0.126 C  
BRANCH  20  21
HETATM   21  C   UNL     1      -8.577   6.960  69.315  1.00  0.00    -0.132 C  
HETATM   22  C   UNL     1      -9.714   7.012  68.588  1.00  0.00    -0.139 C  
HETATM   23  C   UNL     1     -10.974   6.241  68.876  1.00  0.00    -0.435 C  
HETATM   24  C   UNL     1      -9.822   7.904  67.395  1.00  0.00    -0.181 C  
HETATM   25  O   UNL     1     -10.835   7.921  66.709  1.00  0.00    -0.234 OA 
HETATM   26  C   UNL     1      -8.689   8.783  67.071  1.00  0.00    -0.131 A  
HETATM   27  C   UNL     1      -7.510   8.707  67.798  1.00  0.00    -0.097 A  
HETATM   28  C   UNL     1      -7.378   7.747  68.902  1.00  0.00    -0.086 C  
HETATM   29  C   UNL     1      -6.433   9.543  67.475  1.00  0.00    -0.062 A  
HETATM   30  C   UNL     1      -6.545  10.458  66.426  1.00  0.00    -0.099 A  
HETATM   31  O   UNL     1      -6.297   7.622  69.466  1.00  0.00    -0.031 OA 
HETATM   32  C   UNL     1      -7.732  10.537  65.697  1.00  0.00    -0.139 A  
HETATM   33  C   UNL     1      -8.803   9.701  66.017  1.00  0.00    -0.178 A  
ENDBRANCH  20  21
ENDBRANCH  18  20
ENDBRANCH  16  17
ENDBRANCH  15  16
ENDBRANCH  13  15
ENDBRANCH  10  11
ENDBRANCH   9  10
ENDBRANCH   5   6
ENDBRANCH   4   5
TORSDOF 9
ENDMDL
MODEL       82
REMARK 921   NORMALIZED FREE ENERGY PREDICTED BY IDOCK:   -5.66 KCAL/MOL
REMARK 922        TOTAL FREE ENERGY PREDICTED BY IDOCK:  -11.84 KCAL/MOL
REMARK 923 INTER-LIGAND FREE ENERGY PREDICTED BY IDOCK:  -10.31 KCAL/MOL
REMARK 924 INTRA-LIGAND FREE ENERGY PREDICTED BY IDOCK:   -1.53 KCAL/MOL
REMARK 927      BINDING AFFINITY PREDICTED BY RF-SCORE:    0.00 PKD
ROOT
HETATM    1  C   UNL     1     -12.240  14.086  65.032  1.00  0.00    -0.448 C  
HETATM    2  C   UNL     1     -11.722  12.659  64.867  1.00  0.00    -0.399 C  
HETATM    3  C   UNL     1     -12.086  12.132  63.475  1.00  0.00    -0.649 C  
HETATM    4  C   UNL     1     -10.206  12.623  65.141  1.00  0.00    -0.300 C  
ENDROOT
BRANCH   4   5
HETATM    5  C   UNL     1      -9.639  11.217  64.999  1.00  0.00    -0.267 C  
BRANCH   5   6
HETATM    6  C   UNL     1     -10.467  10.167  65.732  1.00  0.00    -0.128 C  
HETATM    7  C   UNL     1      -9.603   8.966  66.163  1.00  0.00    -0.335 C  
HETATM    8  C   UNL     1      -8.459   9.386  67.099  1.00  0.00    -0.128 C  
HETATM    9  C   UNL     1     -10.506   7.903  66.811  1.00  0.00    -0.317 C  
BRANCH   9  10
HETATM   10  C   UNL     1      -9.705   6.687  67.262  1.00  0.00    -0.166 C  
BRANCH  10  11
HETATM   11  C   UNL     1      -9.612   6.589  68.777  1.00  0.00    -0.126 C  
HETATM   12  C   UNL     1     -10.183   5.257  69.299  1.00  0.00    -0.301 C  
HETATM   13  C   UNL     1     -10.207   5.236  70.840  1.00  0.00    -0.304 C  
HETATM   14  C   UNL     1      -9.410   4.041  68.773  1.00  0.00    -0.227 C  
BRANCH  13  15
HETATM   15  C   UNL     1     -11.043   6.347  71.487  1.00  0.00    -0.322 C  
BRANCH  15  16
HETATM   16  C   UNL     1     -10.192   7.520  71.975  1.00  0.00    -0.234 C  
BRANCH  16  17
HETATM   17  C   UNL     1     -10.162   8.648  70.975  1.00  0.00    -0.278 C  
HETATM   18  C   UNL     1     -11.297   9.008  70.344  1.00  0.00    -0.242 C  
HETATM   19  C   UNL     1      -8.850   9.350  70.786  1.00  0.00    -0.233 C  
BRANCH  18  20
HETATM   20  C   UNL     1     -11.472  10.159  69.388  1.00  0.00    -0.202 C  
BRANCH  20  21
HETATM   21  C   UNL     1     -11.923  11.414  70.107  1.00  0.00    -0.460 C  
HETATM   22  C   UNL     1     -12.752  11.433  71.172  1.00  0.00    -0.479 C  
HETATM   23  C   UNL     1     -13.407  10.229  71.794  1.00  0.00    -0.476 C  
HETATM   24  C   UNL     1     -13.080  12.713  71.867  1.00  0.00    -0.366 C  
HETATM   25  O   UNL     1     -13.864  12.739  72.806  1.00  0.00    -0.428 OA 
HETATM   26  C   UNL     1     -12.421  13.947  71.414  1.00  0.00    -0.424 A  
HETATM   27  C   UNL     1     -11.593  13.934  70.301  1.00  0.00    -0.217 A  
HETATM   28  C   UNL     1     -11.365  12.686  69.559  1.00  0.00    -0.158 C  
HETATM   29  C   UNL     1     -10.979  15.117  69.872  1.00  0.00    -0.291 A  
HETATM   30  C   UNL     1     -11.190  16.310  70.567  1.00  0.00    -0.327 A  
HETATM   31  O   UNL     1     -10.715  12.713  68.521  1.00  0.00    -0.236 OA 
HETATM   32  C   UNL     1     -12.018  16.322  71.689  1.00  0.00    -0.436 A  
HETATM   33  C   UNL     1     -12.635  15.144  72.113  1.00  0.00    -0.407 A  
ENDBRANCH  20  21
ENDBRANCH  18  20
ENDBRANCH  16  17
ENDBRANCH  15  16
ENDBRANCH  13  15
ENDBRANCH  10  11
ENDBRANCH   9  10
ENDBRANCH   5   6
ENDBRANCH   4   5
TORSDOF 9
ENDMDL
MODEL       83
REMARK 921   NORMALIZED FREE ENERGY PREDICTED BY IDOCK:   -5.66 KCAL/MOL
REMARK 922        TOTAL FREE ENERGY PREDICTED BY IDOCK:  -11.84 KCAL/MOL
REMARK 923 INTER-LIGAND FREE ENERGY PREDICTED BY IDOCK:  -10.72 KCAL/MOL
REMARK 924 INTRA-LIGAND FREE ENERGY PREDICTED BY IDOCK:   -1.11 KCAL/MOL
REMARK 927      BINDING AFFINITY PREDICTED BY RF-SCORE:    0.00 PKD
ROOT
HETATM    1  C   UNL     1      -7.087   7.917  62.885  1.00  0.00    -0.087 C  
HETATM    2  C   UNL     1      -7.562   9.346  63.137  1.00  0.00    -0.108 C  
HETATM    3  C   UNL     1      -6.555  10.339  62.546  1.00  0.00    -0.137 C  
HETATM    4  C   UNL     1      -8.983   9.528  62.571  1.00  0.00    -0.268 C  
ENDROOT
BRANCH   4   5
HETATM    5  C   UNL     1      -9.509  10.938  62.804  1.00  0.00    -0.359 C  
BRANCH   5   6
HETATM    6  C   UNL     1     -10.025  11.151  64.224  1.00  0.00    -0.359 C  
HETATM    7  C   UNL     1     -11.057  12.293  64.285  1.00  0.00    -0.401 C  
HETATM    8  C   UNL     1     -12.274  12.020  63.388  1.00  0.00    -0.627 C  
HETATM    9  C   UNL     1     -11.469  12.522  65.749  1.00  0.00    -0.407 C  
BRANCH   9  10
HETATM   10  C   UNL     1     -12.495  13.644  65.873  1.00  0.00    -0.502 C  
BRANCH  10  11
HETATM   11  C   UNL     1     -12.279  14.485  67.121  1.00  0.00    -0.187 C  
HETATM   12  C   UNL     1     -10.839  15.024  67.205  1.00  0.00    -0.314 C  
HETATM   13  C   UNL     1     -10.602  15.756  68.540  1.00  0.00    -0.253 C  
HETATM   14  C   UNL     1     -10.489  15.951  66.034  1.00  0.00    -0.357 C  
BRANCH  13  15
HETATM   15  C   UNL     1     -10.814  14.895  69.792  1.00  0.00    -0.255 C  
BRANCH  15  16
HETATM   16  C   UNL     1     -11.977  15.385  70.656  1.00  0.00    -0.396 C  
BRANCH  16  17
HETATM   17  C   UNL     1     -12.823  14.244  71.161  1.00  0.00    -0.429 C  
HETATM   18  C   UNL     1     -12.461  12.975  70.887  1.00  0.00    -0.396 C  
HETATM   19  C   UNL     1     -14.012  14.603  72.002  1.00  0.00    -0.581 C  
BRANCH  18  20
HETATM   20  C   UNL     1     -13.132  11.719  71.378  1.00  0.00    -0.322 C  
BRANCH  20  21
HETATM   21  C   UNL     1     -12.369  10.480  70.954  1.00  0.00    -0.490 C  
HETATM   22  C   UNL     1     -11.514  10.425  69.911  1.00  0.00    -0.368 C  
HETATM   23  C   UNL     1     -11.211  11.557  68.965  1.00  0.00    -0.324 C  
HETATM   24  C   UNL     1     -10.744   9.181  69.614  1.00  0.00    -0.225 C  
HETATM   25  O   UNL     1     -10.002   9.113  68.643  1.00  0.00    -0.161 OA 
HETATM   26  C   UNL     1     -10.879   8.037  70.528  1.00  0.00    -0.241 A  
HETATM   27  C   UNL     1     -11.780   8.082  71.582  1.00  0.00    -0.325 A  
HETATM   28  C   UNL     1     -12.612   9.273  71.798  1.00  0.00    -0.382 C  
HETATM   29  C   UNL     1     -11.907   6.983  72.441  1.00  0.00    -0.215 A  
HETATM   30  C   UNL     1     -11.124   5.843  72.244  1.00  0.00    -0.330 A  
HETATM   31  O   UNL     1     -13.473   9.257  72.669  1.00  0.00    -0.444 OA 
HETATM   32  C   UNL     1     -10.215   5.800  71.187  1.00  0.00    -0.275 A  
HETATM   33  C   UNL     1     -10.092   6.893  70.328  1.00  0.00    -0.196 A  
ENDBRANCH  20  21
ENDBRANCH  18  20
ENDBRANCH  16  17
ENDBRANCH  15  16
ENDBRANCH  13  15
ENDBRANCH  10  11
ENDBRANCH   9  10
ENDBRANCH   5   6
ENDBRANCH   4   5
TORSDOF 9
ENDMDL
MODEL       84
REMARK 921   NORMALIZED FREE ENERGY PREDICTED BY IDOCK:   -5.64 KCAL/MOL
REMARK 922        TOTAL FREE ENERGY PREDICTED BY IDOCK:  -11.81 KCAL/MOL
REMARK 923 INTER-LIGAND FREE ENERGY PREDICTED BY IDOCK:  -10.34 KCAL/MOL
REMARK 924 INTRA-LIGAND FREE ENERGY PREDICTED BY IDOCK:   -1.47 KCAL/MOL
REMARK 927      BINDING AFFINITY PREDICTED BY RF-SCORE:    0.00 PKD
ROOT
HETATM    1  C   UNL     1     -13.280  10.479  71.678  1.00  0.00    -0.493 C  
HETATM    2  C   UNL     1     -13.141   9.100  72.320  1.00  0.00    -0.509 C  
HETATM    3  C   UNL     1     -14.196   8.151  71.743  1.00  0.00    -0.548 C  
HETATM    4  C   UNL     1     -11.703   8.582  72.128  1.00  0.00    -0.448 C  
ENDROOT
BRANCH   4   5
HETATM    5  C   UNL     1     -11.507   7.210  72.759  1.00  0.00    -0.234 C  
BRANCH   5   6
HETATM    6  C   UNL     1     -11.091   6.146  71.748  1.00  0.00    -0.327 C  
HETATM    7  C   UNL     1      -9.971   6.655  70.820  1.00  0.00    -0.201 C  
HETATM    8  C   UNL     1      -8.714   7.063  71.603  1.00  0.00    -0.116 C  
HETATM    9  C   UNL     1      -9.661   5.578  69.767  1.00  0.00    -0.236 C  
BRANCH   9  10
HETATM   10  C   UNL     1      -8.555   6.024  68.818  1.00  0.00    -0.112 C  
BRANCH  10  11
HETATM   11  C   UNL     1      -8.880   7.344  68.136  1.00  0.00    -0.127 C  
HETATM   12  C   UNL     1      -9.675   7.133  66.834  1.00  0.00    -0.242 C  
HETATM   13  C   UNL     1      -9.875   8.467  66.089  1.00  0.00    -0.227 C  
HETATM   14  C   UNL     1     -11.034   6.465  67.078  1.00  0.00    -0.463 C  
BRANCH  13  15
HETATM   15  C   UNL     1      -8.577   9.182  65.691  1.00  0.00    -0.178 C  
BRANCH  15  16
HETATM   16  C   UNL     1      -8.522  10.628  66.186  1.00  0.00    -0.159 C  
BRANCH  16  17
HETATM   17  C   UNL     1      -9.813  11.362  65.923  1.00  0.00    -0.262 C  
HETATM   18  C   UNL     1     -10.525  11.847  66.959  1.00  0.00    -0.253 C  
HETATM   19  C   UNL     1     -10.199  11.558  64.487  1.00  0.00    -0.338 C  
BRANCH  18  20
HETATM   20  C   UNL     1     -11.781  12.675  66.881  1.00  0.00    -0.453 C  
BRANCH  20  21
HETATM   21  C   UNL     1     -11.560  14.073  67.424  1.00  0.00    -0.397 C  
HETATM   22  C   UNL     1     -11.662  14.416  68.725  1.00  0.00    -0.372 C  
HETATM   23  C   UNL     1     -12.060  13.493  69.846  1.00  0.00    -0.408 C  
HETATM   24  C   UNL     1     -11.348  15.802  69.181  1.00  0.00    -0.349 C  
HETATM   25  O   UNL     1     -11.482  16.128  70.353  1.00  0.00    -0.360 OA 
HETATM   26  C   UNL     1     -10.851  16.770  68.192  1.00  0.00    -0.353 A  
HETATM   27  C   UNL     1     -10.774  16.428  66.851  1.00  0.00    -0.202 A  
HETATM   28  C   UNL     1     -11.191  15.093  66.399  1.00  0.00    -0.277 C  
HETATM   29  C   UNL     1     -10.308  17.361  65.916  1.00  0.00    -0.276 A  
HETATM   30  C   UNL     1      -9.912  18.634  66.332  1.00  0.00    -0.415 A  
HETATM   31  O   UNL     1     -11.214  14.843  65.200  1.00  0.00    -0.352 OA 
HETATM   32  C   UNL     1      -9.984  18.977  67.682  1.00  0.00    -0.420 A  
HETATM   33  C   UNL     1     -10.454  18.048  68.613  1.00  0.00    -0.236 A  
ENDBRANCH  20  21
ENDBRANCH  18  20
ENDBRANCH  16  17
ENDBRANCH  15  16
ENDBRANCH  13  15
ENDBRANCH  10  11
ENDBRANCH   9  10
ENDBRANCH   5   6
ENDBRANCH   4   5
TORSDOF 9
ENDMDL
MODEL       85
REMARK 921   NORMALIZED FREE ENERGY PREDICTED BY IDOCK:   -5.64 KCAL/MOL
REMARK 922        TOTAL FREE ENERGY PREDICTED BY IDOCK:  -11.80 KCAL/MOL
REMARK 923 INTER-LIGAND FREE ENERGY PREDICTED BY IDOCK:   -8.73 KCAL/MOL
REMARK 924 INTRA-LIGAND FREE ENERGY PREDICTED BY IDOCK:   -3.07 KCAL/MOL
REMARK 927      BINDING AFFINITY PREDICTED BY RF-SCORE:    0.00 PKD
ROOT
HETATM    1  C   UNL     1     -11.060   3.574  73.926  1.00  0.00    -0.224 C  
HETATM    2  C   UNL     1     -10.440   4.708  73.112  1.00  0.00    -0.253 C  
HETATM    3  C   UNL     1      -9.246   4.178  72.310  1.00  0.00    -0.160 C  
HETATM    4  C   UNL     1     -11.516   5.356  72.221  1.00  0.00    -0.157 C  
ENDROOT
BRANCH   4   5
HETATM    5  C   UNL     1     -10.951   6.502  71.393  1.00  0.00    -0.303 C  
BRANCH   5   6
HETATM    6  C   UNL     1     -11.474   6.513  69.960  1.00  0.00    -0.476 C  
HETATM    7  C   UNL     1     -10.355   6.201  68.947  1.00  0.00    -0.258 C  
HETATM    8  C   UNL     1      -9.719   4.825  69.195  1.00  0.00    -0.258 C  
HETATM    9  C   UNL     1     -10.920   6.319  67.521  1.00  0.00    -0.444 C  
BRANCH   9  10
HETATM   10  C   UNL     1      -9.856   6.019  66.471  1.00  0.00    -0.186 C  
BRANCH  10  11
HETATM   11  C   UNL     1      -9.031   7.247  66.120  1.00  0.00    -0.179 C  
HETATM   12  C   UNL     1      -7.606   7.163  66.700  1.00  0.00    -0.093 C  
HETATM   13  C   UNL     1      -6.834   8.473  66.452  1.00  0.00    -0.074 C  
HETATM   14  C   UNL     1      -6.813   5.976  66.138  1.00  0.00    -0.061 C  
BRANCH  13  15
HETATM   15  C   UNL     1      -7.476   9.724  67.065  1.00  0.00    -0.091 C  
BRANCH  15  16
HETATM   16  C   UNL     1      -7.544   9.667  68.592  1.00  0.00    -0.080 C  
BRANCH  16  17
HETATM   17  C   UNL     1      -8.967   9.656  69.092  1.00  0.00    -0.154 C  
HETATM   18  C   UNL     1      -9.973   9.929  68.238  1.00  0.00    -0.172 C  
HETATM   19  C   UNL     1      -9.177   9.277  70.528  1.00  0.00    -0.311 C  
BRANCH  18  20
HETATM   20  C   UNL     1     -11.449   9.879  68.539  1.00  0.00     0.057 C  
BRANCH  20  21
HETATM   21  C   UNL     1     -11.888  11.073  69.363  1.00  0.00    -0.407 C  
HETATM   22  C   UNL     1     -12.454  10.996  70.586  1.00  0.00    -0.465 C  
HETATM   23  C   UNL     1     -12.793   9.723  71.315  1.00  0.00    -0.472 C  
HETATM   24  C   UNL     1     -12.782  12.229  71.360  1.00  0.00    -0.248 C  
HETATM   25  O   UNL     1     -13.336  12.163  72.449  1.00  0.00    -0.427 OA 
HETATM   26  C   UNL     1     -12.407  13.533  70.795  1.00  0.00    -0.440 A  
HETATM   27  C   UNL     1     -11.853  13.616  69.526  1.00  0.00    -0.394 A  
HETATM   28  C   UNL     1     -11.635  12.401  68.729  1.00  0.00    -0.326 C  
HETATM   29  C   UNL     1     -11.507  14.865  68.993  1.00  0.00    -0.322 A  
HETATM   30  C   UNL     1     -11.711  16.027  69.740  1.00  0.00    -0.267 A  
HETATM   31  O   UNL     1     -11.242  12.501  67.573  1.00  0.00    -0.259 OA 
HETATM   32  C   UNL     1     -12.264  15.944  71.017  1.00  0.00    -0.421 A  
HETATM   33  C   UNL     1     -12.613  14.700  71.546  1.00  0.00    -0.410 A  
ENDBRANCH  20  21
ENDBRANCH  18  20
ENDBRANCH  16  17
ENDBRANCH  15  16
ENDBRANCH  13  15
ENDBRANCH  10  11
ENDBRANCH   9  10
ENDBRANCH   5   6
ENDBRANCH   4   5
TORSDOF 9
ENDMDL
MODEL       86
REMARK 921   NORMALIZED FREE ENERGY PREDICTED BY IDOCK:   -5.62 KCAL/MOL
REMARK 922        TOTAL FREE ENERGY PREDICTED BY IDOCK:  -11.78 KCAL/MOL
REMARK 923 INTER-LIGAND FREE ENERGY PREDICTED BY IDOCK:   -8.69 KCAL/MOL
REMARK 924 INTRA-LIGAND FREE ENERGY PREDICTED BY IDOCK:   -3.09 KCAL/MOL
REMARK 927      BINDING AFFINITY PREDICTED BY RF-SCORE:    0.00 PKD
ROOT
HETATM    1  C   UNL     1     -10.068  19.848  69.143  1.00  0.00    -0.337 C  
HETATM    2  C   UNL     1      -9.985  18.843  67.997  1.00  0.00    -0.414 C  
HETATM    3  C   UNL     1     -10.893  19.292  66.847  1.00  0.00    -0.479 C  
HETATM    4  C   UNL     1      -8.516  18.670  67.565  1.00  0.00    -0.280 C  
ENDROOT
BRANCH   4   5
HETATM    5  C   UNL     1      -8.376  17.668  66.427  1.00  0.00    -0.288 C  
BRANCH   5   6
HETATM    6  C   UNL     1      -8.863  16.272  66.803  1.00  0.00    -0.263 C  
HETATM    7  C   UNL     1      -7.687  15.292  66.981  1.00  0.00    -0.192 C  
HETATM    8  C   UNL     1      -6.715  15.751  68.078  1.00  0.00    -0.144 C  
HETATM    9  C   UNL     1      -8.242  13.886  67.265  1.00  0.00    -0.176 C  
BRANCH   9  10
HETATM   10  C   UNL     1      -7.121  12.869  67.454  1.00  0.00    -0.130 C  
BRANCH  10  11
HETATM   11  C   UNL     1      -7.509  11.757  68.415  1.00  0.00    -0.105 C  
HETATM   12  C   UNL     1      -6.371  11.431  69.401  1.00  0.00    -0.100 C  
HETATM   13  C   UNL     1      -6.731  10.212  70.273  1.00  0.00    -0.143 C  
HETATM   14  C   UNL     1      -6.009  12.624  70.295  1.00  0.00    -0.122 C  
BRANCH  13  15
HETATM   15  C   UNL     1      -7.009   8.921  69.492  1.00  0.00    -0.051 C  
BRANCH  15  16
HETATM   16  C   UNL     1      -8.256   8.188  69.988  1.00  0.00    -0.120 C  
BRANCH  16  17
HETATM   17  C   UNL     1      -9.497   8.627  69.252  1.00  0.00    -0.158 C  
HETATM   18  C   UNL     1     -10.489   9.238  69.928  1.00  0.00    -0.247 C  
HETATM   19  C   UNL     1      -9.521   8.399  67.769  1.00  0.00    -0.171 C  
BRANCH  18  20
HETATM   20  C   UNL     1     -11.753   9.817  69.347  1.00  0.00     0.169 C  
BRANCH  20  21
HETATM   21  C   UNL     1     -12.109  11.138  70.000  1.00  0.00    -0.437 C  
HETATM   22  C   UNL     1     -12.807  11.263  71.149  1.00  0.00    -0.452 C  
HETATM   23  C   UNL     1     -13.392  10.128  71.946  1.00  0.00    -0.505 C  
HETATM   24  C   UNL     1     -13.044  12.604  71.761  1.00  0.00    -0.360 C  
HETATM   25  O   UNL     1     -13.713  12.724  72.779  1.00  0.00    -0.446 OA 
HETATM   26  C   UNL     1     -12.436  13.782  71.127  1.00  0.00    -0.450 A  
HETATM   27  C   UNL     1     -11.744  13.659  69.931  1.00  0.00    -0.346 A  
HETATM   28  C   UNL     1     -11.612  12.348  69.281  1.00  0.00    -0.319 C  
HETATM   29  C   UNL     1     -11.177  14.791  69.331  1.00  0.00    -0.308 A  
HETATM   30  C   UNL     1     -11.298  16.042  69.938  1.00  0.00    -0.340 A  
HETATM   31  O   UNL     1     -11.088  12.274  68.176  1.00  0.00    -0.212 OA 
HETATM   32  C   UNL     1     -11.989  16.166  71.143  1.00  0.00    -0.357 A  
HETATM   33  C   UNL     1     -12.559  15.039  71.738  1.00  0.00    -0.409 A  
ENDBRANCH  20  21
ENDBRANCH  18  20
ENDBRANCH  16  17
ENDBRANCH  15  16
ENDBRANCH  13  15
ENDBRANCH  10  11
ENDBRANCH   9  10
ENDBRANCH   5   6
ENDBRANCH   4   5
TORSDOF 9
ENDMDL
MODEL       87
REMARK 921   NORMALIZED FREE ENERGY PREDICTED BY IDOCK:   -5.62 KCAL/MOL
REMARK 922        TOTAL FREE ENERGY PREDICTED BY IDOCK:  -11.77 KCAL/MOL
REMARK 923 INTER-LIGAND FREE ENERGY PREDICTED BY IDOCK:  -10.04 KCAL/MOL
REMARK 924 INTRA-LIGAND FREE ENERGY PREDICTED BY IDOCK:   -1.73 KCAL/MOL
REMARK 927      BINDING AFFINITY PREDICTED BY RF-SCORE:    0.00 PKD
ROOT
HETATM    1  C   UNL     1     -10.906  19.480  67.261  1.00  0.00    -0.557 C  
HETATM    2  C   UNL     1      -9.477  18.945  67.206  1.00  0.00    -0.336 C  
HETATM    3  C   UNL     1      -8.655  19.765  66.206  1.00  0.00    -0.397 C  
HETATM    4  C   UNL     1      -8.868  18.946  68.622  1.00  0.00    -0.374 C  
ENDROOT
BRANCH   4   5
HETATM    5  C   UNL     1      -7.443  18.411  68.624  1.00  0.00    -0.314 C  
BRANCH   5   6
HETATM    6  C   UNL     1      -7.350  16.971  69.117  1.00  0.00    -0.186 C  
HETATM    7  C   UNL     1      -7.350  15.971  67.944  1.00  0.00    -0.145 C  
HETATM    8  C   UNL     1      -6.173  16.207  66.985  1.00  0.00    -0.040 C  
HETATM    9  C   UNL     1      -7.351  14.538  68.503  1.00  0.00    -0.120 C  
BRANCH   9  10
HETATM   10  C   UNL     1      -7.348  13.501  67.385  1.00  0.00    -0.124 C  
BRANCH  10  11
HETATM   11  C   UNL     1      -8.737  13.270  66.812  1.00  0.00    -0.093 C  
HETATM   12  C   UNL     1      -8.789  12.007  65.931  1.00  0.00     0.115 C  
HETATM   13  C   UNL     1     -10.165  11.867  65.250  1.00  0.00    -0.309 C  
HETATM   14  C   UNL     1      -8.465  10.730  66.717  1.00  0.00    -0.134 C  
BRANCH  13  15
HETATM   15  C   UNL     1     -10.556  13.041  64.344  1.00  0.00    -0.429 C  
BRANCH  15  16
HETATM   16  C   UNL     1     -11.835  13.742  64.804  1.00  0.00    -0.413 C  
BRANCH  16  17
HETATM   17  C   UNL     1     -11.619  14.538  66.066  1.00  0.00    -0.356 C  
HETATM   18  C   UNL     1     -12.082  14.063  67.239  1.00  0.00    -0.405 C  
HETATM   19  C   UNL     1     -10.834  15.810  65.939  1.00  0.00    -0.272 C  
BRANCH  18  20
HETATM   20  C   UNL     1     -11.884  14.674  68.602  1.00  0.00    -0.346 C  
BRANCH  20  21
HETATM   21  C   UNL     1     -12.244  13.699  69.705  1.00  0.00    -0.350 C  
HETATM   22  C   UNL     1     -13.024  13.995  70.767  1.00  0.00    -0.298 C  
HETATM   23  C   UNL     1     -13.623  15.344  71.064  1.00  0.00    -0.465 C  
HETATM   24  C   UNL     1     -13.392  12.948  71.765  1.00  0.00    -0.359 C  
HETATM   25  O   UNL     1     -14.062  13.223  72.751  1.00  0.00    -0.691 OA 
HETATM   26  C   UNL     1     -12.949  11.567  71.529  1.00  0.00    -0.485 A  
HETATM   27  C   UNL     1     -12.123  11.267  70.456  1.00  0.00    -0.481 A  
HETATM   28  C   UNL     1     -11.678  12.328  69.541  1.00  0.00    -0.332 C  
HETATM   29  C   UNL     1     -11.699   9.949  70.245  1.00  0.00    -0.286 A  
HETATM   30  C   UNL     1     -12.112   8.932  71.109  1.00  0.00    -0.326 A  
HETATM   31  O   UNL     1     -10.867  12.064  68.661  1.00  0.00    -0.219 OA 
HETATM   32  C   UNL     1     -12.947   9.232  72.185  1.00  0.00    -0.503 A  
HETATM   33  C   UNL     1     -13.365  10.547  72.397  1.00  0.00    -0.011 A  
ENDBRANCH  20  21
ENDBRANCH  18  20
ENDBRANCH  16  17
ENDBRANCH  15  16
ENDBRANCH  13  15
ENDBRANCH  10  11
ENDBRANCH   9  10
ENDBRANCH   5   6
ENDBRANCH   4   5
TORSDOF 9
ENDMDL
MODEL       88
REMARK 921   NORMALIZED FREE ENERGY PREDICTED BY IDOCK:   -5.61 KCAL/MOL
REMARK 922        TOTAL FREE ENERGY PREDICTED BY IDOCK:  -11.76 KCAL/MOL
REMARK 923 INTER-LIGAND FREE ENERGY PREDICTED BY IDOCK:   -9.23 KCAL/MOL
REMARK 924 INTRA-LIGAND FREE ENERGY PREDICTED BY IDOCK:   -2.53 KCAL/MOL
REMARK 927      BINDING AFFINITY PREDICTED BY RF-SCORE:    0.00 PKD
ROOT
HETATM    1  C   UNL     1      -7.670   7.724  66.754  1.00  0.00    -0.099 C  
HETATM    2  C   UNL     1      -7.919   8.967  65.902  1.00  0.00    -0.107 C  
HETATM    3  C   UNL     1      -7.158   8.848  64.577  1.00  0.00    -0.089 C  
HETATM    4  C   UNL     1      -9.434   9.165  65.705  1.00  0.00    -0.309 C  
ENDROOT
BRANCH   4   5
HETATM    5  C   UNL     1      -9.738  10.400  64.867  1.00  0.00    -0.372 C  
BRANCH   5   6
HETATM    6  C   UNL     1      -9.348  11.700  65.563  1.00  0.00    -0.172 C  
HETATM    7  C   UNL     1     -10.543  12.667  65.664  1.00  0.00    -0.299 C  
HETATM    8  C   UNL     1     -11.714  12.058  66.450  1.00  0.00    -0.326 C  
HETATM    9  C   UNL     1     -10.067  13.991  66.287  1.00  0.00    -0.307 C  
BRANCH   9  10
HETATM   10  C   UNL     1     -11.211  14.992  66.416  1.00  0.00    -0.310 C  
BRANCH  10  11
HETATM   11  C   UNL     1     -11.542  15.303  67.867  1.00  0.00    -0.301 C  
HETATM   12  C   UNL     1     -10.520  16.271  68.492  1.00  0.00    -0.278 C  
HETATM   13  C   UNL     1     -10.794  16.465  69.996  1.00  0.00    -0.306 C  
HETATM   14  C   UNL     1     -10.496  17.634  67.787  1.00  0.00    -0.379 C  
BRANCH  13  15
HETATM   15  C   UNL     1     -10.737  15.179  70.831  1.00  0.00    -0.062 C  
BRANCH  15  16
HETATM   16  C   UNL     1     -12.032  14.916  71.600  1.00  0.00    -0.427 C  
BRANCH  16  17
HETATM   17  C   UNL     1     -12.590  13.545  71.311  1.00  0.00    -0.427 C  
HETATM   18  C   UNL     1     -12.131  12.851  70.251  1.00  0.00    -0.377 C  
HETATM   19  C   UNL     1     -13.605  13.010  72.277  1.00  0.00    -0.643 C  
BRANCH  18  20
HETATM   20  C   UNL     1     -12.507  11.444  69.863  1.00  0.00    -0.190 C  
BRANCH  20  21
HETATM   21  C   UNL     1     -11.612  10.424  70.538  1.00  0.00    -0.433 C  
HETATM   22  C   UNL     1     -12.002   9.602  71.536  1.00  0.00    -0.485 C  
HETATM   23  C   UNL     1     -13.363   9.590  72.180  1.00  0.00    -0.545 C  
HETATM   24  C   UNL     1     -11.074   8.572  72.088  1.00  0.00    -0.366 C  
HETATM   25  O   UNL     1     -11.409   7.854  73.022  1.00  0.00    -0.408 OA 
HETATM   26  C   UNL     1      -9.748   8.418  71.472  1.00  0.00    -0.276 A  
HETATM   27  C   UNL     1      -9.335   9.282  70.468  1.00  0.00    -0.316 A  
HETATM   28  C   UNL     1     -10.218  10.363  70.009  1.00  0.00    -0.081 C  
HETATM   29  C   UNL     1      -8.066   9.133  69.894  1.00  0.00    -0.122 A  
HETATM   30  C   UNL     1      -7.217   8.111  70.325  1.00  0.00    -0.052 A  
HETATM   31  O   UNL     1      -9.799  11.178  69.195  1.00  0.00    -0.163 OA 
HETATM   32  C   UNL     1      -7.633   7.240  71.331  1.00  0.00    -0.083 A  
HETATM   33  C   UNL     1      -8.896   7.392  71.906  1.00  0.00    -0.128 A  
ENDBRANCH  20  21
ENDBRANCH  18  20
ENDBRANCH  16  17
ENDBRANCH  15  16
ENDBRANCH  13  15
ENDBRANCH  10  11
ENDBRANCH   9  10
ENDBRANCH   5   6
ENDBRANCH   4   5
TORSDOF 9
ENDMDL
MODEL       89
REMARK 921   NORMALIZED FREE ENERGY PREDICTED BY IDOCK:   -5.60 KCAL/MOL
REMARK 922        TOTAL FREE ENERGY PREDICTED BY IDOCK:  -11.75 KCAL/MOL
REMARK 923 INTER-LIGAND FREE ENERGY PREDICTED BY IDOCK:   -8.73 KCAL/MOL
REMARK 924 INTRA-LIGAND FREE ENERGY PREDICTED BY IDOCK:   -3.02 KCAL/MOL
REMARK 927      BINDING AFFINITY PREDICTED BY RF-SCORE:    0.00 PKD
ROOT
HETATM    1  C   UNL     1      -7.913  10.182  64.440  1.00  0.00    -0.153 C  
HETATM    2  C   UNL     1      -9.423  10.371  64.319  1.00  0.00    -0.349 C  
HETATM    3  C   UNL     1     -10.131   9.631  65.459  1.00  0.00    -0.165 C  
HETATM    4  C   UNL     1      -9.757  11.875  64.286  1.00  0.00    -0.142 C  
ENDROOT
BRANCH   4   5
HETATM    5  C   UNL     1     -11.254  12.120  64.157  1.00  0.00    -0.433 C  
BRANCH   5   6
HETATM    6  C   UNL     1     -11.880  12.656  65.440  1.00  0.00    -0.473 C  
HETATM    7  C   UNL     1     -11.318  14.043  65.806  1.00  0.00    -0.312 C  
HETATM    8  C   UNL     1     -11.573  15.080  64.701  1.00  0.00    -0.386 C  
HETATM    9  C   UNL     1     -11.914  14.489  67.153  1.00  0.00    -0.373 C  
BRANCH   9  10
HETATM   10  C   UNL     1     -11.394  15.861  67.569  1.00  0.00    -0.098 C  
BRANCH  10  11
HETATM   11  C   UNL     1      -9.992  15.793  68.153  1.00  0.00    -0.214 C  
HETATM   12  C   UNL     1      -9.155  17.029  67.775  1.00  0.00    -0.228 C  
HETATM   13  C   UNL     1      -7.700  16.877  68.258  1.00  0.00    -0.205 C  
HETATM   14  C   UNL     1      -9.753  18.332  68.323  1.00  0.00    -0.350 C  
BRANCH  13  15
HETATM   15  C   UNL     1      -6.956  15.663  67.688  1.00  0.00    -0.197 C  
BRANCH  15  16
HETATM   16  C   UNL     1      -6.785  14.540  68.713  1.00  0.00    -0.091 C  
BRANCH  16  17
HETATM   17  C   UNL     1      -7.265  13.214  68.180  1.00  0.00    -0.117 C  
HETATM   18  C   UNL     1      -8.545  12.842  68.377  1.00  0.00    -0.123 C  
HETATM   19  C   UNL     1      -6.276  12.400  67.398  1.00  0.00    -0.158 C  
BRANCH  18  20
HETATM   20  C   UNL     1      -9.216  11.602  67.846  1.00  0.00    -0.171 C  
BRANCH  20  21
HETATM   21  C   UNL     1      -9.679  10.697  68.970  1.00  0.00    -0.214 C  
HETATM   22  C   UNL     1      -8.870   9.893  69.692  1.00  0.00    -0.224 C  
HETATM   23  C   UNL     1      -7.390   9.717  69.475  1.00  0.00    -0.084 C  
HETATM   24  C   UNL     1      -9.401   9.094  70.835  1.00  0.00    -0.269 C  
HETATM   25  O   UNL     1      -8.680   8.331  71.463  1.00  0.00    -0.135 OA 
HETATM   26  C   UNL     1     -10.814   9.257  71.209  1.00  0.00    -0.417 A  
HETATM   27  C   UNL     1     -11.653  10.060  70.451  1.00  0.00    -0.379 A  
HETATM   28  C   UNL     1     -11.142  10.755  69.262  1.00  0.00    -0.256 C  
HETATM   29  C   UNL     1     -13.000  10.201  70.811  1.00  0.00    -0.380 A  
HETATM   30  C   UNL     1     -13.498   9.543  71.937  1.00  0.00    -0.502 A  
HETATM   31  O   UNL     1     -11.919  11.376  68.546  1.00  0.00    -0.498 OA 
HETATM   32  C   UNL     1     -12.653   8.740  72.702  1.00  0.00    -0.282 A  
HETATM   33  C   UNL     1     -11.313   8.595  72.340  1.00  0.00    -0.353 A  
ENDBRANCH  20  21
ENDBRANCH  18  20
ENDBRANCH  16  17
ENDBRANCH  15  16
ENDBRANCH  13  15
ENDBRANCH  10  11
ENDBRANCH   9  10
ENDBRANCH   5   6
ENDBRANCH   4   5
TORSDOF 9
ENDMDL
MODEL       90
REMARK 921   NORMALIZED FREE ENERGY PREDICTED BY IDOCK:   -5.60 KCAL/MOL
REMARK 922        TOTAL FREE ENERGY PREDICTED BY IDOCK:  -11.74 KCAL/MOL
REMARK 923 INTER-LIGAND FREE ENERGY PREDICTED BY IDOCK:   -9.78 KCAL/MOL
REMARK 924 INTRA-LIGAND FREE ENERGY PREDICTED BY IDOCK:   -1.96 KCAL/MOL
REMARK 927      BINDING AFFINITY PREDICTED BY RF-SCORE:    0.00 PKD
ROOT
HETATM    1  C   UNL     1     -10.199  19.967  68.683  1.00  0.00    -0.494 C  
HETATM    2  C   UNL     1     -10.275  19.048  67.466  1.00  0.00    -0.472 C  
HETATM    3  C   UNL     1     -10.085  19.867  66.185  1.00  0.00    -0.611 C  
HETATM    4  C   UNL     1      -9.242  17.913  67.608  1.00  0.00    -0.258 C  
ENDROOT
BRANCH   4   5
HETATM    5  C   UNL     1      -9.282  16.960  66.421  1.00  0.00    -0.308 C  
BRANCH   5   6
HETATM    6  C   UNL     1     -10.653  16.321  66.220  1.00  0.00    -0.256 C  
HETATM    7  C   UNL     1     -10.598  14.793  66.413  1.00  0.00    -0.300 C  
HETATM    8  C   UNL     1     -10.110  14.406  67.818  1.00  0.00    -0.226 C  
HETATM    9  C   UNL     1     -11.982  14.197  66.107  1.00  0.00    -0.437 C  
BRANCH   9  10
HETATM   10  C   UNL     1     -11.991  12.682  66.283  1.00  0.00    -0.439 C  
BRANCH  10  11
HETATM   11  C   UNL     1     -10.738  12.030  65.719  1.00  0.00    -0.319 C  
HETATM   12  C   UNL     1     -11.023  11.294  64.397  1.00  0.00    -0.331 C  
HETATM   13  C   UNL     1      -9.776  10.526  63.915  1.00  0.00    -0.384 C  
HETATM   14  C   UNL     1     -11.512  12.240  63.292  1.00  0.00    -0.420 C  
BRANCH  13  15
HETATM   15  C   UNL     1      -9.254   9.467  64.894  1.00  0.00    -0.284 C  
BRANCH  15  16
HETATM   16  C   UNL     1      -7.833   9.759  65.377  1.00  0.00    -0.122 C  
BRANCH  16  17
HETATM   17  C   UNL     1      -7.826  10.476  66.704  1.00  0.00    -0.125 C  
HETATM   18  C   UNL     1      -8.751  10.166  67.633  1.00  0.00    -0.121 C  
HETATM   19  C   UNL     1      -6.727  11.473  66.928  1.00  0.00    -0.139 C  
BRANCH  18  20
HETATM   20  C   UNL     1      -8.842  10.714  69.033  1.00  0.00    -0.154 C  
BRANCH  20  21
HETATM   21  C   UNL     1      -9.855   9.950  69.863  1.00  0.00    -0.285 C  
HETATM   22  C   UNL     1     -11.112  10.372  70.119  1.00  0.00    -0.383 C  
HETATM   23  C   UNL     1     -11.704  11.684  69.675  1.00  0.00    -0.418 C  
HETATM   24  C   UNL     1     -12.069   9.516  70.881  1.00  0.00    -0.278 C  
HETATM   25  O   UNL     1     -13.194   9.914  71.153  1.00  0.00    -0.377 OA 
HETATM   26  C   UNL     1     -11.639   8.169  71.282  1.00  0.00    -0.305 A  
HETATM   27  C   UNL     1     -10.340   7.746  71.046  1.00  0.00    -0.215 A  
HETATM   28  C   UNL     1      -9.374   8.641  70.393  1.00  0.00    -0.171 C  
HETATM   29  C   UNL     1      -9.938   6.464  71.442  1.00  0.00    -0.206 A  
HETATM   30  C   UNL     1     -10.845   5.605  72.066  1.00  0.00    -0.300 A  
HETATM   31  O   UNL     1      -8.205   8.290  70.285  1.00  0.00    -0.114 OA 
HETATM   32  C   UNL     1     -12.153   6.029  72.300  1.00  0.00    -0.196 A  
HETATM   33  C   UNL     1     -12.552   7.308  71.910  1.00  0.00    -0.326 A  
ENDBRANCH  20  21
ENDBRANCH  18  20
ENDBRANCH  16  17
ENDBRANCH  15  16
ENDBRANCH  13  15
ENDBRANCH  10  11
ENDBRANCH   9  10
ENDBRANCH   5   6
ENDBRANCH   4   5
TORSDOF 9
ENDMDL
MODEL       91
REMARK 921   NORMALIZED FREE ENERGY PREDICTED BY IDOCK:   -5.59 KCAL/MOL
REMARK 922        TOTAL FREE ENERGY PREDICTED BY IDOCK:  -11.74 KCAL/MOL
REMARK 923 INTER-LIGAND FREE ENERGY PREDICTED BY IDOCK:   -7.47 KCAL/MOL
REMARK 924 INTRA-LIGAND FREE ENERGY PREDICTED BY IDOCK:   -4.26 KCAL/MOL
REMARK 927      BINDING AFFINITY PREDICTED BY RF-SCORE:    0.00 PKD
ROOT
HETATM    1  C   UNL     1      -8.446   6.871  72.963  1.00  0.00    -0.128 C  
HETATM    2  C   UNL     1      -8.666   6.058  71.689  1.00  0.00    -0.135 C  
HETATM    3  C   UNL     1      -8.041   4.668  71.846  1.00  0.00    -0.101 C  
HETATM    4  C   UNL     1     -10.171   6.003  71.363  1.00  0.00    -0.253 C  
ENDROOT
BRANCH   4   5
HETATM    5  C   UNL     1     -10.446   5.209  70.093  1.00  0.00    -0.305 C  
BRANCH   5   6
HETATM    6  C   UNL     1     -10.999   6.071  68.963  1.00  0.00    -0.409 C  
HETATM    7  C   UNL     1      -9.887   6.894  68.283  1.00  0.00    -0.141 C  
HETATM    8  C   UNL     1      -8.791   6.000  67.685  1.00  0.00    -0.106 C  
HETATM    9  C   UNL     1     -10.517   7.810  67.220  1.00  0.00    -0.392 C  
BRANCH   9  10
HETATM   10  C   UNL     1      -9.462   8.651  66.509  1.00  0.00    -0.278 C  
BRANCH  10  11
HETATM   11  C   UNL     1     -10.020   9.359  65.285  1.00  0.00     0.079 C  
HETATM   12  C   UNL     1      -9.327  10.714  65.043  1.00  0.00    -0.259 C  
HETATM   13  C   UNL     1      -9.999  11.476  63.884  1.00  0.00    -0.360 C  
HETATM   14  C   UNL     1      -7.826  10.563  64.767  1.00  0.00    -0.022 C  
BRANCH  13  15
HETATM   15  C   UNL     1     -11.487  11.784  64.093  1.00  0.00    -0.409 C  
BRANCH  15  16
HETATM   16  C   UNL     1     -11.765  13.280  64.250  1.00  0.00    -0.454 C  
BRANCH  16  17
HETATM   17  C   UNL     1     -11.688  13.718  65.691  1.00  0.00    -0.360 C  
HETATM   18  C   UNL     1     -11.968  12.836  66.670  1.00  0.00    -0.411 C  
HETATM   19  C   UNL     1     -11.239  15.127  65.947  1.00  0.00    -0.280 C  
BRANCH  18  20
HETATM   20  C   UNL     1     -11.859  13.072  68.154  1.00  0.00    -0.381 C  
BRANCH  20  21
HETATM   21  C   UNL     1     -10.920  12.077  68.807  1.00  0.00    -0.282 C  
HETATM   22  C   UNL     1     -11.292  11.154  69.719  1.00  0.00    -0.354 C  
HETATM   23  C   UNL     1     -12.679  10.987  70.281  1.00  0.00    -0.256 C  
HETATM   24  C   UNL     1     -10.313  10.161  70.251  1.00  0.00    -0.174 C  
HETATM   25  O   UNL     1     -10.636   9.351  71.110  1.00  0.00    -0.295 OA 
HETATM   26  C   UNL     1      -8.948  10.159  69.703  1.00  0.00    -0.190 A  
HETATM   27  C   UNL     1      -8.556  11.125  68.789  1.00  0.00    -0.133 A  
HETATM   28  C   UNL     1      -9.500  12.165  68.356  1.00  0.00    -0.179 C  
HETATM   29  C   UNL     1      -7.251  11.119  68.281  1.00  0.00    -0.083 A  
HETATM   30  C   UNL     1      -6.344  10.138  68.686  1.00  0.00    -0.052 A  
HETATM   31  O   UNL     1      -9.107  13.069  67.628  1.00  0.00    -0.179 OA 
HETATM   32  C   UNL     1      -6.739   9.163  69.602  1.00  0.00    -0.046 A  
HETATM   33  C   UNL     1      -8.039   9.172  70.112  1.00  0.00    -0.145 A  
ENDBRANCH  20  21
ENDBRANCH  18  20
ENDBRANCH  16  17
ENDBRANCH  15  16
ENDBRANCH  13  15
ENDBRANCH  10  11
ENDBRANCH   9  10
ENDBRANCH   5   6
ENDBRANCH   4   5
TORSDOF 9
ENDMDL
MODEL       92
REMARK 921   NORMALIZED FREE ENERGY PREDICTED BY IDOCK:   -5.58 KCAL/MOL
REMARK 922        TOTAL FREE ENERGY PREDICTED BY IDOCK:  -11.72 KCAL/MOL
REMARK 923 INTER-LIGAND FREE ENERGY PREDICTED BY IDOCK:   -8.33 KCAL/MOL
REMARK 924 INTRA-LIGAND FREE ENERGY PREDICTED BY IDOCK:   -3.39 KCAL/MOL
REMARK 927      BINDING AFFINITY PREDICTED BY RF-SCORE:    0.00 PKD
ROOT
HETATM    1  C   UNL     1     -10.660  16.695  69.421  1.00  0.00    -0.333 C  
HETATM    2  C   UNL     1     -11.069  15.511  70.295  1.00  0.00    -0.345 C  
HETATM    3  C   UNL     1     -11.820  16.015  71.532  1.00  0.00    -0.554 C  
HETATM    4  C   UNL     1     -11.894  14.512  69.461  1.00  0.00    -0.374 C  
ENDROOT
BRANCH   4   5
HETATM    5  C   UNL     1     -12.320  13.305  70.285  1.00  0.00    -0.334 C  
BRANCH   5   6
HETATM    6  C   UNL     1     -11.936  11.979  69.637  1.00  0.00    -0.360 C  
HETATM    7  C   UNL     1     -11.661  10.892  70.694  1.00  0.00    -0.418 C  
HETATM    8  C   UNL     1     -12.885  10.631  71.585  1.00  0.00    -0.570 C  
HETATM    9  C   UNL     1     -11.189   9.610  69.987  1.00  0.00    -0.271 C  
BRANCH   9  10
HETATM   10  C   UNL     1     -10.902   8.493  70.985  1.00  0.00    -0.290 C  
BRANCH  10  11
HETATM   11  C   UNL     1     -10.833   7.129  70.317  1.00  0.00    -0.271 C  
HETATM   12  C   UNL     1     -10.487   6.016  71.325  1.00  0.00    -0.283 C  
HETATM   13  C   UNL     1     -10.286   4.667  70.608  1.00  0.00    -0.211 C  
HETATM   14  C   UNL     1     -11.547   5.869  72.424  1.00  0.00    -0.341 C  
BRANCH  13  15
HETATM   15  C   UNL     1      -9.171   4.658  69.555  1.00  0.00    -0.182 C  
BRANCH  15  16
HETATM   16  C   UNL     1      -9.624   4.070  68.218  1.00  0.00    -0.188 C  
BRANCH  16  17
HETATM   17  C   UNL     1      -9.677   5.115  67.132  1.00  0.00    -0.171 C  
HETATM   18  C   UNL     1      -9.098   6.315  67.336  1.00  0.00    -0.111 C  
HETATM   19  C   UNL     1     -10.338   4.721  65.844  1.00  0.00    -0.303 C  
BRANCH  18  20
HETATM   20  C   UNL     1      -8.978   7.439  66.340  1.00  0.00    -0.190 C  
BRANCH  20  21
HETATM   21  C   UNL     1      -8.811   8.777  67.031  1.00  0.00    -0.139 C  
HETATM   22  C   UNL     1      -8.085   8.978  68.152  1.00  0.00    -0.105 C  
HETATM   23  C   UNL     1      -7.365   7.910  68.931  1.00  0.00    -0.085 C  
HETATM   24  C   UNL     1      -7.911  10.347  68.719  1.00  0.00    -0.122 C  
HETATM   25  O   UNL     1      -7.291  10.526  69.759  1.00  0.00    -0.145 OA 
HETATM   26  C   UNL     1      -8.485  11.488  67.990  1.00  0.00    -0.148 A  
HETATM   27  C   UNL     1      -9.256  11.281  66.856  1.00  0.00    -0.184 A  
HETATM   28  C   UNL     1      -9.511   9.918  66.370  1.00  0.00    -0.183 C  
HETATM   29  C   UNL     1      -9.806  12.374  66.174  1.00  0.00    -0.263 A  
HETATM   30  C   UNL     1      -9.573  13.673  66.629  1.00  0.00    -0.289 A  
HETATM   31  O   UNL     1     -10.277   9.747  65.428  1.00  0.00    -0.246 OA 
HETATM   32  C   UNL     1      -8.794  13.882  67.766  1.00  0.00    -0.189 A  
HETATM   33  C   UNL     1      -8.250  12.792  68.448  1.00  0.00    -0.128 A  
ENDBRANCH  20  21
ENDBRANCH  18  20
ENDBRANCH  16  17
ENDBRANCH  15  16
ENDBRANCH  13  15
ENDBRANCH  10  11
ENDBRANCH   9  10
ENDBRANCH   5   6
ENDBRANCH   4   5
TORSDOF 9
ENDMDL
MODEL       93
REMARK 921   NORMALIZED FREE ENERGY PREDICTED BY IDOCK:   -5.57 KCAL/MOL
REMARK 922        TOTAL FREE ENERGY PREDICTED BY IDOCK:  -11.71 KCAL/MOL
REMARK 923 INTER-LIGAND FREE ENERGY PREDICTED BY IDOCK:   -8.99 KCAL/MOL
REMARK 924 INTRA-LIGAND FREE ENERGY PREDICTED BY IDOCK:   -2.71 KCAL/MOL
REMARK 927      BINDING AFFINITY PREDICTED BY RF-SCORE:    0.00 PKD
ROOT
HETATM    1  C   UNL     1      -9.878  20.956  67.119  1.00  0.00    -0.263 C  
HETATM    2  C   UNL     1     -10.335  19.521  67.373  1.00  0.00    -0.572 C  
HETATM    3  C   UNL     1     -10.510  18.789  66.038  1.00  0.00    -0.483 C  
HETATM    4  C   UNL     1      -9.336  18.817  68.312  1.00  0.00    -0.374 C  
ENDROOT
BRANCH   4   5
HETATM    5  C   UNL     1      -9.751  17.382  68.606  1.00  0.00    -0.308 C  
BRANCH   5   6
HETATM    6  C   UNL     1      -8.563  16.470  68.897  1.00  0.00    -0.241 C  
HETATM    7  C   UNL     1      -8.705  15.112  68.181  1.00  0.00    -0.167 C  
HETATM    8  C   UNL     1      -8.801  15.271  66.656  1.00  0.00    -0.328 C  
HETATM    9  C   UNL     1      -7.530  14.205  68.586  1.00  0.00    -0.125 C  
BRANCH   9  10
HETATM   10  C   UNL     1      -7.614  12.843  67.906  1.00  0.00    -0.138 C  
BRANCH  10  11
HETATM   11  C   UNL     1      -7.658  11.701  68.908  1.00  0.00    -0.087 C  
HETATM   12  C   UNL     1      -6.260  11.107  69.161  1.00  0.00    -0.055 C  
HETATM   13  C   UNL     1      -6.344   9.866  70.070  1.00  0.00    -0.071 C  
HETATM   14  C   UNL     1      -5.288  12.130  69.764  1.00  0.00    -0.083 C  
BRANCH  13  15
HETATM   15  C   UNL     1      -7.206   8.722  69.520  1.00  0.00    -0.059 C  
BRANCH  15  16
HETATM   16  C   UNL     1      -8.053   8.048  70.599  1.00  0.00    -0.104 C  
BRANCH  16  17
HETATM   17  C   UNL     1      -9.520   8.357  70.438  1.00  0.00    -0.179 C  
HETATM   18  C   UNL     1      -9.915   9.634  70.263  1.00  0.00    -0.326 C  
HETATM   19  C   UNL     1     -10.462   7.190  70.429  1.00  0.00    -0.234 C  
BRANCH  18  20
HETATM   20  C   UNL     1     -11.318  10.116  70.001  1.00  0.00    -0.351 C  
BRANCH  20  21
HETATM   21  C   UNL     1     -11.380  10.999  68.771  1.00  0.00    -0.349 C  
HETATM   22  C   UNL     1     -11.731  12.303  68.778  1.00  0.00    -0.390 C  
HETATM   23  C   UNL     1     -12.167  13.086  69.988  1.00  0.00    -0.306 C  
HETATM   24  C   UNL     1     -11.688  13.117  67.528  1.00  0.00    -0.366 C  
HETATM   25  O   UNL     1     -12.047  14.287  67.523  1.00  0.00    -0.385 OA 
HETATM   26  C   UNL     1     -11.183  12.489  66.298  1.00  0.00    -0.359 A  
HETATM   27  C   UNL     1     -10.851  11.143  66.282  1.00  0.00    -0.266 A  
HETATM   28  C   UNL     1     -11.002  10.326  67.494  1.00  0.00    -0.280 C  
HETATM   29  C   UNL     1     -10.379  10.552  65.103  1.00  0.00    -0.310 A  
HETATM   30  C   UNL     1     -10.234  11.318  63.944  1.00  0.00    -0.420 A  
HETATM   31  O   UNL     1     -10.803   9.118  67.435  1.00  0.00    -0.243 OA 
HETATM   32  C   UNL     1     -10.563  12.673  63.961  1.00  0.00    -0.457 A  
HETATM   33  C   UNL     1     -11.038  13.260  65.135  1.00  0.00    -0.315 A  
ENDBRANCH  20  21
ENDBRANCH  18  20
ENDBRANCH  16  17
ENDBRANCH  15  16
ENDBRANCH  13  15
ENDBRANCH  10  11
ENDBRANCH   9  10
ENDBRANCH   5   6
ENDBRANCH   4   5
TORSDOF 9
ENDMDL
MODEL       94
REMARK 921   NORMALIZED FREE ENERGY PREDICTED BY IDOCK:   -5.57 KCAL/MOL
REMARK 922        TOTAL FREE ENERGY PREDICTED BY IDOCK:  -11.70 KCAL/MOL
REMARK 923 INTER-LIGAND FREE ENERGY PREDICTED BY IDOCK:   -7.56 KCAL/MOL
REMARK 924 INTRA-LIGAND FREE ENERGY PREDICTED BY IDOCK:   -4.14 KCAL/MOL
REMARK 927      BINDING AFFINITY PREDICTED BY RF-SCORE:    0.00 PKD
ROOT
HETATM    1  C   UNL     1     -12.105  14.320  64.191  1.00  0.00    -0.423 C  
HETATM    2  C   UNL     1     -11.461  13.841  65.490  1.00  0.00    -0.319 C  
HETATM    3  C   UNL     1     -10.078  14.480  65.651  1.00  0.00    -0.384 C  
HETATM    4  C   UNL     1     -12.399  14.142  66.675  1.00  0.00    -0.375 C  
ENDROOT
BRANCH   4   5
HETATM    5  C   UNL     1     -11.808  13.674  67.998  1.00  0.00    -0.397 C  
BRANCH   5   6
HETATM    6  C   UNL     1     -11.784  12.155  68.132  1.00  0.00    -0.402 C  
HETATM    7  C   UNL     1     -11.356  11.720  69.547  1.00  0.00    -0.317 C  
HETATM    8  C   UNL     1     -12.302  12.263  70.629  1.00  0.00    -0.375 C  
HETATM    9  C   UNL     1     -11.260  10.185  69.595  1.00  0.00    -0.310 C  
BRANCH   9  10
HETATM   10  C   UNL     1     -10.841   9.693  70.976  1.00  0.00    -0.412 C  
BRANCH  10  11
HETATM   11  C   UNL     1     -10.959   8.183  71.108  1.00  0.00    -0.271 C  
HETATM   12  C   UNL     1     -12.071   7.781  72.095  1.00  0.00    -0.346 C  
HETATM   13  C   UNL     1     -12.083   6.256  72.320  1.00  0.00    -0.255 C  
HETATM   14  C   UNL     1     -13.458   8.251  71.639  1.00  0.00    -0.358 C  
BRANCH  13  15
HETATM   15  C   UNL     1     -10.778   5.679  72.883  1.00  0.00    -0.286 C  
BRANCH  15  16
HETATM   16  C   UNL     1     -10.466   4.284  72.339  1.00  0.00    -0.196 C  
BRANCH  16  17
HETATM   17  C   UNL     1      -9.420   4.323  71.253  1.00  0.00    -0.229 C  
HETATM   18  C   UNL     1      -8.634   5.410  71.127  1.00  0.00    -0.128 C  
HETATM   19  C   UNL     1      -9.284   3.097  70.400  1.00  0.00    -0.215 C  
BRANCH  18  20
HETATM   20  C   UNL     1      -7.489   5.588  70.164  1.00  0.00    -0.070 C  
BRANCH  20  21
HETATM   21  C   UNL     1      -7.757   6.714  69.185  1.00  0.00    -0.106 C  
HETATM   22  C   UNL     1      -8.346   6.560  67.980  1.00  0.00    -0.116 C  
HETATM   23  C   UNL     1      -8.787   5.251  67.381  1.00  0.00    -0.105 C  
HETATM   24  C   UNL     1      -8.642   7.740  67.114  1.00  0.00    -0.128 C  
HETATM   25  O   UNL     1      -9.135   7.600  66.003  1.00  0.00    -0.166 OA 
HETATM   26  C   UNL     1      -8.348   9.083  67.633  1.00  0.00    -0.117 A  
HETATM   27  C   UNL     1      -7.716   9.241  68.857  1.00  0.00    -0.079 A  
HETATM   28  C   UNL     1      -7.330   8.066  69.651  1.00  0.00    -0.085 C  
HETATM   29  C   UNL     1      -7.432  10.526  69.338  1.00  0.00    -0.141 A  
HETATM   30  C   UNL     1      -7.791  11.650  68.592  1.00  0.00    -0.132 A  
HETATM   31  O   UNL     1      -6.682   8.220  70.680  1.00  0.00    -0.036 OA 
HETATM   32  C   UNL     1      -8.431  11.491  67.363  1.00  0.00    -0.147 A  
HETATM   33  C   UNL     1      -8.709  10.211  66.882  1.00  0.00    -0.135 A  
ENDBRANCH  20  21
ENDBRANCH  18  20
ENDBRANCH  16  17
ENDBRANCH  15  16
ENDBRANCH  13  15
ENDBRANCH  10  11
ENDBRANCH   9  10
ENDBRANCH   5   6
ENDBRANCH   4   5
TORSDOF 9
ENDMDL
MODEL       95
REMARK 921   NORMALIZED FREE ENERGY PREDICTED BY IDOCK:   -5.57 KCAL/MOL
REMARK 922        TOTAL FREE ENERGY PREDICTED BY IDOCK:  -11.70 KCAL/MOL
REMARK 923 INTER-LIGAND FREE ENERGY PREDICTED BY IDOCK:   -7.02 KCAL/MOL
REMARK 924 INTRA-LIGAND FREE ENERGY PREDICTED BY IDOCK:   -4.69 KCAL/MOL
REMARK 927      BINDING AFFINITY PREDICTED BY RF-SCORE:    0.00 PKD
ROOT
HETATM    1  C   UNL     1     -12.361  14.000  64.926  1.00  0.00    -0.447 C  
HETATM    2  C   UNL     1     -11.892  12.587  64.583  1.00  0.00    -0.439 C  
HETATM    3  C   UNL     1     -12.779  12.000  63.481  1.00  0.00    -0.567 C  
HETATM    4  C   UNL     1     -10.400  12.616  64.198  1.00  0.00    -0.412 C  
ENDROOT
BRANCH   4   5
HETATM    5  C   UNL     1      -9.878  11.227  63.855  1.00  0.00    -0.341 C  
BRANCH   5   6
HETATM    6  C   UNL     1      -9.969  10.254  65.026  1.00  0.00    -0.393 C  
HETATM    7  C   UNL     1      -8.668   9.445  65.191  1.00  0.00    -0.210 C  
HETATM    8  C   UNL     1      -7.452  10.351  65.439  1.00  0.00    -0.127 C  
HETATM    9  C   UNL     1      -8.853   8.419  66.322  1.00  0.00    -0.190 C  
BRANCH   9  10
HETATM   10  C   UNL     1      -7.592   7.587  66.535  1.00  0.00    -0.089 C  
BRANCH  10  11
HETATM   11  C   UNL     1      -7.903   6.198  67.070  1.00  0.00    -0.101 C  
HETATM   12  C   UNL     1      -8.781   5.392  66.093  1.00  0.00    -0.129 C  
HETATM   13  C   UNL     1      -9.198   4.044  66.713  1.00  0.00    -0.178 C  
HETATM   14  C   UNL     1      -8.090   5.154  64.744  1.00  0.00    -0.117 C  
BRANCH  13  15
HETATM   15  C   UNL     1      -9.996   4.156  68.018  1.00  0.00    -0.006 C  
BRANCH  15  16
HETATM   16  C   UNL     1      -9.250   3.574  69.219  1.00  0.00    -0.230 C  
BRANCH  16  17
HETATM   17  C   UNL     1      -8.846   4.643  70.203  1.00  0.00    -0.126 C  
HETATM   18  C   UNL     1      -9.610   5.745  70.338  1.00  0.00    -0.210 C  
HETATM   19  C   UNL     1      -7.622   4.377  71.027  1.00  0.00    -0.063 C  
BRANCH  18  20
HETATM   20  C   UNL     1      -9.410   6.865  71.325  1.00  0.00    -0.164 C  
BRANCH  20  21
HETATM   21  C   UNL     1      -9.166   8.186  70.622  1.00  0.00    -0.162 C  
HETATM   22  C   UNL     1      -7.949   8.665  70.288  1.00  0.00    -0.106 C  
HETATM   23  C   UNL     1      -6.633   8.003  70.597  1.00  0.00    -0.037 C  
HETATM   24  C   UNL     1      -7.808   9.940  69.525  1.00  0.00    -0.140 C  
HETATM   25  O   UNL     1      -6.706  10.399  69.259  1.00  0.00    -0.055 OA 
HETATM   26  C   UNL     1      -9.028  10.629  69.078  1.00  0.00    -0.165 A  
HETATM   27  C   UNL     1     -10.278  10.155  69.446  1.00  0.00    -0.246 A  
HETATM   28  C   UNL     1     -10.400   8.958  70.290  1.00  0.00    -0.206 C  
HETATM   29  C   UNL     1     -11.433  10.824  69.022  1.00  0.00    -0.368 A  
HETATM   30  C   UNL     1     -11.330  11.964  68.222  1.00  0.00    -0.335 A  
HETATM   31  O   UNL     1     -11.506   8.613  70.691  1.00  0.00    -0.269 OA 
HETATM   32  C   UNL     1     -10.074  12.438  67.848  1.00  0.00    -0.208 A  
HETATM   33  C   UNL     1      -8.923  11.774  68.275  1.00  0.00    -0.180 A  
ENDBRANCH  20  21
ENDBRANCH  18  20
ENDBRANCH  16  17
ENDBRANCH  15  16
ENDBRANCH  13  15
ENDBRANCH  10  11
ENDBRANCH   9  10
ENDBRANCH   5   6
ENDBRANCH   4   5
TORSDOF 9
ENDMDL
MODEL       96
REMARK 921   NORMALIZED FREE ENERGY PREDICTED BY IDOCK:   -5.57 KCAL/MOL
REMARK 922        TOTAL FREE ENERGY PREDICTED BY IDOCK:  -11.70 KCAL/MOL
REMARK 923 INTER-LIGAND FREE ENERGY PREDICTED BY IDOCK:   -8.24 KCAL/MOL
REMARK 924 INTRA-LIGAND FREE ENERGY PREDICTED BY IDOCK:   -3.47 KCAL/MOL
REMARK 927      BINDING AFFINITY PREDICTED BY RF-SCORE:    0.00 PKD
ROOT
HETATM    1  C   UNL     1     -12.478   8.510  71.805  1.00  0.00    -0.388 C  
HETATM    2  C   UNL     1     -10.974   8.284  71.671  1.00  0.00    -0.327 C  
HETATM    3  C   UNL     1     -10.712   6.980  70.909  1.00  0.00    -0.259 C  
HETATM    4  C   UNL     1     -10.323   9.509  71.000  1.00  0.00    -0.353 C  
ENDROOT
BRANCH   4   5
HETATM    5  C   UNL     1      -8.818   9.338  70.850  1.00  0.00    -0.252 C  
BRANCH   5   6
HETATM    6  C   UNL     1      -8.347   9.469  69.405  1.00  0.00    -0.140 C  
HETATM    7  C   UNL     1      -7.617  10.805  69.168  1.00  0.00    -0.133 C  
HETATM    8  C   UNL     1      -6.383  10.956  70.069  1.00  0.00    -0.142 C  
HETATM    9  C   UNL     1      -7.251  10.922  67.678  1.00  0.00    -0.093 C  
BRANCH   9  10
HETATM   10  C   UNL     1      -6.521  12.227  67.381  1.00  0.00    -0.157 C  
BRANCH  10  11
HETATM   11  C   UNL     1      -7.369  13.447  67.706  1.00  0.00    -0.158 C  
HETATM   12  C   UNL     1      -6.597  14.466  68.565  1.00  0.00    -0.094 C  
HETATM   13  C   UNL     1      -7.515  15.627  68.999  1.00  0.00    -0.181 C  
HETATM   14  C   UNL     1      -5.360  15.021  67.848  1.00  0.00    -0.108 C  
BRANCH  13  15
HETATM   15  C   UNL     1      -8.738  15.206  69.823  1.00  0.00     0.056 C  
BRANCH  15  16
HETATM   16  C   UNL     1      -9.965  16.077  69.547  1.00  0.00    -0.255 C  
BRANCH  16  17
HETATM   17  C   UNL     1     -10.695  15.642  68.301  1.00  0.00    -0.283 C  
HETATM   18  C   UNL     1     -11.425  14.509  68.319  1.00  0.00    -0.336 C  
HETATM   19  C   UNL     1     -10.605  16.551  67.111  1.00  0.00    -0.270 C  
BRANCH  18  20
HETATM   20  C   UNL     1     -12.283  13.971  67.204  1.00  0.00    -0.356 C  
BRANCH  20  21
HETATM   21  C   UNL     1     -11.530  12.959  66.364  1.00  0.00    -0.389 C  
HETATM   22  C   UNL     1     -10.952  13.227  65.174  1.00  0.00    -0.314 C  
HETATM   23  C   UNL     1     -10.997  14.550  64.457  1.00  0.00    -0.264 C  
HETATM   24  C   UNL     1     -10.162  12.186  64.452  1.00  0.00    -0.306 C  
HETATM   25  O   UNL     1      -9.673  12.412  63.354  1.00  0.00    -0.312 OA 
HETATM   26  C   UNL     1      -9.962  10.881  65.101  1.00  0.00    -0.341 A  
HETATM   27  C   UNL     1     -10.581  10.595  66.308  1.00  0.00    -0.229 A  
HETATM   28  C   UNL     1     -11.446  11.591  66.955  1.00  0.00    -0.214 C  
HETATM   29  C   UNL     1     -10.391   9.345  66.913  1.00  0.00    -0.308 A  
HETATM   30  C   UNL     1      -9.574   8.389  66.306  1.00  0.00    -0.286 A  
HETATM   31  O   UNL     1     -12.065  11.285  67.968  1.00  0.00    -0.638 OA 
HETATM   32  C   UNL     1      -8.948   8.679  65.094  1.00  0.00    -0.111 A  
HETATM   33  C   UNL     1      -9.141   9.922  64.490  1.00  0.00    -0.296 A  
ENDBRANCH  20  21
ENDBRANCH  18  20
ENDBRANCH  16  17
ENDBRANCH  15  16
ENDBRANCH  13  15
ENDBRANCH  10  11
ENDBRANCH   9  10
ENDBRANCH   5   6
ENDBRANCH   4   5
TORSDOF 9
ENDMDL
MODEL       97
REMARK 921   NORMALIZED FREE ENERGY PREDICTED BY IDOCK:   -5.57 KCAL/MOL
REMARK 922        TOTAL FREE ENERGY PREDICTED BY IDOCK:  -11.70 KCAL/MOL
REMARK 923 INTER-LIGAND FREE ENERGY PREDICTED BY IDOCK:   -9.26 KCAL/MOL
REMARK 924 INTRA-LIGAND FREE ENERGY PREDICTED BY IDOCK:   -2.44 KCAL/MOL
REMARK 927      BINDING AFFINITY PREDICTED BY RF-SCORE:    0.00 PKD
ROOT
HETATM    1  C   UNL     1      -8.604  20.935  67.209  1.00  0.00    -0.131 C  
HETATM    2  C   UNL     1      -9.513  19.765  67.579  1.00  0.00    -0.456 C  
HETATM    3  C   UNL     1     -10.243  19.260  66.329  1.00  0.00    -0.546 C  
HETATM    4  C   UNL     1      -8.686  18.665  68.272  1.00  0.00    -0.349 C  
ENDROOT
BRANCH   4   5
HETATM    5  C   UNL     1      -9.549  17.476  68.671  1.00  0.00    -0.303 C  
BRANCH   5   6
HETATM    6  C   UNL     1      -8.727  16.246  69.045  1.00  0.00    -0.246 C  
HETATM    7  C   UNL     1      -8.630  15.253  67.871  1.00  0.00    -0.153 C  
HETATM    8  C   UNL     1      -7.976  15.885  66.633  1.00  0.00    -0.270 C  
HETATM    9  C   UNL     1      -7.873  13.997  68.336  1.00  0.00    -0.144 C  
BRANCH   9  10
HETATM   10  C   UNL     1      -7.743  12.974  67.212  1.00  0.00    -0.112 C  
BRANCH  10  11
HETATM   11  C   UNL     1      -7.385  11.591  67.732  1.00  0.00    -0.096 C  
HETATM   12  C   UNL     1      -6.768  10.708  66.630  1.00  0.00    -0.106 C  
HETATM   13  C   UNL     1      -6.540   9.271  67.139  1.00  0.00    -0.068 C  
HETATM   14  C   UNL     1      -5.453  11.282  66.086  1.00  0.00    -0.109 C  
BRANCH  13  15
HETATM   15  C   UNL     1      -7.808   8.548  67.612  1.00  0.00    -0.103 C  
BRANCH  15  16
HETATM   16  C   UNL     1      -8.002   8.625  69.127  1.00  0.00    -0.110 C  
BRANCH  16  17
HETATM   17  C   UNL     1      -9.432   8.929  69.497  1.00  0.00    -0.159 C  
HETATM   18  C   UNL     1     -10.187   9.679  68.670  1.00  0.00    -0.209 C  
HETATM   19  C   UNL     1      -9.949   8.316  70.764  1.00  0.00    -0.217 C  
BRANCH  18  20
HETATM   20  C   UNL     1     -11.648  10.009  68.833  1.00  0.00     0.029 C  
BRANCH  20  21
HETATM   21  C   UNL     1     -11.849  11.460  69.222  1.00  0.00    -0.417 C  
HETATM   22  C   UNL     1     -11.689  12.508  68.386  1.00  0.00    -0.375 C  
HETATM   23  C   UNL     1     -11.239  12.424  66.952  1.00  0.00    -0.359 C  
HETATM   24  C   UNL     1     -11.986  13.901  68.834  1.00  0.00    -0.358 C  
HETATM   25  O   UNL     1     -11.801  14.857  68.093  1.00  0.00    -0.330 OA 
HETATM   26  C   UNL     1     -12.530  14.102  70.185  1.00  0.00    -0.391 A  
HETATM   27  C   UNL     1     -12.665  13.031  71.055  1.00  0.00    -0.347 A  
HETATM   28  C   UNL     1     -12.266  11.680  70.638  1.00  0.00    -0.366 C  
HETATM   29  C   UNL     1     -13.175  13.235  72.344  1.00  0.00    -0.539 A  
HETATM   30  C   UNL     1     -13.556  14.515  72.753  1.00  0.00    -0.533 A  
HETATM   31  O   UNL     1     -12.296  10.764  71.452  1.00  0.00    -0.358 OA 
HETATM   32  C   UNL     1     -13.424  15.592  71.877  1.00  0.00    -0.576 A  
HETATM   33  C   UNL     1     -12.911  15.388  70.594  1.00  0.00    -0.450 A  
ENDBRANCH  20  21
ENDBRANCH  18  20
ENDBRANCH  16  17
ENDBRANCH  15  16
ENDBRANCH  13  15
ENDBRANCH  10  11
ENDBRANCH   9  10
ENDBRANCH   5   6
ENDBRANCH   4   5
TORSDOF 9
ENDMDL
MODEL       98
REMARK 921   NORMALIZED FREE ENERGY PREDICTED BY IDOCK:   -5.55 KCAL/MOL
REMARK 922        TOTAL FREE ENERGY PREDICTED BY IDOCK:  -11.68 KCAL/MOL
REMARK 923 INTER-LIGAND FREE ENERGY PREDICTED BY IDOCK:   -9.67 KCAL/MOL
REMARK 924 INTRA-LIGAND FREE ENERGY PREDICTED BY IDOCK:   -2.01 KCAL/MOL
REMARK 927      BINDING AFFINITY PREDICTED BY RF-SCORE:    0.00 PKD
ROOT
HETATM    1  C   UNL     1     -10.265  18.431  66.954  1.00  0.00    -0.403 C  
HETATM    2  C   UNL     1      -9.057  17.498  66.985  1.00  0.00    -0.255 C  
HETATM    3  C   UNL     1      -7.862  18.174  66.305  1.00  0.00    -0.280 C  
HETATM    4  C   UNL     1      -8.760  17.083  68.439  1.00  0.00    -0.247 C  
ENDROOT
BRANCH   4   5
HETATM    5  C   UNL     1      -7.567  16.142  68.526  1.00  0.00    -0.170 C  
BRANCH   5   6
HETATM    6  C   UNL     1      -7.960  14.718  68.909  1.00  0.00    -0.160 C  
HETATM    7  C   UNL     1      -7.361  13.685  67.935  1.00  0.00    -0.148 C  
HETATM    8  C   UNL     1      -5.826  13.746  67.902  1.00  0.00    -0.135 C  
HETATM    9  C   UNL     1      -7.867  12.283  68.314  1.00  0.00    -0.153 C  
BRANCH   9  10
HETATM   10  C   UNL     1      -7.304  11.214  67.384  1.00  0.00    -0.108 C  
BRANCH  10  11
HETATM   11  C   UNL     1      -8.299  10.803  66.310  1.00  0.00    -0.160 C  
HETATM   12  C   UNL     1      -7.594  10.236  65.064  1.00  0.00    -0.124 C  
HETATM   13  C   UNL     1      -8.607   9.956  63.937  1.00  0.00    -0.202 C  
HETATM   14  C   UNL     1      -6.791   8.965  65.371  1.00  0.00    -0.072 C  
BRANCH  13  15
HETATM   15  C   UNL     1      -9.399  11.182  63.464  1.00  0.00    -0.249 C  
BRANCH  15  16
HETATM   16  C   UNL     1     -10.851  11.168  63.944  1.00  0.00    -0.346 C  
BRANCH  16  17
HETATM   17  C   UNL     1     -11.218  12.441  64.664  1.00  0.00    -0.356 C  
HETATM   18  C   UNL     1     -10.726  12.674  65.897  1.00  0.00    -0.293 C  
HETATM   19  C   UNL     1     -12.084  13.415  63.920  1.00  0.00    -0.514 C  
BRANCH  18  20
HETATM   20  C   UNL     1     -10.914  13.919  66.723  1.00  0.00    -0.301 C  
BRANCH  20  21
HETATM   21  C   UNL     1     -11.498  13.599  68.084  1.00  0.00    -0.348 C  
HETATM   22  C   UNL     1     -11.648  12.352  68.582  1.00  0.00    -0.365 C  
HETATM   23  C   UNL     1     -11.313  11.075  67.859  1.00  0.00    -0.381 C  
HETATM   24  C   UNL     1     -12.160  12.135  69.967  1.00  0.00    -0.277 C  
HETATM   25  O   UNL     1     -12.339  11.006  70.405  1.00  0.00    -0.320 OA 
HETATM   26  C   UNL     1     -12.429  13.310  70.809  1.00  0.00    -0.403 A  
HETATM   27  C   UNL     1     -12.304  14.590  70.289  1.00  0.00    -0.408 A  
HETATM   28  C   UNL     1     -11.904  14.788  68.889  1.00  0.00    -0.296 C  
HETATM   29  C   UNL     1     -12.572  15.702  71.098  1.00  0.00    -0.511 A  
HETATM   30  C   UNL     1     -12.955  15.526  72.429  1.00  0.00    -0.511 A  
HETATM   31  O   UNL     1     -11.899  15.920  68.419  1.00  0.00    -0.322 OA 
HETATM   32  C   UNL     1     -13.076  14.240  72.952  1.00  0.00    -0.589 A  
HETATM   33  C   UNL     1     -12.814  13.131  72.145  1.00  0.00    -0.265 A  
ENDBRANCH  20  21
ENDBRANCH  18  20
ENDBRANCH  16  17
ENDBRANCH  15  16
ENDBRANCH  13  15
ENDBRANCH  10  11
ENDBRANCH   9  10
ENDBRANCH   5   6
ENDBRANCH   4   5
TORSDOF 9
ENDMDL
MODEL       99
REMARK 921   NORMALIZED FREE ENERGY PREDICTED BY IDOCK:   -5.55 KCAL/MOL
REMARK 922        TOTAL FREE ENERGY PREDICTED BY IDOCK:  -11.67 KCAL/MOL
REMARK 923 INTER-LIGAND FREE ENERGY PREDICTED BY IDOCK:   -9.95 KCAL/MOL
REMARK 924 INTRA-LIGAND FREE ENERGY PREDICTED BY IDOCK:   -1.72 KCAL/MOL
REMARK 927      BINDING AFFINITY PREDICTED BY RF-SCORE:    0.00 PKD
ROOT
HETATM    1  C   UNL     1      -6.161  20.258  70.345  1.00  0.00    -0.359 C  
HETATM    2  C   UNL     1      -6.222  19.729  68.913  1.00  0.00    -0.311 C  
HETATM    3  C   UNL     1      -5.472  18.395  68.821  1.00  0.00    -0.186 C  
HETATM    4  C   UNL     1      -7.691  19.620  68.463  1.00  0.00    -0.369 C  
ENDROOT
BRANCH   4   5
HETATM    5  C   UNL     1      -7.808  19.104  67.035  1.00  0.00    -0.266 C  
BRANCH   5   6
HETATM    6  C   UNL     1      -9.148  18.431  66.756  1.00  0.00    -0.293 C  
HETATM    7  C   UNL     1      -9.026  16.895  66.784  1.00  0.00    -0.264 C  
HETATM    8  C   UNL     1      -8.527  16.381  68.143  1.00  0.00    -0.188 C  
HETATM    9  C   UNL     1     -10.382  16.275  66.405  1.00  0.00    -0.319 C  
BRANCH   9  10
HETATM   10  C   UNL     1     -10.324  14.751  66.418  1.00  0.00    -0.297 C  
BRANCH  10  11
HETATM   11  C   UNL     1     -10.360  14.162  65.017  1.00  0.00    -0.443 C  
HETATM   12  C   UNL     1     -11.331  12.970  64.924  1.00  0.00    -0.332 C  
HETATM   13  C   UNL     1     -11.251  12.302  63.537  1.00  0.00    -0.535 C  
HETATM   14  C   UNL     1     -12.781  13.369  65.227  1.00  0.00    -0.481 C  
BRANCH  13  15
HETATM   15  C   UNL     1      -9.866  11.760  63.163  1.00  0.00    -0.363 C  
BRANCH  15  16
HETATM   16  C   UNL     1      -9.646  10.322  63.634  1.00  0.00    -0.334 C  
BRANCH  16  17
HETATM   17  C   UNL     1      -8.824  10.262  64.897  1.00  0.00    -0.213 C  
HETATM   18  C   UNL     1      -9.412  10.508  66.085  1.00  0.00    -0.222 C  
HETATM   19  C   UNL     1      -7.384   9.870  64.750  1.00  0.00    -0.136 C  
BRANCH  18  20
HETATM   20  C   UNL     1      -8.772  10.409  67.445  1.00  0.00    -0.125 C  
BRANCH  20  21
HETATM   21  C   UNL     1      -9.721   9.809  68.463  1.00  0.00    -0.164 C  
HETATM   22  C   UNL     1      -9.708   8.519  68.859  1.00  0.00    -0.172 C  
HETATM   23  C   UNL     1      -8.792   7.449  68.326  1.00  0.00    -0.128 C  
HETATM   24  C   UNL     1     -10.631   8.033  69.927  1.00  0.00    -0.242 C  
HETATM   25  O   UNL     1     -10.652   6.855  70.257  1.00  0.00    -0.206 OA 
HETATM   26  C   UNL     1     -11.505   9.008  70.595  1.00  0.00    -0.291 A  
HETATM   27  C   UNL     1     -11.542  10.327  70.170  1.00  0.00    -0.376 A  
HETATM   28  C   UNL     1     -10.707  10.768  69.043  1.00  0.00    -0.228 C  
HETATM   29  C   UNL     1     -12.385  11.246  70.808  1.00  0.00    -0.495 A  
HETATM   30  C   UNL     1     -13.185  10.838  71.877  1.00  0.00    -0.524 A  
HETATM   31  O   UNL     1     -10.828  11.910  68.615  1.00  0.00    -0.216 OA 
HETATM   32  C   UNL     1     -13.145   9.513  72.309  1.00  0.00    -0.492 A  
HETATM   33  C   UNL     1     -12.308   8.597  71.669  1.00  0.00    -0.384 A  
ENDBRANCH  20  21
ENDBRANCH  18  20
ENDBRANCH  16  17
ENDBRANCH  15  16
ENDBRANCH  13  15
ENDBRANCH  10  11
ENDBRANCH   9  10
ENDBRANCH   5   6
ENDBRANCH   4   5
TORSDOF 9
ENDMDL
MODEL      100
REMARK 921   NORMALIZED FREE ENERGY PREDICTED BY IDOCK:   -5.54 KCAL/MOL
REMARK 922        TOTAL FREE ENERGY PREDICTED BY IDOCK:  -11.66 KCAL/MOL
REMARK 923 INTER-LIGAND FREE ENERGY PREDICTED BY IDOCK:   -8.44 KCAL/MOL
REMARK 924 INTRA-LIGAND FREE ENERGY PREDICTED BY IDOCK:   -3.22 KCAL/MOL
REMARK 927      BINDING AFFINITY PREDICTED BY RF-SCORE:    0.00 PKD
ROOT
HETATM    1  C   UNL     1      -7.486   9.906  64.773  1.00  0.00    -0.136 C  
HETATM    2  C   UNL     1      -8.992   9.987  64.533  1.00  0.00    -0.261 C  
HETATM    3  C   UNL     1      -9.730   9.160  65.591  1.00  0.00    -0.247 C  
HETATM    4  C   UNL     1      -9.435  11.462  64.512  1.00  0.00    -0.160 C  
ENDROOT
BRANCH   4   5
HETATM    5  C   UNL     1     -10.931  11.600  64.267  1.00  0.00    -0.418 C  
BRANCH   5   6
HETATM    6  C   UNL     1     -11.678  12.173  65.467  1.00  0.00    -0.384 C  
HETATM    7  C   UNL     1     -11.208  13.604  65.795  1.00  0.00    -0.302 C  
HETATM    8  C   UNL     1     -11.423  14.566  64.616  1.00  0.00    -0.389 C  
HETATM    9  C   UNL     1     -11.927  14.091  67.065  1.00  0.00    -0.472 C  
BRANCH   9  10
HETATM   10  C   UNL     1     -11.503  15.507  67.440  1.00  0.00    -0.140 C  
BRANCH  10  11
HETATM   11  C   UNL     1     -10.057  15.570  67.905  1.00  0.00    -0.224 C  
HETATM   12  C   UNL     1      -9.254  16.636  67.134  1.00  0.00    -0.233 C  
HETATM   13  C   UNL     1      -7.763  16.589  67.522  1.00  0.00    -0.171 C  
HETATM   14  C   UNL     1      -9.804  18.052  67.347  1.00  0.00    -0.309 C  
BRANCH  13  15
HETATM   15  C   UNL     1      -7.070  15.248  67.253  1.00  0.00    -0.187 C  
BRANCH  15  16
HETATM   16  C   UNL     1      -6.961  14.376  68.504  1.00  0.00    -0.100 C  
BRANCH  16  17
HETATM   17  C   UNL     1      -7.292  12.934  68.217  1.00  0.00    -0.118 C  
HETATM   18  C   UNL     1      -8.503  12.449  68.557  1.00  0.00    -0.069 C  
HETATM   19  C   UNL     1      -6.247  12.128  67.503  1.00  0.00    -0.130 C  
BRANCH  18  20
HETATM   20  C   UNL     1      -9.034  11.069  68.271  1.00  0.00    -0.155 C  
BRANCH  20  21
HETATM   21  C   UNL     1      -9.685  10.459  69.497  1.00  0.00    -0.196 C  
HETATM   22  C   UNL     1     -10.984  10.611  69.832  1.00  0.00    -0.337 C  
HETATM   23  C   UNL     1     -11.990  11.446  69.084  1.00  0.00    -0.395 C  
HETATM   24  C   UNL     1     -11.558   9.908  71.017  1.00  0.00    -0.389 C  
HETATM   25  O   UNL     1     -12.724  10.079  71.349  1.00  0.00    -0.347 OA 
HETATM   26  C   UNL     1     -10.698   8.984  71.770  1.00  0.00    -0.437 A  
HETATM   27  C   UNL     1      -9.356   8.850  71.445  1.00  0.00    -0.338 A  
HETATM   28  C   UNL     1      -8.777   9.632  70.344  1.00  0.00    -0.166 C  
HETATM   29  C   UNL     1      -8.543   7.974  72.176  1.00  0.00    -0.206 A  
HETATM   30  C   UNL     1      -9.082   7.228  73.226  1.00  0.00    -0.201 A  
HETATM   31  O   UNL     1      -7.570   9.578  70.137  1.00  0.00    -0.104 OA 
HETATM   32  C   UNL     1     -10.432   7.359  73.550  1.00  0.00    -0.396 A  
HETATM   33  C   UNL     1     -11.241   8.236  72.825  1.00  0.00    -0.322 A  
ENDBRANCH  20  21
ENDBRANCH  18  20
ENDBRANCH  16  17
ENDBRANCH  15  16
ENDBRANCH  13  15
ENDBRANCH  10  11
ENDBRANCH   9  10
ENDBRANCH   5   6
ENDBRANCH   4   5
TORSDOF 9
ENDMDL
MODEL      101
REMARK 921   NORMALIZED FREE ENERGY PREDICTED BY IDOCK:   -5.54 KCAL/MOL
REMARK 922        TOTAL FREE ENERGY PREDICTED BY IDOCK:  -11.66 KCAL/MOL
REMARK 923 INTER-LIGAND FREE ENERGY PREDICTED BY IDOCK:   -7.80 KCAL/MOL
REMARK 924 INTRA-LIGAND FREE ENERGY PREDICTED BY IDOCK:   -3.86 KCAL/MOL
REMARK 927      BINDING AFFINITY PREDICTED BY RF-SCORE:    0.00 PKD
ROOT
HETATM    1  C   UNL     1     -10.828   3.336  74.420  1.00  0.00    -0.057 C  
HETATM    2  C   UNL     1      -9.829   3.736  73.337  1.00  0.00    -0.161 C  
HETATM    3  C   UNL     1      -8.870   2.572  73.062  1.00  0.00    -0.076 C  
HETATM    4  C   UNL     1     -10.586   4.196  72.077  1.00  0.00     0.023 C  
ENDROOT
BRANCH   4   5
HETATM    5  C   UNL     1      -9.633   4.615  70.965  1.00  0.00    -0.245 C  
BRANCH   5   6
HETATM    6  C   UNL     1     -10.329   5.384  69.846  1.00  0.00    -0.377 C  
HETATM    7  C   UNL     1      -9.349   6.313  69.105  1.00  0.00    -0.133 C  
HETATM    8  C   UNL     1      -8.182   5.537  68.475  1.00  0.00    -0.098 C  
HETATM    9  C   UNL     1     -10.124   7.127  68.055  1.00  0.00    -0.201 C  
BRANCH   9  10
HETATM   10  C   UNL     1      -9.203   8.067  67.284  1.00  0.00    -0.164 C  
BRANCH  10  11
HETATM   11  C   UNL     1      -9.881   8.661  66.060  1.00  0.00    -0.183 C  
HETATM   12  C   UNL     1      -9.041   9.790  65.432  1.00  0.00    -0.251 C  
HETATM   13  C   UNL     1      -9.807  10.470  64.280  1.00  0.00    -0.402 C  
HETATM   14  C   UNL     1      -7.677   9.297  64.932  1.00  0.00    -0.110 C  
BRANCH  13  15
HETATM   15  C   UNL     1     -11.146  11.101  64.681  1.00  0.00    -0.154 C  
BRANCH  15  16
HETATM   16  C   UNL     1     -10.983  12.491  65.297  1.00  0.00    -0.329 C  
BRANCH  16  17
HETATM   17  C   UNL     1     -11.556  12.559  66.690  1.00  0.00    -0.442 C  
HETATM   18  C   UNL     1     -11.360  11.533  67.542  1.00  0.00    -0.366 C  
HETATM   19  C   UNL     1     -12.278  13.820  67.064  1.00  0.00    -0.381 C  
BRANCH  18  20
HETATM   20  C   UNL     1     -11.781  11.467  68.987  1.00  0.00    -0.409 C  
BRANCH  20  21
HETATM   21  C   UNL     1     -10.875  10.552  69.787  1.00  0.00    -0.335 C  
HETATM   22  C   UNL     1      -9.531  10.507  69.668  1.00  0.00    -0.029 C  
HETATM   23  C   UNL     1      -8.710  11.310  68.694  1.00  0.00    -0.136 C  
HETATM   24  C   UNL     1      -8.710   9.631  70.555  1.00  0.00    -0.104 C  
HETATM   25  O   UNL     1      -7.496   9.554  70.420  1.00  0.00    -0.120 OA 
HETATM   26  C   UNL     1      -9.390   8.872  71.615  1.00  0.00    -0.328 A  
HETATM   27  C   UNL     1     -10.773   8.894  71.719  1.00  0.00    -0.432 A  
HETATM   28  C   UNL     1     -11.577   9.676  70.770  1.00  0.00    -0.321 C  
HETATM   29  C   UNL     1     -11.411   8.160  72.728  1.00  0.00    -0.406 A  
HETATM   30  C   UNL     1     -10.657   7.412  73.634  1.00  0.00    -0.316 A  
HETATM   31  O   UNL     1     -12.800   9.602  70.812  1.00  0.00    -0.226 OA 
HETATM   32  C   UNL     1      -9.267   7.393  73.533  1.00  0.00    -0.275 A  
HETATM   33  C   UNL     1      -8.632   8.121  72.525  1.00  0.00    -0.255 A  
ENDBRANCH  20  21
ENDBRANCH  18  20
ENDBRANCH  16  17
ENDBRANCH  15  16
ENDBRANCH  13  15
ENDBRANCH  10  11
ENDBRANCH   9  10
ENDBRANCH   5   6
ENDBRANCH   4   5
TORSDOF 9
ENDMDL
MODEL      102
REMARK 921   NORMALIZED FREE ENERGY PREDICTED BY IDOCK:   -5.53 KCAL/MOL
REMARK 922        TOTAL FREE ENERGY PREDICTED BY IDOCK:  -11.65 KCAL/MOL
REMARK 923 INTER-LIGAND FREE ENERGY PREDICTED BY IDOCK:   -7.41 KCAL/MOL
REMARK 924 INTRA-LIGAND FREE ENERGY PREDICTED BY IDOCK:   -4.24 KCAL/MOL
REMARK 927      BINDING AFFINITY PREDICTED BY RF-SCORE:    0.00 PKD
ROOT
HETATM    1  C   UNL     1      -9.512   3.560  65.886  1.00  0.00    -0.143 C  
HETATM    2  C   UNL     1      -9.248   3.598  67.390  1.00  0.00    -0.220 C  
HETATM    3  C   UNL     1      -7.754   3.388  67.659  1.00  0.00    -0.073 C  
HETATM    4  C   UNL     1      -9.780   4.920  67.976  1.00  0.00    -0.202 C  
ENDROOT
BRANCH   4   5
HETATM    5  C   UNL     1      -9.549   5.005  69.479  1.00  0.00    -0.237 C  
BRANCH   5   6
HETATM    6  C   UNL     1      -9.267   6.427  69.955  1.00  0.00    -0.159 C  
HETATM    7  C   UNL     1     -10.429   7.379  69.614  1.00  0.00    -0.237 C  
HETATM    8  C   UNL     1     -11.750   6.931  70.259  1.00  0.00    -0.344 C  
HETATM    9  C   UNL     1     -10.048   8.809  70.033  1.00  0.00    -0.200 C  
BRANCH   9  10
HETATM   10  C   UNL     1     -11.165   9.800  69.721  1.00  0.00    -0.242 C  
BRANCH  10  11
HETATM   11  C   UNL     1     -11.477  10.705  70.902  1.00  0.00    -0.205 C  
HETATM   12  C   UNL     1     -12.982  11.019  70.999  1.00  0.00    -0.369 C  
HETATM   13  C   UNL     1     -13.259  12.045  72.116  1.00  0.00    -0.400 C  
HETATM   14  C   UNL     1     -13.831   9.761  71.226  1.00  0.00    -0.101 C  
BRANCH  13  15
HETATM   15  C   UNL     1     -12.547  13.393  71.942  1.00  0.00    -0.181 C  
BRANCH  15  16
HETATM   16  C   UNL     1     -13.184  14.262  70.857  1.00  0.00    -0.320 C  
BRANCH  16  17
HETATM   17  C   UNL     1     -12.209  14.589  69.754  1.00  0.00    -0.360 C  
HETATM   18  C   UNL     1     -12.040  13.721  68.737  1.00  0.00    -0.344 C  
HETATM   19  C   UNL     1     -11.516  15.917  69.834  1.00  0.00    -0.344 C  
BRANCH  18  20
HETATM   20  C   UNL     1     -11.181  13.919  67.515  1.00  0.00    -0.323 C  
BRANCH  20  21
HETATM   21  C   UNL     1     -10.097  12.864  67.422  1.00  0.00    -0.223 C  
HETATM   22  C   UNL     1      -8.854  12.993  67.933  1.00  0.00    -0.193 C  
HETATM   23  C   UNL     1      -8.316  14.213  68.631  1.00  0.00    -0.123 C  
HETATM   24  C   UNL     1      -7.875  11.868  67.863  1.00  0.00    -0.138 C  
HETATM   25  O   UNL     1      -6.734  11.997  68.286  1.00  0.00    -0.055 OA 
HETATM   26  C   UNL     1      -8.316  10.587  67.292  1.00  0.00    -0.122 A  
HETATM   27  C   UNL     1      -9.582  10.463  66.740  1.00  0.00    -0.209 A  
HETATM   28  C   UNL     1     -10.499  11.612  66.716  1.00  0.00    -0.230 C  
HETATM   29  C   UNL     1      -9.990   9.241  66.190  1.00  0.00    -0.348 A  
HETATM   30  C   UNL     1      -9.127   8.143  66.203  1.00  0.00    -0.232 A  
HETATM   31  O   UNL     1     -11.573  11.514  66.134  1.00  0.00    -0.345 OA 
HETATM   32  C   UNL     1      -7.855   8.266  66.763  1.00  0.00    -0.095 A  
HETATM   33  C   UNL     1      -7.448   9.486  67.306  1.00  0.00    -0.091 A  
ENDBRANCH  20  21
ENDBRANCH  18  20
ENDBRANCH  16  17
ENDBRANCH  15  16
ENDBRANCH  13  15
ENDBRANCH  10  11
ENDBRANCH   9  10
ENDBRANCH   5   6
ENDBRANCH   4   5
TORSDOF 9
ENDMDL
MODEL      103
REMARK 921   NORMALIZED FREE ENERGY PREDICTED BY IDOCK:   -5.53 KCAL/MOL
REMARK 922        TOTAL FREE ENERGY PREDICTED BY IDOCK:  -11.65 KCAL/MOL
REMARK 923 INTER-LIGAND FREE ENERGY PREDICTED BY IDOCK:   -7.86 KCAL/MOL
REMARK 924 INTRA-LIGAND FREE ENERGY PREDICTED BY IDOCK:   -3.79 KCAL/MOL
REMARK 927      BINDING AFFINITY PREDICTED BY RF-SCORE:    0.00 PKD
ROOT
HETATM    1  C   UNL     1     -10.481  11.651  64.637  1.00  0.00    -0.354 C  
HETATM    2  C   UNL     1      -9.899  10.263  64.382  1.00  0.00    -0.374 C  
HETATM    3  C   UNL     1      -8.723  10.365  63.404  1.00  0.00    -0.201 C  
HETATM    4  C   UNL     1      -9.505   9.612  65.722  1.00  0.00    -0.308 C  
ENDROOT
BRANCH   4   5
HETATM    5  C   UNL     1      -8.925   8.217  65.524  1.00  0.00    -0.114 C  
BRANCH   5   6
HETATM    6  C   UNL     1      -8.619   7.511  66.841  1.00  0.00    -0.124 C  
HETATM    7  C   UNL     1      -9.899   6.954  67.494  1.00  0.00    -0.173 C  
HETATM    8  C   UNL     1     -10.618   5.945  66.586  1.00  0.00    -0.330 C  
HETATM    9  C   UNL     1      -9.541   6.338  68.858  1.00  0.00    -0.135 C  
BRANCH   9  10
HETATM   10  C   UNL     1     -10.771   5.766  69.554  1.00  0.00    -0.408 C  
BRANCH  10  11
HETATM   11  C   UNL     1     -10.582   5.656  71.058  1.00  0.00    -0.318 C  
HETATM   12  C   UNL     1     -11.174   6.871  71.798  1.00  0.00    -0.284 C  
HETATM   13  C   UNL     1     -10.851   6.808  73.304  1.00  0.00    -0.302 C  
HETATM   14  C   UNL     1     -12.689   7.001  71.595  1.00  0.00    -0.417 C  
BRANCH  13  15
HETATM   15  C   UNL     1      -9.354   6.785  73.641  1.00  0.00    -0.190 C  
BRANCH  15  16
HETATM   16  C   UNL     1      -8.664   8.120  73.361  1.00  0.00    -0.318 C  
BRANCH  16  17
HETATM   17  C   UNL     1      -8.132   8.194  71.952  1.00  0.00    -0.170 C  
HETATM   18  C   UNL     1      -8.520   9.202  71.146  1.00  0.00    -0.175 C  
HETATM   19  C   UNL     1      -7.137   7.146  71.548  1.00  0.00    -0.069 C  
BRANCH  18  20
HETATM   20  C   UNL     1      -8.028   9.481  69.750  1.00  0.00    -0.134 C  
BRANCH  20  21
HETATM   21  C   UNL     1      -8.851  10.562  69.077  1.00  0.00    -0.174 C  
HETATM   22  C   UNL     1     -10.201  10.599  69.058  1.00  0.00    -0.231 C  
HETATM   23  C   UNL     1     -11.114   9.559  69.649  1.00  0.00    -0.196 C  
HETATM   24  C   UNL     1     -10.928  11.746  68.439  1.00  0.00    -0.231 C  
HETATM   25  O   UNL     1     -12.151  11.762  68.381  1.00  0.00    -0.490 OA 
HETATM   26  C   UNL     1     -10.144  12.875  67.916  1.00  0.00    -0.232 A  
HETATM   27  C   UNL     1      -8.758  12.824  67.908  1.00  0.00    -0.185 A  
HETATM   28  C   UNL     1      -8.055  11.640  68.421  1.00  0.00    -0.153 C  
HETATM   29  C   UNL     1      -8.022  13.901  67.398  1.00  0.00    -0.184 A  
HETATM   30  C   UNL     1      -8.679  15.030  66.906  1.00  0.00    -0.285 A  
HETATM   31  O   UNL     1      -6.837  11.569  68.312  1.00  0.00    -0.061 OA 
HETATM   32  C   UNL     1     -10.072  15.083  66.918  1.00  0.00    -0.249 A  
HETATM   33  C   UNL     1     -10.806  14.008  67.421  1.00  0.00    -0.288 A  
ENDBRANCH  20  21
ENDBRANCH  18  20
ENDBRANCH  16  17
ENDBRANCH  15  16
ENDBRANCH  13  15
ENDBRANCH  10  11
ENDBRANCH   9  10
ENDBRANCH   5   6
ENDBRANCH   4   5
TORSDOF 9
ENDMDL
MODEL      104
REMARK 921   NORMALIZED FREE ENERGY PREDICTED BY IDOCK:   -5.52 KCAL/MOL
REMARK 922        TOTAL FREE ENERGY PREDICTED BY IDOCK:  -11.63 KCAL/MOL
REMARK 923 INTER-LIGAND FREE ENERGY PREDICTED BY IDOCK:   -8.38 KCAL/MOL
REMARK 924 INTRA-LIGAND FREE ENERGY PREDICTED BY IDOCK:   -3.25 KCAL/MOL
REMARK 927      BINDING AFFINITY PREDICTED BY RF-SCORE:    0.00 PKD
ROOT
HETATM    1  C   UNL     1     -12.505  14.540  64.598  1.00  0.00    -0.339 C  
HETATM    2  C   UNL     1     -11.457  13.831  65.452  1.00  0.00    -0.318 C  
HETATM    3  C   UNL     1     -10.087  14.484  65.241  1.00  0.00    -0.389 C  
HETATM    4  C   UNL     1     -11.900  13.837  66.928  1.00  0.00    -0.447 C  
ENDROOT
BRANCH   4   5
HETATM    5  C   UNL     1     -10.891  13.132  67.824  1.00  0.00    -0.261 C  
BRANCH   5   6
HETATM    6  C   UNL     1     -11.210  11.654  68.026  1.00  0.00    -0.327 C  
HETATM    7  C   UNL     1     -10.386  10.763  67.075  1.00  0.00    -0.275 C  
HETATM    8  C   UNL     1      -8.874  10.942  67.283  1.00  0.00    -0.134 C  
HETATM    9  C   UNL     1     -10.817   9.298  67.259  1.00  0.00    -0.140 C  
BRANCH   9  10
HETATM   10  C   UNL     1     -10.032   8.365  66.343  1.00  0.00    -0.291 C  
BRANCH  10  11
HETATM   11  C   UNL     1      -9.637   7.073  67.040  1.00  0.00    -0.199 C  
HETATM   12  C   UNL     1      -8.601   6.277  66.224  1.00  0.00    -0.138 C  
HETATM   13  C   UNL     1      -8.317   4.910  66.877  1.00  0.00    -0.106 C  
HETATM   14  C   UNL     1      -7.287   7.046  66.034  1.00  0.00    -0.075 C  
BRANCH  13  15
HETATM   15  C   UNL     1      -9.543   4.000  67.022  1.00  0.00    -0.231 C  
BRANCH  15  16
HETATM   16  C   UNL     1      -9.330   2.878  68.039  1.00  0.00    -0.258 C  
BRANCH  16  17
HETATM   17  C   UNL     1      -9.139   3.413  69.436  1.00  0.00    -0.199 C  
HETATM   18  C   UNL     1      -9.996   4.334  69.918  1.00  0.00    -0.179 C  
HETATM   19  C   UNL     1      -8.012   2.829  70.236  1.00  0.00    -0.051 C  
BRANCH  18  20
HETATM   20  C   UNL     1     -10.011   4.912  71.309  1.00  0.00    -0.271 C  
BRANCH  20  21
HETATM   21  C   UNL     1     -10.236   6.410  71.286  1.00  0.00    -0.232 C  
HETATM   22  C   UNL     1      -9.340   7.315  70.835  1.00  0.00    -0.159 C  
HETATM   23  C   UNL     1      -7.956   7.001  70.332  1.00  0.00    -0.113 C  
HETATM   24  C   UNL     1      -9.679   8.767  70.776  1.00  0.00    -0.208 C  
HETATM   25  O   UNL     1      -8.855   9.594  70.410  1.00  0.00    -0.235 OA 
HETATM   26  C   UNL     1     -11.038   9.187  71.147  1.00  0.00    -0.393 A  
HETATM   27  C   UNL     1     -11.949   8.263  71.638  1.00  0.00    -0.346 A  
HETATM   28  C   UNL     1     -11.567   6.853  71.795  1.00  0.00    -0.286 C  
HETATM   29  C   UNL     1     -13.239   8.676  71.997  1.00  0.00    -0.422 A  
HETATM   30  C   UNL     1     -13.613  10.013  71.855  1.00  0.00    -0.354 A  
HETATM   31  O   UNL     1     -12.349   6.073  72.326  1.00  0.00    -0.252 OA 
HETATM   32  C   UNL     1     -12.699  10.941  71.357  1.00  0.00    -0.539 A  
HETATM   33  C   UNL     1     -11.412  10.531  71.003  1.00  0.00    -0.207 A  
ENDBRANCH  20  21
ENDBRANCH  18  20
ENDBRANCH  16  17
ENDBRANCH  15  16
ENDBRANCH  13  15
ENDBRANCH  10  11
ENDBRANCH   9  10
ENDBRANCH   5   6
ENDBRANCH   4   5
TORSDOF 9
ENDMDL
MODEL      105
REMARK 921   NORMALIZED FREE ENERGY PREDICTED BY IDOCK:   -5.50 KCAL/MOL
REMARK 922        TOTAL FREE ENERGY PREDICTED BY IDOCK:  -11.60 KCAL/MOL
REMARK 923 INTER-LIGAND FREE ENERGY PREDICTED BY IDOCK:   -7.55 KCAL/MOL
REMARK 924 INTRA-LIGAND FREE ENERGY PREDICTED BY IDOCK:   -4.05 KCAL/MOL
REMARK 927      BINDING AFFINITY PREDICTED BY RF-SCORE:    0.00 PKD
ROOT
HETATM    1  C   UNL     1     -12.947   7.497  71.889  1.00  0.00    -0.298 C  
HETATM    2  C   UNL     1     -12.057   8.737  71.857  1.00  0.00    -0.433 C  
HETATM    3  C   UNL     1     -10.737   8.447  72.579  1.00  0.00    -0.372 C  
HETATM    4  C   UNL     1     -11.853   9.192  70.399  1.00  0.00    -0.057 C  
ENDROOT
BRANCH   4   5
HETATM    5  C   UNL     1     -10.977  10.434  70.312  1.00  0.00    -0.353 C  
BRANCH   5   6
HETATM    6  C   UNL     1     -11.786  11.724  70.211  1.00  0.00    -0.317 C  
HETATM    7  C   UNL     1     -11.504  12.466  68.891  1.00  0.00    -0.355 C  
HETATM    8  C   UNL     1     -11.847  11.610  67.662  1.00  0.00    -0.216 C  
HETATM    9  C   UNL     1     -12.273  13.799  68.888  1.00  0.00    -0.235 C  
BRANCH   9  10
HETATM   10  C   UNL     1     -12.034  14.581  67.601  1.00  0.00    -0.355 C  
BRANCH  10  11
HETATM   11  C   UNL     1     -10.704  15.318  67.614  1.00  0.00    -0.282 C  
HETATM   12  C   UNL     1      -9.769  14.829  66.492  1.00  0.00    -0.295 C  
HETATM   13  C   UNL     1      -8.380  15.488  66.607  1.00  0.00    -0.286 C  
HETATM   14  C   UNL     1     -10.349  15.078  65.094  1.00  0.00    -0.422 C  
BRANCH  13  15
HETATM   15  C   UNL     1      -7.648  15.219  67.928  1.00  0.00    -0.152 C  
BRANCH  15  16
HETATM   16  C   UNL     1      -8.190  13.995  68.666  1.00  0.00    -0.103 C  
BRANCH  16  17
HETATM   17  C   UNL     1      -7.406  12.748  68.341  1.00  0.00    -0.118 C  
HETATM   18  C   UNL     1      -8.054  11.576  68.187  1.00  0.00    -0.146 C  
HETATM   19  C   UNL     1      -5.927  12.909  68.151  1.00  0.00    -0.087 C  
BRANCH  18  20
HETATM   20  C   UNL     1      -7.449  10.259  67.780  1.00  0.00    -0.088 C  
BRANCH  20  21
HETATM   21  C   UNL     1      -8.377   9.102  68.093  1.00  0.00    -0.120 C  
HETATM   22  C   UNL     1      -9.342   8.645  67.266  1.00  0.00    -0.186 C  
HETATM   23  C   UNL     1      -9.696   9.232  65.926  1.00  0.00    -0.355 C  
HETATM   24  C   UNL     1     -10.157   7.448  67.625  1.00  0.00    -0.186 C  
HETATM   25  O   UNL     1     -11.062   7.058  66.898  1.00  0.00    -0.359 OA 
HETATM   26  C   UNL     1      -9.838   6.727  68.866  1.00  0.00    -0.146 A  
HETATM   27  C   UNL     1      -8.868   7.212  69.730  1.00  0.00    -0.142 A  
HETATM   28  C   UNL     1      -8.147   8.454  69.418  1.00  0.00    -0.114 C  
HETATM   29  C   UNL     1      -8.578   6.522  70.915  1.00  0.00    -0.135 A  
HETATM   30  C   UNL     1      -9.257   5.342  71.224  1.00  0.00    -0.178 A  
HETATM   31  O   UNL     1      -7.368   8.922  70.240  1.00  0.00    -0.054 OA 
HETATM   32  C   UNL     1     -10.229   4.852  70.352  1.00  0.00    -0.292 A  
HETATM   33  C   UNL     1     -10.522   5.542  69.175  1.00  0.00    -0.315 A  
ENDBRANCH  20  21
ENDBRANCH  18  20
ENDBRANCH  16  17
ENDBRANCH  15  16
ENDBRANCH  13  15
ENDBRANCH  10  11
ENDBRANCH   9  10
ENDBRANCH   5   6
ENDBRANCH   4   5
TORSDOF 9
ENDMDL
MODEL      106
REMARK 921   NORMALIZED FREE ENERGY PREDICTED BY IDOCK:   -5.49 KCAL/MOL
REMARK 922        TOTAL FREE ENERGY PREDICTED BY IDOCK:  -11.59 KCAL/MOL
REMARK 923 INTER-LIGAND FREE ENERGY PREDICTED BY IDOCK:   -9.50 KCAL/MOL
REMARK 924 INTRA-LIGAND FREE ENERGY PREDICTED BY IDOCK:   -2.09 KCAL/MOL
REMARK 927      BINDING AFFINITY PREDICTED BY RF-SCORE:    0.00 PKD
ROOT
HETATM    1  C   UNL     1      -8.341   3.235  73.577  1.00  0.00    -0.075 C  
HETATM    2  C   UNL     1      -9.332   4.161  72.876  1.00  0.00    -0.138 C  
HETATM    3  C   UNL     1      -9.595   3.659  71.452  1.00  0.00    -0.237 C  
HETATM    4  C   UNL     1     -10.619   4.275  73.716  1.00  0.00    -0.311 C  
ENDROOT
BRANCH   4   5
HETATM    5  C   UNL     1     -11.640   5.198  73.064  1.00  0.00    -0.301 C  
BRANCH   5   6
HETATM    6  C   UNL     1     -11.227   6.666  73.110  1.00  0.00    -0.119 C  
HETATM    7  C   UNL     1     -11.568   7.390  71.793  1.00  0.00    -0.305 C  
HETATM    8  C   UNL     1     -13.071   7.344  71.482  1.00  0.00    -0.424 C  
HETATM    9  C   UNL     1     -11.045   8.835  71.864  1.00  0.00    -0.434 C  
BRANCH   9  10
HETATM   10  C   UNL     1     -11.356   9.606  70.586  1.00  0.00    -0.379 C  
BRANCH  10  11
HETATM   11  C   UNL     1     -10.718   8.970  69.361  1.00  0.00    -0.202 C  
HETATM   12  C   UNL     1      -9.520   9.793  68.848  1.00  0.00    -0.161 C  
HETATM   13  C   UNL     1      -8.975   9.209  67.530  1.00  0.00    -0.131 C  
HETATM   14  C   UNL     1      -8.390   9.891  69.881  1.00  0.00    -0.200 C  
BRANCH  13  15
HETATM   15  C   UNL     1      -9.989   9.159  66.380  1.00  0.00    -0.358 C  
BRANCH  15  16
HETATM   16  C   UNL     1      -9.588  10.045  65.200  1.00  0.00    -0.356 C  
BRANCH  16  17
HETATM   17  C   UNL     1     -10.496  11.240  65.057  1.00  0.00    -0.359 C  
HETATM   18  C   UNL     1     -11.131  11.725  66.142  1.00  0.00    -0.358 C  
HETATM   19  C   UNL     1     -10.591  11.859  63.695  1.00  0.00    -0.500 C  
BRANCH  18  20
HETATM   20  C   UNL     1     -12.001  12.953  66.204  1.00  0.00    -0.491 C  
BRANCH  20  21
HETATM   21  C   UNL     1     -11.328  14.071  66.975  1.00  0.00    -0.346 C  
HETATM   22  C   UNL     1     -11.332  14.187  68.320  1.00  0.00    -0.319 C  
HETATM   23  C   UNL     1     -12.042  13.265  69.276  1.00  0.00    -0.291 C  
HETATM   24  C   UNL     1     -10.575  15.279  69.000  1.00  0.00    -0.245 C  
HETATM   25  O   UNL     1     -10.613  15.413  70.216  1.00  0.00    -0.301 OA 
HETATM   26  C   UNL     1      -9.760  16.185  68.177  1.00  0.00    -0.222 A  
HETATM   27  C   UNL     1      -9.779  16.086  66.794  1.00  0.00    -0.253 A  
HETATM   28  C   UNL     1     -10.615  15.076  66.132  1.00  0.00    -0.310 C  
HETATM   29  C   UNL     1      -9.005  16.961  66.019  1.00  0.00    -0.198 A  
HETATM   30  C   UNL     1      -8.209  17.927  66.636  1.00  0.00    -0.284 A  
HETATM   31  O   UNL     1     -10.699  15.069  64.910  1.00  0.00    -0.400 OA 
HETATM   32  C   UNL     1      -8.186  18.024  68.027  1.00  0.00    -0.261 A  
HETATM   33  C   UNL     1      -8.960  17.155  68.799  1.00  0.00    -0.233 A  
ENDBRANCH  20  21
ENDBRANCH  18  20
ENDBRANCH  16  17
ENDBRANCH  15  16
ENDBRANCH  13  15
ENDBRANCH  10  11
ENDBRANCH   9  10
ENDBRANCH   5   6
ENDBRANCH   4   5
TORSDOF 9
ENDMDL
MODEL      107
REMARK 921   NORMALIZED FREE ENERGY PREDICTED BY IDOCK:   -5.49 KCAL/MOL
REMARK 922        TOTAL FREE ENERGY PREDICTED BY IDOCK:  -11.59 KCAL/MOL
REMARK 923 INTER-LIGAND FREE ENERGY PREDICTED BY IDOCK:   -8.85 KCAL/MOL
REMARK 924 INTRA-LIGAND FREE ENERGY PREDICTED BY IDOCK:   -2.74 KCAL/MOL
REMARK 927      BINDING AFFINITY PREDICTED BY RF-SCORE:    0.00 PKD
ROOT
HETATM    1  C   UNL     1     -14.274  15.440  72.262  1.00  0.00    -0.639 C  
HETATM    2  C   UNL     1     -13.111  15.510  71.275  1.00  0.00    -0.581 C  
HETATM    3  C   UNL     1     -11.872  16.082  71.973  1.00  0.00    -0.623 C  
HETATM    4  C   UNL     1     -12.863  14.116  70.666  1.00  0.00    -0.356 C  
ENDROOT
BRANCH   4   5
HETATM    5  C   UNL     1     -11.715  14.133  69.665  1.00  0.00    -0.372 C  
BRANCH   5   6
HETATM    6  C   UNL     1     -11.857  13.067  68.583  1.00  0.00    -0.353 C  
HETATM    7  C   UNL     1     -11.187  11.744  69.002  1.00  0.00    -0.324 C  
HETATM    8  C   UNL     1     -11.793  11.173  70.293  1.00  0.00    -0.455 C  
HETATM    9  C   UNL     1     -11.281  10.742  67.838  1.00  0.00    -0.386 C  
BRANCH   9  10
HETATM   10  C   UNL     1     -10.634   9.408  68.195  1.00  0.00    -0.261 C  
BRANCH  10  11
HETATM   11  C   UNL     1      -9.839   8.826  67.037  1.00  0.00    -0.279 C  
HETATM   12  C   UNL     1      -9.684   7.299  67.160  1.00  0.00    -0.218 C  
HETATM   13  C   UNL     1      -8.761   6.749  66.055  1.00  0.00    -0.155 C  
HETATM   14  C   UNL     1     -11.032   6.567  67.125  1.00  0.00    -0.480 C  
BRANCH  13  15
HETATM   15  C   UNL     1      -7.340   7.328  66.055  1.00  0.00    -0.075 C  
BRANCH  15  16
HETATM   16  C   UNL     1      -6.263   6.252  66.204  1.00  0.00    -0.037 C  
BRANCH  16  17
HETATM   17  C   UNL     1      -6.452   5.437  67.459  1.00  0.00    -0.051 C  
HETATM   18  C   UNL     1      -6.344   6.034  68.662  1.00  0.00    -0.040 C  
HETATM   19  C   UNL     1      -6.811   3.992  67.279  1.00  0.00    -0.051 C  
BRANCH  18  20
HETATM   20  C   UNL     1      -6.584   5.400  70.008  1.00  0.00    -0.046 C  
BRANCH  20  21
HETATM   21  C   UNL     1      -7.626   6.163  70.802  1.00  0.00    -0.096 C  
HETATM   22  C   UNL     1      -7.348   7.121  71.711  1.00  0.00    -0.084 C  
HETATM   23  C   UNL     1      -5.969   7.559  72.129  1.00  0.00    -0.039 C  
HETATM   24  C   UNL     1      -8.442   7.877  72.389  1.00  0.00    -0.141 C  
HETATM   25  O   UNL     1      -8.195   8.715  73.246  1.00  0.00    -0.411 OA 
HETATM   26  C   UNL     1      -9.832   7.608  71.991  1.00  0.00    -0.211 A  
HETATM   27  C   UNL     1     -10.120   6.603  71.080  1.00  0.00    -0.202 A  
HETATM   28  C   UNL     1      -9.040   5.792  70.502  1.00  0.00    -0.147 C  
HETATM   29  C   UNL     1     -11.449   6.349  70.715  1.00  0.00    -0.415 A  
HETATM   30  C   UNL     1     -12.484   7.111  71.260  1.00  0.00    -0.425 A  
HETATM   31  O   UNL     1      -9.320   4.843  69.778  1.00  0.00    -0.118 OA 
HETATM   32  C   UNL     1     -12.194   8.125  72.173  1.00  0.00    -0.398 A  
HETATM   33  C   UNL     1     -10.871   8.374  72.540  1.00  0.00    -0.375 A  
ENDBRANCH  20  21
ENDBRANCH  18  20
ENDBRANCH  16  17
ENDBRANCH  15  16
ENDBRANCH  13  15
ENDBRANCH  10  11
ENDBRANCH   9  10
ENDBRANCH   5   6
ENDBRANCH   4   5
TORSDOF 9
ENDMDL
MODEL      108
REMARK 921   NORMALIZED FREE ENERGY PREDICTED BY IDOCK:   -5.49 KCAL/MOL
REMARK 922        TOTAL FREE ENERGY PREDICTED BY IDOCK:  -11.58 KCAL/MOL
REMARK 923 INTER-LIGAND FREE ENERGY PREDICTED BY IDOCK:   -9.37 KCAL/MOL
REMARK 924 INTRA-LIGAND FREE ENERGY PREDICTED BY IDOCK:   -2.21 KCAL/MOL
REMARK 927      BINDING AFFINITY PREDICTED BY RF-SCORE:    0.00 PKD
ROOT
HETATM    1  C   UNL     1      -6.844  21.051  67.282  1.00  0.00    -0.434 C  
HETATM    2  C   UNL     1      -7.707  19.879  66.819  1.00  0.00    -0.317 C  
HETATM    3  C   UNL     1      -6.853  18.889  66.021  1.00  0.00    -0.284 C  
HETATM    4  C   UNL     1      -8.395  19.230  68.035  1.00  0.00    -0.350 C  
ENDROOT
BRANCH   4   5
HETATM    5  C   UNL     1      -9.278  18.058  67.627  1.00  0.00    -0.259 C  
BRANCH   5   6
HETATM    6  C   UNL     1     -10.312  17.697  68.689  1.00  0.00    -0.359 C  
HETATM    7  C   UNL     1     -10.382  16.174  68.914  1.00  0.00    -0.250 C  
HETATM    8  C   UNL     1      -9.033  15.596  69.369  1.00  0.00    -0.265 C  
HETATM    9  C   UNL     1     -11.502  15.866  69.923  1.00  0.00    -0.344 C  
BRANCH   9  10
HETATM   10  C   UNL     1     -11.618  14.368  70.189  1.00  0.00    -0.327 C  
BRANCH  10  11
HETATM   11  C   UNL     1     -12.135  13.607  68.979  1.00  0.00    -0.348 C  
HETATM   12  C   UNL     1     -11.422  12.252  68.809  1.00  0.00    -0.360 C  
HETATM   13  C   UNL     1     -11.860  11.560  67.503  1.00  0.00    -0.157 C  
HETATM   14  C   UNL     1     -11.656  11.313  70.000  1.00  0.00    -0.404 C  
BRANCH  13  15
HETATM   15  C   UNL     1     -11.577  12.359  66.225  1.00  0.00    -0.449 C  
BRANCH  15  16
HETATM   16  C   UNL     1     -10.776  11.562  65.195  1.00  0.00    -0.348 C  
BRANCH  16  17
HETATM   17  C   UNL     1      -9.728  10.694  65.845  1.00  0.00    -0.273 C  
HETATM   18  C   UNL     1     -10.039   9.434  66.205  1.00  0.00    -0.328 C  
HETATM   19  C   UNL     1      -8.359  11.288  66.001  1.00  0.00    -0.071 C  
BRANCH  18  20
HETATM   20  C   UNL     1      -9.104   8.404  66.783  1.00  0.00    -0.192 C  
BRANCH  20  21
HETATM   21  C   UNL     1      -9.250   8.303  68.288  1.00  0.00    -0.135 C  
HETATM   22  C   UNL     1      -8.476   8.957  69.181  1.00  0.00    -0.132 C  
HETATM   23  C   UNL     1      -7.312   9.849  68.842  1.00  0.00    -0.078 C  
HETATM   24  C   UNL     1      -8.744   8.860  70.646  1.00  0.00    -0.197 C  
HETATM   25  O   UNL     1      -8.018   9.415  71.459  1.00  0.00    -0.298 OA 
HETATM   26  C   UNL     1      -9.917   8.096  71.096  1.00  0.00    -0.218 A  
HETATM   27  C   UNL     1     -10.695   7.400  70.183  1.00  0.00    -0.254 A  
HETATM   28  C   UNL     1     -10.356   7.415  68.753  1.00  0.00    -0.199 C  
HETATM   29  C   UNL     1     -11.806   6.669  70.624  1.00  0.00    -0.443 A  
HETATM   30  C   UNL     1     -12.137   6.645  71.980  1.00  0.00    -0.353 A  
HETATM   31  O   UNL     1     -10.992   6.713  67.976  1.00  0.00    -0.263 OA 
HETATM   32  C   UNL     1     -11.357   7.349  72.897  1.00  0.00    -0.322 A  
HETATM   33  C   UNL     1     -10.248   8.073  72.459  1.00  0.00    -0.361 A  
ENDBRANCH  20  21
ENDBRANCH  18  20
ENDBRANCH  16  17
ENDBRANCH  15  16
ENDBRANCH  13  15
ENDBRANCH  10  11
ENDBRANCH   9  10
ENDBRANCH   5   6
ENDBRANCH   4   5
TORSDOF 9
ENDMDL
MODEL      109
REMARK 921   NORMALIZED FREE ENERGY PREDICTED BY IDOCK:   -5.48 KCAL/MOL
REMARK 922        TOTAL FREE ENERGY PREDICTED BY IDOCK:  -11.57 KCAL/MOL
REMARK 923 INTER-LIGAND FREE ENERGY PREDICTED BY IDOCK:   -9.13 KCAL/MOL
REMARK 924 INTRA-LIGAND FREE ENERGY PREDICTED BY IDOCK:   -2.44 KCAL/MOL
REMARK 927      BINDING AFFINITY PREDICTED BY RF-SCORE:    0.00 PKD
ROOT
HETATM    1  C   UNL     1      -8.145  14.118  67.387  1.00  0.00    -0.205 C  
HETATM    2  C   UNL     1      -6.946  13.194  67.588  1.00  0.00    -0.156 C  
HETATM    3  C   UNL     1      -5.717  14.018  67.988  1.00  0.00    -0.132 C  
HETATM    4  C   UNL     1      -7.297  12.107  68.622  1.00  0.00    -0.109 C  
ENDROOT
BRANCH   4   5
HETATM    5  C   UNL     1      -6.136  11.150  68.854  1.00  0.00    -0.045 C  
BRANCH   5   6
HETATM    6  C   UNL     1      -6.217  10.435  70.199  1.00  0.00    -0.108 C  
HETATM    7  C   UNL     1      -7.401   9.449  70.244  1.00  0.00    -0.118 C  
HETATM    8  C   UNL     1      -7.296   8.371  69.154  1.00  0.00    -0.079 C  
HETATM    9  C   UNL     1      -7.487   8.830  71.650  1.00  0.00    -0.099 C  
BRANCH   9  10
HETATM   10  C   UNL     1      -8.642   7.841  71.756  1.00  0.00    -0.141 C  
BRANCH  10  11
HETATM   11  C   UNL     1      -9.936   8.512  72.189  1.00  0.00    -0.387 C  
HETATM   12  C   UNL     1     -11.117   7.523  72.200  1.00  0.00    -0.300 C  
HETATM   13  C   UNL     1     -12.441   8.250  72.506  1.00  0.00    -0.300 C  
HETATM   14  C   UNL     1     -10.911   6.373  73.195  1.00  0.00    -0.282 C  
BRANCH  13  15
HETATM   15  C   UNL     1     -12.813   9.356  71.511  1.00  0.00    -0.442 C  
BRANCH  15  16
HETATM   16  C   UNL     1     -13.385  10.598  72.194  1.00  0.00    -0.335 C  
BRANCH  16  17
HETATM   17  C   UNL     1     -12.933  11.869  71.520  1.00  0.00    -0.427 C  
HETATM   18  C   UNL     1     -12.140  11.800  70.433  1.00  0.00    -0.440 C  
HETATM   19  C   UNL     1     -13.455  13.157  72.085  1.00  0.00    -0.653 C  
BRANCH  18  20
HETATM   20  C   UNL     1     -11.666  12.953  69.588  1.00  0.00    -0.367 C  
BRANCH  20  21
HETATM   21  C   UNL     1     -11.407  12.522  68.157  1.00  0.00    -0.343 C  
HETATM   22  C   UNL     1     -10.891  11.328  67.796  1.00  0.00    -0.284 C  
HETATM   23  C   UNL     1     -10.439  10.248  68.742  1.00  0.00    -0.222 C  
HETATM   24  C   UNL     1     -10.744  10.958  66.358  1.00  0.00    -0.194 C  
HETATM   25  O   UNL     1     -10.237   9.895  66.027  1.00  0.00    -0.254 OA 
HETATM   26  C   UNL     1     -11.244  11.892  65.338  1.00  0.00    -0.351 A  
HETATM   27  C   UNL     1     -11.747  13.131  65.706  1.00  0.00    -0.415 A  
HETATM   28  C   UNL     1     -11.784  13.528  67.121  1.00  0.00    -0.379 C  
HETATM   29  C   UNL     1     -12.212  14.017  64.726  1.00  0.00    -0.454 A  
HETATM   30  C   UNL     1     -12.179  13.653  63.378  1.00  0.00    -0.236 A  
HETATM   31  O   UNL     1     -12.135  14.663  67.419  1.00  0.00    -0.352 OA 
HETATM   32  C   UNL     1     -11.678  12.405  63.009  1.00  0.00    -0.103 A  
HETATM   33  C   UNL     1     -11.210  11.524  63.985  1.00  0.00    -0.414 A  
ENDBRANCH  20  21
ENDBRANCH  18  20
ENDBRANCH  16  17
ENDBRANCH  15  16
ENDBRANCH  13  15
ENDBRANCH  10  11
ENDBRANCH   9  10
ENDBRANCH   5   6
ENDBRANCH   4   5
TORSDOF 9
ENDMDL
MODEL      110
REMARK 921   NORMALIZED FREE ENERGY PREDICTED BY IDOCK:   -5.47 KCAL/MOL
REMARK 922        TOTAL FREE ENERGY PREDICTED BY IDOCK:  -11.55 KCAL/MOL
REMARK 923 INTER-LIGAND FREE ENERGY PREDICTED BY IDOCK:   -9.88 KCAL/MOL
REMARK 924 INTRA-LIGAND FREE ENERGY PREDICTED BY IDOCK:   -1.67 KCAL/MOL
REMARK 927      BINDING AFFINITY PREDICTED BY RF-SCORE:    0.00 PKD
ROOT
HETATM    1  C   UNL     1     -14.401   7.310  71.717  1.00  0.00    -0.560 C  
HETATM    2  C   UNL     1     -13.015   7.859  71.388  1.00  0.00    -0.301 C  
HETATM    3  C   UNL     1     -12.514   8.731  72.544  1.00  0.00    -0.368 C  
HETATM    4  C   UNL     1     -12.060   6.695  71.061  1.00  0.00    -0.384 C  
ENDROOT
BRANCH   4   5
HETATM    5  C   UNL     1     -10.662   7.189  70.715  1.00  0.00    -0.251 C  
BRANCH   5   6
HETATM    6  C   UNL     1     -10.675   8.467  69.882  1.00  0.00    -0.224 C  
HETATM    7  C   UNL     1      -9.980   8.262  68.522  1.00  0.00    -0.206 C  
HETATM    8  C   UNL     1     -10.655   7.162  67.689  1.00  0.00    -0.318 C  
HETATM    9  C   UNL     1      -9.940   9.603  67.769  1.00  0.00    -0.211 C  
BRANCH   9  10
HETATM   10  C   UNL     1      -9.264   9.463  66.410  1.00  0.00    -0.215 C  
BRANCH  10  11
HETATM   11  C   UNL     1     -10.160   9.922  65.271  1.00  0.00    -0.227 C  
HETATM   12  C   UNL     1      -9.418  10.863  64.303  1.00  0.00    -0.289 C  
HETATM   13  C   UNL     1     -10.378  11.426  63.237  1.00  0.00    -0.422 C  
HETATM   14  C   UNL     1      -8.224  10.181  63.622  1.00  0.00    -0.166 C  
BRANCH  13  15
HETATM   15  C   UNL     1     -11.561  12.227  63.796  1.00  0.00    -0.555 C  
BRANCH  15  16
HETATM   16  C   UNL     1     -11.200  13.682  64.097  1.00  0.00    -0.294 C  
BRANCH  16  17
HETATM   17  C   UNL     1     -11.337  14.004  65.564  1.00  0.00    -0.313 C  
HETATM   18  C   UNL     1     -10.918  15.199  66.024  1.00  0.00    -0.332 C  
HETATM   19  C   UNL     1     -11.997  12.968  66.425  1.00  0.00    -0.466 C  
BRANCH  18  20
HETATM   20  C   UNL     1     -11.053  15.722  67.430  1.00  0.00    -0.235 C  
BRANCH  20  21
HETATM   21  C   UNL     1      -9.822  16.496  67.856  1.00  0.00    -0.240 C  
HETATM   22  C   UNL     1      -8.736  15.950  68.443  1.00  0.00    -0.183 C  
HETATM   23  C   UNL     1      -8.581  14.500  68.821  1.00  0.00    -0.145 C  
HETATM   24  C   UNL     1      -7.534  16.777  68.756  1.00  0.00    -0.231 C  
HETATM   25  O   UNL     1      -6.565  16.294  69.328  1.00  0.00    -0.172 OA 
HETATM   26  C   UNL     1      -7.526  18.188  68.343  1.00  0.00    -0.287 A  
HETATM   27  C   UNL     1      -8.651  18.758  67.767  1.00  0.00    -0.305 A  
HETATM   28  C   UNL     1      -9.868  17.959  67.564  1.00  0.00    -0.309 C  
HETATM   29  C   UNL     1      -8.636  20.106  67.385  1.00  0.00    -0.413 A  
HETATM   30  C   UNL     1      -7.487  20.876  67.576  1.00  0.00    -0.304 A  
HETATM   31  O   UNL     1     -10.884  18.504  67.150  1.00  0.00    -0.391 OA 
HETATM   32  C   UNL     1      -6.353  20.302  68.150  1.00  0.00    -0.315 A  
HETATM   33  C   UNL     1      -6.371  18.960  68.535  1.00  0.00    -0.245 A  
ENDBRANCH  20  21
ENDBRANCH  18  20
ENDBRANCH  16  17
ENDBRANCH  15  16
ENDBRANCH  13  15
ENDBRANCH  10  11
ENDBRANCH   9  10
ENDBRANCH   5   6
ENDBRANCH   4   5
TORSDOF 9
ENDMDL
MODEL      111
REMARK 921   NORMALIZED FREE ENERGY PREDICTED BY IDOCK:   -5.46 KCAL/MOL
REMARK 922        TOTAL FREE ENERGY PREDICTED BY IDOCK:  -11.53 KCAL/MOL
REMARK 923 INTER-LIGAND FREE ENERGY PREDICTED BY IDOCK:   -7.36 KCAL/MOL
REMARK 924 INTRA-LIGAND FREE ENERGY PREDICTED BY IDOCK:   -4.18 KCAL/MOL
REMARK 927      BINDING AFFINITY PREDICTED BY RF-SCORE:    0.00 PKD
ROOT
HETATM    1  C   UNL     1      -8.185   5.312  64.284  1.00  0.00    -0.132 C  
HETATM    2  C   UNL     1      -7.949   5.298  65.793  1.00  0.00    -0.105 C  
HETATM    3  C   UNL     1      -6.459   5.090  66.082  1.00  0.00    -0.044 C  
HETATM    4  C   UNL     1      -8.504   6.593  66.417  1.00  0.00    -0.125 C  
ENDROOT
BRANCH   4   5
HETATM    5  C   UNL     1      -8.301   6.626  67.925  1.00  0.00    -0.119 C  
BRANCH   5   6
HETATM    6  C   UNL     1      -8.377   8.035  68.503  1.00  0.00    -0.127 C  
HETATM    7  C   UNL     1      -9.834   8.529  68.598  1.00  0.00    -0.180 C  
HETATM    8  C   UNL     1     -10.695   7.619  69.487  1.00  0.00    -0.211 C  
HETATM    9  C   UNL     1      -9.841   9.984  69.097  1.00  0.00    -0.213 C  
BRANCH   9  10
HETATM   10  C   UNL     1     -11.260  10.530  69.214  1.00  0.00    -0.320 C  
BRANCH  10  11
HETATM   11  C   UNL     1     -11.477  11.296  70.508  1.00  0.00    -0.082 C  
HETATM   12  C   UNL     1     -12.972  11.410  70.862  1.00  0.00    -0.210 C  
HETATM   13  C   UNL     1     -13.179  12.306  72.099  1.00  0.00    -0.466 C  
HETATM   14  C   UNL     1     -13.626  10.041  71.095  1.00  0.00    -0.198 C  
BRANCH  13  15
HETATM   15  C   UNL     1     -12.662  13.742  71.947  1.00  0.00    -0.347 C  
BRANCH  15  16
HETATM   16  C   UNL     1     -13.146  14.412  70.660  1.00  0.00    -0.279 C  
BRANCH  16  17
HETATM   17  C   UNL     1     -12.005  14.728  69.726  1.00  0.00    -0.368 C  
HETATM   18  C   UNL     1     -12.089  14.371  68.429  1.00  0.00    -0.278 C  
HETATM   19  C   UNL     1     -10.847  15.487  70.305  1.00  0.00    -0.358 C  
BRANCH  18  20
HETATM   20  C   UNL     1     -11.092  14.680  67.343  1.00  0.00    -0.331 C  
BRANCH  20  21
HETATM   21  C   UNL     1     -10.472  13.415  66.783  1.00  0.00    -0.275 C  
HETATM   22  C   UNL     1     -11.032  12.643  65.828  1.00  0.00    -0.313 C  
HETATM   23  C   UNL     1     -12.380  12.872  65.196  1.00  0.00    -0.547 C  
HETATM   24  C   UNL     1     -10.312  11.456  65.279  1.00  0.00    -0.282 C  
HETATM   25  O   UNL     1     -10.836  10.729  64.445  1.00  0.00    -0.226 OA 
HETATM   26  C   UNL     1      -8.945  11.187  65.747  1.00  0.00    -0.207 A  
HETATM   27  C   UNL     1      -8.379  11.961  66.749  1.00  0.00    -0.153 A  
HETATM   28  C   UNL     1      -9.141  13.059  67.359  1.00  0.00    -0.201 C  
HETATM   29  C   UNL     1      -7.079  11.690  67.194  1.00  0.00    -0.143 A  
HETATM   30  C   UNL     1      -6.346  10.646  66.624  1.00  0.00    -0.091 A  
HETATM   31  O   UNL     1      -8.666  13.666  68.312  1.00  0.00    -0.167 OA 
HETATM   32  C   UNL     1      -6.912   9.871  65.613  1.00  0.00    -0.108 A  
HETATM   33  C   UNL     1      -8.210  10.139  65.174  1.00  0.00    -0.151 A  
ENDBRANCH  20  21
ENDBRANCH  18  20
ENDBRANCH  16  17
ENDBRANCH  15  16
ENDBRANCH  13  15
ENDBRANCH  10  11
ENDBRANCH   9  10
ENDBRANCH   5   6
ENDBRANCH   4   5
TORSDOF 9
ENDMDL
MODEL      112
REMARK 921   NORMALIZED FREE ENERGY PREDICTED BY IDOCK:   -5.45 KCAL/MOL
REMARK 922        TOTAL FREE ENERGY PREDICTED BY IDOCK:  -11.52 KCAL/MOL
REMARK 923 INTER-LIGAND FREE ENERGY PREDICTED BY IDOCK:   -7.62 KCAL/MOL
REMARK 924 INTRA-LIGAND FREE ENERGY PREDICTED BY IDOCK:   -3.89 KCAL/MOL
REMARK 927      BINDING AFFINITY PREDICTED BY RF-SCORE:    0.00 PKD
ROOT
HETATM    1  C   UNL     1     -10.402  20.069  68.453  1.00  0.00    -0.465 C  
HETATM    2  C   UNL     1      -9.664  18.848  67.908  1.00  0.00    -0.376 C  
HETATM    3  C   UNL     1      -9.905  18.726  66.400  1.00  0.00    -0.403 C  
HETATM    4  C   UNL     1      -8.169  18.943  68.269  1.00  0.00    -0.362 C  
ENDROOT
BRANCH   4   5
HETATM    5  C   UNL     1      -7.386  17.742  67.755  1.00  0.00    -0.205 C  
BRANCH   5   6
HETATM    6  C   UNL     1      -7.758  16.444  68.466  1.00  0.00    -0.195 C  
HETATM    7  C   UNL     1      -7.123  15.221  67.777  1.00  0.00    -0.180 C  
HETATM    8  C   UNL     1      -5.589  15.307  67.748  1.00  0.00    -0.114 C  
HETATM    9  C   UNL     1      -7.608  13.940  68.478  1.00  0.00    -0.134 C  
BRANCH   9  10
HETATM   10  C   UNL     1      -7.009  12.692  67.839  1.00  0.00    -0.110 C  
BRANCH  10  11
HETATM   11  C   UNL     1      -7.245  11.446  68.679  1.00  0.00    -0.100 C  
HETATM   12  C   UNL     1      -6.010  11.086  69.527  1.00  0.00    -0.064 C  
HETATM   13  C   UNL     1      -6.219   9.748  70.263  1.00  0.00    -0.074 C  
HETATM   14  C   UNL     1      -5.649  12.185  70.535  1.00  0.00    -0.167 C  
BRANCH  13  15
HETATM   15  C   UNL     1      -6.481   8.545  69.348  1.00  0.00    -0.037 C  
BRANCH  15  16
HETATM   16  C   UNL     1      -7.762   7.794  69.712  1.00  0.00    -0.097 C  
BRANCH  16  17
HETATM   17  C   UNL     1      -8.888   8.107  68.760  1.00  0.00    -0.138 C  
HETATM   18  C   UNL     1      -9.881   8.930  69.152  1.00  0.00    -0.180 C  
HETATM   19  C   UNL     1      -8.799   7.512  67.386  1.00  0.00    -0.127 C  
BRANCH  18  20
HETATM   20  C   UNL     1     -11.031   9.420  68.311  1.00  0.00    -0.085 C  
BRANCH  20  21
HETATM   21  C   UNL     1     -10.923  10.906  68.035  1.00  0.00    -0.317 C  
HETATM   22  C   UNL     1     -10.467  11.441  66.882  1.00  0.00    -0.278 C  
HETATM   23  C   UNL     1      -9.944  10.666  65.703  1.00  0.00    -0.327 C  
HETATM   24  C   UNL     1     -10.471  12.919  66.668  1.00  0.00    -0.263 C  
HETATM   25  O   UNL     1     -10.018  13.409  65.642  1.00  0.00    -0.285 OA 
HETATM   26  C   UNL     1     -11.052  13.778  67.709  1.00  0.00    -0.288 A  
HETATM   27  C   UNL     1     -11.492  13.232  68.906  1.00  0.00    -0.342 A  
HETATM   28  C   UNL     1     -11.383  11.787  69.148  1.00  0.00    -0.279 C  
HETATM   29  C   UNL     1     -12.036  14.062  69.895  1.00  0.00    -0.399 A  
HETATM   30  C   UNL     1     -12.143  15.437  69.677  1.00  0.00    -0.354 A  
HETATM   31  O   UNL     1     -11.681  11.337  70.248  1.00  0.00    -0.316 OA 
HETATM   32  C   UNL     1     -11.704  15.985  68.473  1.00  0.00    -0.244 A  
HETATM   33  C   UNL     1     -11.158  15.159  67.489  1.00  0.00    -0.319 A  
ENDBRANCH  20  21
ENDBRANCH  18  20
ENDBRANCH  16  17
ENDBRANCH  15  16
ENDBRANCH  13  15
ENDBRANCH  10  11
ENDBRANCH   9  10
ENDBRANCH   5   6
ENDBRANCH   4   5
TORSDOF 9
ENDMDL
MODEL      113
REMARK 921   NORMALIZED FREE ENERGY PREDICTED BY IDOCK:   -5.44 KCAL/MOL
REMARK 922        TOTAL FREE ENERGY PREDICTED BY IDOCK:  -11.51 KCAL/MOL
REMARK 923 INTER-LIGAND FREE ENERGY PREDICTED BY IDOCK:   -7.88 KCAL/MOL
REMARK 924 INTRA-LIGAND FREE ENERGY PREDICTED BY IDOCK:   -3.63 KCAL/MOL
REMARK 927      BINDING AFFINITY PREDICTED BY RF-SCORE:    0.00 PKD
ROOT
HETATM    1  C   UNL     1     -12.467  11.967  63.338  1.00  0.00    -0.625 C  
HETATM    2  C   UNL     1     -11.709  12.227  64.638  1.00  0.00    -0.420 C  
HETATM    3  C   UNL     1     -10.288  12.705  64.323  1.00  0.00    -0.399 C  
HETATM    4  C   UNL     1     -12.497  13.227  65.506  1.00  0.00    -0.531 C  
ENDROOT
BRANCH   4   5
HETATM    5  C   UNL     1     -11.787  13.514  66.822  1.00  0.00    -0.450 C  
BRANCH   5   6
HETATM    6  C   UNL     1     -11.871  12.352  67.807  1.00  0.00    -0.362 C  
HETATM    7  C   UNL     1     -10.542  11.575  67.878  1.00  0.00    -0.224 C  
HETATM    8  C   UNL     1      -9.373  12.470  68.319  1.00  0.00    -0.193 C  
HETATM    9  C   UNL     1     -10.715  10.365  68.812  1.00  0.00    -0.255 C  
BRANCH   9  10
HETATM   10  C   UNL     1      -9.428   9.556  68.925  1.00  0.00    -0.155 C  
BRANCH  10  11
HETATM   11  C   UNL     1      -8.977   9.002  67.583  1.00  0.00    -0.130 C  
HETATM   12  C   UNL     1      -9.426   7.541  67.388  1.00  0.00    -0.173 C  
HETATM   13  C   UNL     1      -8.844   6.955  66.086  1.00  0.00    -0.163 C  
HETATM   14  C   UNL     1     -10.953   7.391  67.389  1.00  0.00    -0.214 C  
BRANCH  13  15
HETATM   15  C   UNL     1      -7.311   6.949  66.013  1.00  0.00    -0.075 C  
BRANCH  15  16
HETATM   16  C   UNL     1      -6.721   5.541  66.093  1.00  0.00    -0.057 C  
BRANCH  16  17
HETATM   17  C   UNL     1      -7.117   4.836  67.366  1.00  0.00    -0.065 C  
HETATM   18  C   UNL     1      -6.792   5.379  68.556  1.00  0.00    -0.056 C  
HETATM   19  C   UNL     1      -7.915   3.574  67.221  1.00  0.00    -0.082 C  
BRANCH  18  20
HETATM   20  C   UNL     1      -7.177   4.864  69.918  1.00  0.00    -0.055 C  
BRANCH  20  21
HETATM   21  C   UNL     1      -8.056   5.854  70.657  1.00  0.00    -0.118 C  
HETATM   22  C   UNL     1      -7.596   6.890  71.391  1.00  0.00    -0.087 C  
HETATM   23  C   UNL     1      -6.146   7.209  71.644  1.00  0.00    -0.037 C  
HETATM   24  C   UNL     1      -8.537   7.863  72.020  1.00  0.00    -0.133 C  
HETATM   25  O   UNL     1      -8.126   8.777  72.722  1.00  0.00    -0.398 OA 
HETATM   26  C   UNL     1      -9.977   7.714  71.762  1.00  0.00    -0.208 A  
HETATM   27  C   UNL     1     -10.452   6.634  71.034  1.00  0.00    -0.246 A  
HETATM   28  C   UNL     1      -9.523   5.622  70.512  1.00  0.00    -0.163 C  
HETATM   29  C   UNL     1     -11.827   6.497  70.802  1.00  0.00    -0.394 A  
HETATM   30  C   UNL     1     -12.720   7.450  71.295  1.00  0.00    -0.371 A  
HETATM   31  O   UNL     1      -9.968   4.622  69.960  1.00  0.00    -0.217 OA 
HETATM   32  C   UNL     1     -12.242   8.538  72.023  1.00  0.00    -0.429 A  
HETATM   33  C   UNL     1     -10.873   8.672  72.259  1.00  0.00    -0.392 A  
ENDBRANCH  20  21
ENDBRANCH  18  20
ENDBRANCH  16  17
ENDBRANCH  15  16
ENDBRANCH  13  15
ENDBRANCH  10  11
ENDBRANCH   9  10
ENDBRANCH   5   6
ENDBRANCH   4   5
TORSDOF 9
ENDMDL
MODEL      114
REMARK 921   NORMALIZED FREE ENERGY PREDICTED BY IDOCK:   -5.42 KCAL/MOL
REMARK 922        TOTAL FREE ENERGY PREDICTED BY IDOCK:  -11.47 KCAL/MOL
REMARK 923 INTER-LIGAND FREE ENERGY PREDICTED BY IDOCK:   -9.06 KCAL/MOL
REMARK 924 INTRA-LIGAND FREE ENERGY PREDICTED BY IDOCK:   -2.41 KCAL/MOL
REMARK 927      BINDING AFFINITY PREDICTED BY RF-SCORE:    0.00 PKD
ROOT
HETATM    1  C   UNL     1     -10.065  11.049  63.282  1.00  0.00    -0.400 C  
HETATM    2  C   UNL     1     -10.792  12.375  63.493  1.00  0.00    -0.487 C  
HETATM    3  C   UNL     1     -12.295  12.123  63.653  1.00  0.00    -0.673 C  
HETATM    4  C   UNL     1     -10.180  13.117  64.697  1.00  0.00    -0.327 C  
ENDROOT
BRANCH   4   5
HETATM    5  C   UNL     1     -10.865  14.454  64.945  1.00  0.00    -0.430 C  
BRANCH   5   6
HETATM    6  C   UNL     1     -11.718  14.456  66.210  1.00  0.00    -0.394 C  
HETATM    7  C   UNL     1     -11.087  13.594  67.319  1.00  0.00    -0.309 C  
HETATM    8  C   UNL     1      -9.686  14.089  67.709  1.00  0.00    -0.228 C  
HETATM    9  C   UNL     1     -12.035  13.559  68.531  1.00  0.00    -0.379 C  
BRANCH   9  10
HETATM   10  C   UNL     1     -11.461  12.719  69.667  1.00  0.00    -0.255 C  
BRANCH  10  11
HETATM   11  C   UNL     1     -12.352  11.537  70.015  1.00  0.00    -0.287 C  
HETATM   12  C   UNL     1     -12.649  11.471  71.525  1.00  0.00    -0.363 C  
HETATM   13  C   UNL     1     -13.436  10.193  71.876  1.00  0.00    -0.426 C  
HETATM   14  C   UNL     1     -13.409  12.705  72.028  1.00  0.00    -0.555 C  
BRANCH  13  15
HETATM   15  C   UNL     1     -12.726   8.881  71.518  1.00  0.00    -0.386 C  
BRANCH  15  16
HETATM   16  C   UNL     1     -11.723   8.442  72.585  1.00  0.00    -0.364 C  
BRANCH  16  17
HETATM   17  C   UNL     1     -10.303   8.499  72.080  1.00  0.00    -0.408 C  
HETATM   18  C   UNL     1     -10.052   9.005  70.856  1.00  0.00    -0.329 C  
HETATM   19  C   UNL     1      -9.232   8.028  73.018  1.00  0.00    -0.337 C  
BRANCH  18  20
HETATM   20  C   UNL     1      -8.700   9.218  70.228  1.00  0.00    -0.246 C  
BRANCH  20  21
HETATM   21  C   UNL     1      -8.569   8.462  68.921  1.00  0.00    -0.135 C  
HETATM   22  C   UNL     1      -8.899   8.960  67.710  1.00  0.00    -0.136 C  
HETATM   23  C   UNL     1      -9.496  10.318  67.454  1.00  0.00    -0.174 C  
HETATM   24  C   UNL     1      -8.662   8.171  66.465  1.00  0.00    -0.143 C  
HETATM   25  O   UNL     1      -9.000   8.601  65.371  1.00  0.00    -0.189 OA 
HETATM   26  C   UNL     1      -7.991   6.867  66.577  1.00  0.00    -0.109 A  
HETATM   27  C   UNL     1      -7.679   6.342  67.822  1.00  0.00    -0.103 A  
HETATM   28  C   UNL     1      -8.017   7.081  69.046  1.00  0.00    -0.116 C  
HETATM   29  C   UNL     1      -7.049   5.095  67.918  1.00  0.00    -0.066 A  
HETATM   30  C   UNL     1      -6.725   4.382  66.762  1.00  0.00    -0.051 A  
HETATM   31  O   UNL     1      -7.828   6.557  70.138  1.00  0.00    -0.103 OA 
HETATM   32  C   UNL     1      -7.034   4.912  65.510  1.00  0.00    -0.062 A  
HETATM   33  C   UNL     1      -7.667   6.153  65.415  1.00  0.00    -0.093 A  
ENDBRANCH  20  21
ENDBRANCH  18  20
ENDBRANCH  16  17
ENDBRANCH  15  16
ENDBRANCH  13  15
ENDBRANCH  10  11
ENDBRANCH   9  10
ENDBRANCH   5   6
ENDBRANCH   4   5
TORSDOF 9
ENDMDL
MODEL      115
REMARK 921   NORMALIZED FREE ENERGY PREDICTED BY IDOCK:   -5.42 KCAL/MOL
REMARK 922        TOTAL FREE ENERGY PREDICTED BY IDOCK:  -11.47 KCAL/MOL
REMARK 923 INTER-LIGAND FREE ENERGY PREDICTED BY IDOCK:   -8.21 KCAL/MOL
REMARK 924 INTRA-LIGAND FREE ENERGY PREDICTED BY IDOCK:   -3.26 KCAL/MOL
REMARK 927      BINDING AFFINITY PREDICTED BY RF-SCORE:    0.00 PKD
ROOT
HETATM    1  C   UNL     1      -8.278  19.208  66.278  1.00  0.00    -0.309 C  
HETATM    2  C   UNL     1      -8.980  18.178  67.160  1.00  0.00    -0.256 C  
HETATM    3  C   UNL     1     -10.437  18.017  66.711  1.00  0.00    -0.335 C  
HETATM    4  C   UNL     1      -8.197  16.852  67.133  1.00  0.00    -0.215 C  
ENDROOT
BRANCH   4   5
HETATM    5  C   UNL     1      -8.852  15.790  68.007  1.00  0.00    -0.176 C  
BRANCH   5   6
HETATM    6  C   UNL     1      -7.838  14.890  68.706  1.00  0.00    -0.149 C  
HETATM    7  C   UNL     1      -8.057  13.407  68.347  1.00  0.00    -0.138 C  
HETATM    8  C   UNL     1      -7.933  13.155  66.836  1.00  0.00     0.117 C  
HETATM    9  C   UNL     1      -7.070  12.544  69.151  1.00  0.00     0.020 C  
BRANCH   9  10
HETATM   10  C   UNL     1      -7.238  11.061  68.835  1.00  0.00    -0.103 C  
BRANCH  10  11
HETATM   11  C   UNL     1      -7.535  10.238  70.079  1.00  0.00    -0.143 C  
HETATM   12  C   UNL     1      -6.710   8.938  70.115  1.00  0.00    -0.041 C  
HETATM   13  C   UNL     1      -7.125   8.055  71.308  1.00  0.00    -0.057 C  
HETATM   14  C   UNL     1      -5.200   9.203  70.163  1.00  0.00    -0.028 C  
BRANCH  13  15
HETATM   15  C   UNL     1      -8.599   7.631  71.312  1.00  0.00    -0.124 C  
BRANCH  15  16
HETATM   16  C   UNL     1      -9.421   8.361  72.375  1.00  0.00    -0.365 C  
BRANCH  16  17
HETATM   17  C   UNL     1     -10.712   8.902  71.815  1.00  0.00    -0.432 C  
HETATM   18  C   UNL     1     -10.676   9.843  70.850  1.00  0.00    -0.305 C  
HETATM   19  C   UNL     1     -11.983   8.303  72.341  1.00  0.00    -0.447 C  
BRANCH  18  20
HETATM   20  C   UNL     1     -11.855  10.430  70.119  1.00  0.00    -0.379 C  
BRANCH  20  21
HETATM   21  C   UNL     1     -11.471  10.888  68.726  1.00  0.00    -0.376 C  
HETATM   22  C   UNL     1     -10.909  10.099  67.785  1.00  0.00    -0.346 C  
HETATM   23  C   UNL     1     -10.522   8.656  67.970  1.00  0.00    -0.254 C  
HETATM   24  C   UNL     1     -10.637  10.616  66.412  1.00  0.00    -0.175 C  
HETATM   25  O   UNL     1     -10.088   9.917  65.570  1.00  0.00    -0.303 OA 
HETATM   26  C   UNL     1     -11.064  11.983  66.079  1.00  0.00    -0.364 A  
HETATM   27  C   UNL     1     -11.613  12.805  67.052  1.00  0.00    -0.422 A  
HETATM   28  C   UNL     1     -11.775  12.319  68.429  1.00  0.00    -0.337 C  
HETATM   29  C   UNL     1     -12.008  14.109  66.726  1.00  0.00    -0.475 A  
HETATM   30  C   UNL     1     -11.857  14.582  65.421  1.00  0.00    -0.344 A  
HETATM   31  O   UNL     1     -12.166  13.090  69.298  1.00  0.00    -0.231 OA 
HETATM   32  C   UNL     1     -11.309  13.755  64.442  1.00  0.00    -0.375 A  
HETATM   33  C   UNL     1     -10.911  12.457  64.768  1.00  0.00    -0.340 A  
ENDBRANCH  20  21
ENDBRANCH  18  20
ENDBRANCH  16  17
ENDBRANCH  15  16
ENDBRANCH  13  15
ENDBRANCH  10  11
ENDBRANCH   9  10
ENDBRANCH   5   6
ENDBRANCH   4   5
TORSDOF 9
ENDMDL
MODEL      116
REMARK 921   NORMALIZED FREE ENERGY PREDICTED BY IDOCK:   -5.41 KCAL/MOL
REMARK 922        TOTAL FREE ENERGY PREDICTED BY IDOCK:  -11.45 KCAL/MOL
REMARK 923 INTER-LIGAND FREE ENERGY PREDICTED BY IDOCK:   -9.73 KCAL/MOL
REMARK 924 INTRA-LIGAND FREE ENERGY PREDICTED BY IDOCK:   -1.72 KCAL/MOL
REMARK 927      BINDING AFFINITY PREDICTED BY RF-SCORE:    0.00 PKD
ROOT
HETATM    1  C   UNL     1     -10.801   6.308  66.861  1.00  0.00    -0.428 C  
HETATM    2  C   UNL     1     -10.396   7.651  67.465  1.00  0.00    -0.326 C  
HETATM    3  C   UNL     1      -9.192   7.459  68.393  1.00  0.00    -0.138 C  
HETATM    4  C   UNL     1     -10.125   8.665  66.337  1.00  0.00    -0.294 C  
ENDROOT
BRANCH   4   5
HETATM    5  C   UNL     1      -9.724  10.028  66.887  1.00  0.00    -0.237 C  
BRANCH   5   6
HETATM    6  C   UNL     1      -8.307  10.432  66.493  1.00  0.00    -0.130 C  
HETATM    7  C   UNL     1      -7.674  11.366  67.543  1.00  0.00    -0.125 C  
HETATM    8  C   UNL     1      -7.597  10.708  68.928  1.00  0.00    -0.113 C  
HETATM    9  C   UNL     1      -6.288  11.814  67.047  1.00  0.00    -0.150 C  
BRANCH   9  10
HETATM   10  C   UNL     1      -5.608  12.741  68.049  1.00  0.00    -0.096 C  
BRANCH  10  11
HETATM   11  C   UNL     1      -5.849  14.208  67.730  1.00  0.00    -0.090 C  
HETATM   12  C   UNL     1      -6.954  14.812  68.617  1.00  0.00    -0.110 C  
HETATM   13  C   UNL     1      -7.278  16.256  68.186  1.00  0.00    -0.147 C  
HETATM   14  C   UNL     1      -6.591  14.782  70.108  1.00  0.00    -0.145 C  
BRANCH  13  15
HETATM   15  C   UNL     1      -7.761  16.401  66.737  1.00  0.00    -0.298 C  
BRANCH  15  16
HETATM   16  C   UNL     1      -9.013  15.573  66.445  1.00  0.00    -0.359 C  
BRANCH  16  17
HETATM   17  C   UNL     1     -10.194  16.032  67.262  1.00  0.00    -0.277 C  
HETATM   18  C   UNL     1     -10.866  15.141  68.019  1.00  0.00    -0.284 C  
HETATM   19  C   UNL     1     -10.519  17.496  67.221  1.00  0.00    -0.327 C  
BRANCH  18  20
HETATM   20  C   UNL     1     -12.006  15.434  68.958  1.00  0.00    -0.313 C  
BRANCH  20  21
HETATM   21  C   UNL     1     -12.274  14.266  69.887  1.00  0.00    -0.407 C  
HETATM   22  C   UNL     1     -13.069  14.318  70.977  1.00  0.00    -0.394 C  
HETATM   23  C   UNL     1     -13.780  15.545  71.484  1.00  0.00    -0.553 C  
HETATM   24  C   UNL     1     -13.338  13.096  71.790  1.00  0.00    -0.389 C  
HETATM   25  O   UNL     1     -14.023  13.149  72.803  1.00  0.00    -0.657 OA 
HETATM   26  C   UNL     1     -12.779  11.814  71.337  1.00  0.00    -0.413 A  
HETATM   27  C   UNL     1     -11.938  11.764  70.235  1.00  0.00    -0.429 A  
HETATM   28  C   UNL     1     -11.593  12.993  69.508  1.00  0.00    -0.276 C  
HETATM   29  C   UNL     1     -11.403  10.539  69.818  1.00  0.00    -0.367 A  
HETATM   30  C   UNL     1     -11.722   9.364  70.503  1.00  0.00    -0.254 A  
HETATM   31  O   UNL     1     -10.768  12.946  68.602  1.00  0.00    -0.246 OA 
HETATM   32  C   UNL     1     -12.571   9.413  71.607  1.00  0.00    -0.460 A  
HETATM   33  C   UNL     1     -13.100  10.635  72.026  1.00  0.00    -0.501 A  
ENDBRANCH  20  21
ENDBRANCH  18  20
ENDBRANCH  16  17
ENDBRANCH  15  16
ENDBRANCH  13  15
ENDBRANCH  10  11
ENDBRANCH   9  10
ENDBRANCH   5   6
ENDBRANCH   4   5
TORSDOF 9
ENDMDL
MODEL      117
REMARK 921   NORMALIZED FREE ENERGY PREDICTED BY IDOCK:   -5.40 KCAL/MOL
REMARK 922        TOTAL FREE ENERGY PREDICTED BY IDOCK:  -11.44 KCAL/MOL
REMARK 923 INTER-LIGAND FREE ENERGY PREDICTED BY IDOCK:   -9.67 KCAL/MOL
REMARK 924 INTRA-LIGAND FREE ENERGY PREDICTED BY IDOCK:   -1.77 KCAL/MOL
REMARK 927      BINDING AFFINITY PREDICTED BY RF-SCORE:    0.00 PKD
ROOT
HETATM    1  C   UNL     1      -8.185   4.166  68.740  1.00  0.00    -0.081 C  
HETATM    2  C   UNL     1      -8.894   5.518  68.796  1.00  0.00    -0.109 C  
HETATM    3  C   UNL     1      -9.721   5.616  70.082  1.00  0.00    -0.228 C  
HETATM    4  C   UNL     1      -7.859   6.652  68.664  1.00  0.00    -0.114 C  
ENDROOT
BRANCH   4   5
HETATM    5  C   UNL     1      -8.517   8.025  68.705  1.00  0.00    -0.127 C  
BRANCH   5   6
HETATM    6  C   UNL     1      -9.455   8.268  67.527  1.00  0.00    -0.182 C  
HETATM    7  C   UNL     1      -9.034   9.510  66.718  1.00  0.00    -0.157 C  
HETATM    8  C   UNL     1      -7.611   9.376  66.154  1.00  0.00    -0.096 C  
HETATM    9  C   UNL     1     -10.066   9.759  65.604  1.00  0.00    -0.282 C  
BRANCH   9  10
HETATM   10  C   UNL     1      -9.700  10.978  64.764  1.00  0.00    -0.311 C  
BRANCH  10  11
HETATM   11  C   UNL     1     -10.265  12.265  65.343  1.00  0.00    -0.297 C  
HETATM   12  C   UNL     1     -10.836  13.183  64.246  1.00  0.00    -0.430 C  
HETATM   13  C   UNL     1     -11.276  14.538  64.835  1.00  0.00    -0.395 C  
HETATM   14  C   UNL     1     -12.006  12.539  63.492  1.00  0.00    -0.629 C  
BRANCH  13  15
HETATM   15  C   UNL     1     -10.159  15.332  65.525  1.00  0.00    -0.408 C  
BRANCH  15  16
HETATM   16  C   UNL     1     -10.586  16.754  65.894  1.00  0.00    -0.255 C  
BRANCH  16  17
HETATM   17  C   UNL     1     -10.520  16.994  67.381  1.00  0.00    -0.322 C  
HETATM   18  C   UNL     1     -11.251  16.225  68.212  1.00  0.00    -0.324 C  
HETATM   19  C   UNL     1      -9.579  18.062  67.853  1.00  0.00    -0.284 C  
BRANCH  18  20
HETATM   20  C   UNL     1     -11.243  16.264  69.718  1.00  0.00    -0.314 C  
BRANCH  20  21
HETATM   21  C   UNL     1     -11.698  14.945  70.309  1.00  0.00    -0.352 C  
HETATM   22  C   UNL     1     -12.589  14.822  71.317  1.00  0.00    -0.403 C  
HETATM   23  C   UNL     1     -13.238  15.962  72.056  1.00  0.00    -0.378 C  
HETATM   24  C   UNL     1     -13.040  13.477  71.783  1.00  0.00    -0.387 C  
HETATM   25  O   UNL     1     -13.812  13.362  72.725  1.00  0.00    -0.720 OA 
HETATM   26  C   UNL     1     -12.551  12.287  71.072  1.00  0.00    -0.352 A  
HETATM   27  C   UNL     1     -11.614  12.410  70.057  1.00  0.00    -0.216 A  
HETATM   28  C   UNL     1     -11.095  13.733  69.681  1.00  0.00    -0.038 C  
HETATM   29  C   UNL     1     -11.148  11.269  69.392  1.00  0.00    -0.316 A  
HETATM   30  C   UNL     1     -11.631  10.006  69.743  1.00  0.00    -0.193 A  
HETATM   31  O   UNL     1     -10.194  13.814  68.855  1.00  0.00    -0.201 OA 
HETATM   32  C   UNL     1     -12.577   9.883  70.760  1.00  0.00    -0.324 A  
HETATM   33  C   UNL     1     -13.037  11.020  71.426  1.00  0.00    -0.441 A  
ENDBRANCH  20  21
ENDBRANCH  18  20
ENDBRANCH  16  17
ENDBRANCH  15  16
ENDBRANCH  13  15
ENDBRANCH  10  11
ENDBRANCH   9  10
ENDBRANCH   5   6
ENDBRANCH   4   5
TORSDOF 9
ENDMDL
MODEL      118
REMARK 921   NORMALIZED FREE ENERGY PREDICTED BY IDOCK:   -5.40 KCAL/MOL
REMARK 922        TOTAL FREE ENERGY PREDICTED BY IDOCK:  -11.44 KCAL/MOL
REMARK 923 INTER-LIGAND FREE ENERGY PREDICTED BY IDOCK:   -9.21 KCAL/MOL
REMARK 924 INTRA-LIGAND FREE ENERGY PREDICTED BY IDOCK:   -2.22 KCAL/MOL
REMARK 927      BINDING AFFINITY PREDICTED BY RF-SCORE:    0.00 PKD
ROOT
HETATM    1  C   UNL     1     -14.113   9.157  72.432  1.00  0.00    -0.434 C  
HETATM    2  C   UNL     1     -12.904   9.421  71.537  1.00  0.00    -0.442 C  
HETATM    3  C   UNL     1     -12.700  10.931  71.372  1.00  0.00    -0.539 C  
HETATM    4  C   UNL     1     -11.665   8.711  72.115  1.00  0.00    -0.442 C  
ENDROOT
BRANCH   4   5
HETATM    5  C   UNL     1     -10.431   8.934  71.253  1.00  0.00    -0.357 C  
BRANCH   5   6
HETATM    6  C   UNL     1     -10.710   8.767  69.763  1.00  0.00    -0.220 C  
HETATM    7  C   UNL     1     -10.448   7.322  69.297  1.00  0.00    -0.221 C  
HETATM    8  C   UNL     1     -11.323   6.306  70.047  1.00  0.00    -0.486 C  
HETATM    9  C   UNL     1     -10.655   7.238  67.775  1.00  0.00    -0.289 C  
BRANCH   9  10
HETATM   10  C   UNL     1     -10.411   5.825  67.254  1.00  0.00    -0.284 C  
BRANCH  10  11
HETATM   11  C   UNL     1      -9.742   5.823  65.889  1.00  0.00     0.019 C  
HETATM   12  C   UNL     1      -8.212   5.965  66.002  1.00  0.00    -0.123 C  
HETATM   13  C   UNL     1      -7.567   6.100  64.609  1.00  0.00    -0.093 C  
HETATM   14  C   UNL     1      -7.570   4.798  66.763  1.00  0.00    -0.087 C  
BRANCH  13  15
HETATM   15  C   UNL     1      -8.052   7.302  63.789  1.00  0.00    -0.011 C  
BRANCH  15  16
HETATM   16  C   UNL     1      -7.415   8.619  64.236  1.00  0.00    -0.109 C  
BRANCH  16  17
HETATM   17  C   UNL     1      -8.270   9.343  65.246  1.00  0.00    -0.133 C  
HETATM   18  C   UNL     1      -9.466   9.839  64.872  1.00  0.00    -0.331 C  
HETATM   19  C   UNL     1      -7.744   9.416  66.649  1.00  0.00    -0.097 C  
BRANCH  18  20
HETATM   20  C   UNL     1     -10.482  10.509  65.760  1.00  0.00    -0.214 C  
BRANCH  20  21
HETATM   21  C   UNL     1     -10.581  11.993  65.467  1.00  0.00    -0.313 C  
HETATM   22  C   UNL     1     -11.390  12.539  64.535  1.00  0.00    -0.379 C  
HETATM   23  C   UNL     1     -12.287  11.775  63.597  1.00  0.00    -0.488 C  
HETATM   24  C   UNL     1     -11.482  14.020  64.369  1.00  0.00    -0.344 C  
HETATM   25  O   UNL     1     -12.181  14.517  63.496  1.00  0.00    -0.505 OA 
HETATM   26  C   UNL     1     -10.727  14.877  65.295  1.00  0.00    -0.409 A  
HETATM   27  C   UNL     1      -9.873  14.318  66.233  1.00  0.00    -0.323 A  
HETATM   28  C   UNL     1      -9.709  12.860  66.313  1.00  0.00    -0.268 C  
HETATM   29  C   UNL     1      -9.152  15.144  67.105  1.00  0.00    -0.226 A  
HETATM   30  C   UNL     1      -9.297  16.531  67.037  1.00  0.00    -0.242 A  
HETATM   31  O   UNL     1      -8.874  12.388  67.076  1.00  0.00    -0.198 OA 
HETATM   32  C   UNL     1     -10.160  17.094  66.097  1.00  0.00    -0.317 A  
HETATM   33  C   UNL     1     -10.874  16.270  65.226  1.00  0.00    -0.310 A  
ENDBRANCH  20  21
ENDBRANCH  18  20
ENDBRANCH  16  17
ENDBRANCH  15  16
ENDBRANCH  13  15
ENDBRANCH  10  11
ENDBRANCH   9  10
ENDBRANCH   5   6
ENDBRANCH   4   5
TORSDOF 9
ENDMDL
MODEL      119
REMARK 921   NORMALIZED FREE ENERGY PREDICTED BY IDOCK:   -5.39 KCAL/MOL
REMARK 922        TOTAL FREE ENERGY PREDICTED BY IDOCK:  -11.43 KCAL/MOL
REMARK 923 INTER-LIGAND FREE ENERGY PREDICTED BY IDOCK:   -6.93 KCAL/MOL
REMARK 924 INTRA-LIGAND FREE ENERGY PREDICTED BY IDOCK:   -4.51 KCAL/MOL
REMARK 927      BINDING AFFINITY PREDICTED BY RF-SCORE:    0.00 PKD
ROOT
HETATM    1  C   UNL     1      -8.580   5.751  71.065  1.00  0.00    -0.131 C  
HETATM    2  C   UNL     1      -8.134   7.194  71.291  1.00  0.00    -0.107 C  
HETATM    3  C   UNL     1      -8.007   7.468  72.793  1.00  0.00    -0.125 C  
HETATM    4  C   UNL     1      -6.825   7.458  70.523  1.00  0.00    -0.052 C  
ENDROOT
BRANCH   4   5
HETATM    5  C   UNL     1      -6.340   8.889  70.708  1.00  0.00    -0.049 C  
BRANCH   5   6
HETATM    6  C   UNL     1      -7.321   9.923  70.163  1.00  0.00    -0.166 C  
HETATM    7  C   UNL     1      -6.680  10.779  69.053  1.00  0.00    -0.070 C  
HETATM    8  C   UNL     1      -6.204   9.926  67.868  1.00  0.00    -0.051 C  
HETATM    9  C   UNL     1      -7.682  11.860  68.611  1.00  0.00    -0.113 C  
BRANCH   9  10
HETATM   10  C   UNL     1      -7.104  12.741  67.509  1.00  0.00    -0.148 C  
BRANCH  10  11
HETATM   11  C   UNL     1      -7.783  14.100  67.443  1.00  0.00    -0.189 C  
HETATM   12  C   UNL     1      -7.577  14.906  68.739  1.00  0.00    -0.135 C  
HETATM   13  C   UNL     1      -8.386  16.217  68.706  1.00  0.00    -0.235 C  
HETATM   14  C   UNL     1      -6.098  15.212  69.010  1.00  0.00    -0.098 C  
BRANCH  13  15
HETATM   15  C   UNL     1      -9.901  16.035  68.549  1.00  0.00    -0.216 C  
BRANCH  15  16
HETATM   16  C   UNL     1     -10.393  16.374  67.141  1.00  0.00    -0.290 C  
BRANCH  16  17
HETATM   17  C   UNL     1     -10.973  15.170  66.442  1.00  0.00    -0.329 C  
HETATM   18  C   UNL     1     -11.350  14.098  67.167  1.00  0.00    -0.348 C  
HETATM   19  C   UNL     1     -11.147  15.269  64.956  1.00  0.00    -0.436 C  
BRANCH  18  20
HETATM   20  C   UNL     1     -12.023  12.853  66.652  1.00  0.00    -0.436 C  
BRANCH  20  21
HETATM   21  C   UNL     1     -11.283  11.603  67.085  1.00  0.00    -0.371 C  
HETATM   22  C   UNL     1     -11.414  11.012  68.292  1.00  0.00    -0.374 C  
HETATM   23  C   UNL     1     -12.270  11.515  69.425  1.00  0.00    -0.273 C  
HETATM   24  C   UNL     1     -10.705   9.737  68.604  1.00  0.00    -0.216 C  
HETATM   25  O   UNL     1     -10.787   9.222  69.712  1.00  0.00    -0.230 OA 
HETATM   26  C   UNL     1      -9.916   9.094  67.543  1.00  0.00    -0.258 A  
HETATM   27  C   UNL     1      -9.756   9.714  66.313  1.00  0.00    -0.303 A  
HETATM   28  C   UNL     1     -10.370  11.024  66.055  1.00  0.00    -0.254 C  
HETATM   29  C   UNL     1      -8.995   9.097  65.312  1.00  0.00    -0.246 A  
HETATM   30  C   UNL     1      -8.404   7.854  65.545  1.00  0.00    -0.152 A  
HETATM   31  O   UNL     1     -10.134  11.604  65.002  1.00  0.00    -0.244 OA 
HETATM   32  C   UNL     1      -8.569   7.228  66.780  1.00  0.00    -0.127 A  
HETATM   33  C   UNL     1      -9.323   7.845  67.779  1.00  0.00    -0.153 A  
ENDBRANCH  20  21
ENDBRANCH  18  20
ENDBRANCH  16  17
ENDBRANCH  15  16
ENDBRANCH  13  15
ENDBRANCH  10  11
ENDBRANCH   9  10
ENDBRANCH   5   6
ENDBRANCH   4   5
TORSDOF 9
ENDMDL
MODEL      120
REMARK 921   NORMALIZED FREE ENERGY PREDICTED BY IDOCK:   -5.38 KCAL/MOL
REMARK 922        TOTAL FREE ENERGY PREDICTED BY IDOCK:  -11.41 KCAL/MOL
REMARK 923 INTER-LIGAND FREE ENERGY PREDICTED BY IDOCK:   -9.93 KCAL/MOL
REMARK 924 INTRA-LIGAND FREE ENERGY PREDICTED BY IDOCK:   -1.48 KCAL/MOL
REMARK 927      BINDING AFFINITY PREDICTED BY RF-SCORE:    0.00 PKD
ROOT
HETATM    1  C   UNL     1      -8.385   3.182  74.370  1.00  0.00    -0.069 C  
HETATM    2  C   UNL     1      -9.194   4.129  73.488  1.00  0.00    -0.107 C  
HETATM    3  C   UNL     1      -9.019   3.744  72.015  1.00  0.00    -0.147 C  
HETATM    4  C   UNL     1     -10.668   4.123  73.936  1.00  0.00    -0.320 C  
ENDROOT
BRANCH   4   5
HETATM    5  C   UNL     1     -11.520   5.061  73.091  1.00  0.00    -0.362 C  
BRANCH   5   6
HETATM    6  C   UNL     1     -11.098   6.521  73.219  1.00  0.00    -0.141 C  
HETATM    7  C   UNL     1     -11.315   7.290  71.901  1.00  0.00    -0.288 C  
HETATM    8  C   UNL     1     -12.786   7.273  71.459  1.00  0.00    -0.430 C  
HETATM    9  C   UNL     1     -10.786   8.725  72.062  1.00  0.00    -0.417 C  
BRANCH   9  10
HETATM   10  C   UNL     1     -10.976   9.538  70.786  1.00  0.00    -0.389 C  
BRANCH  10  11
HETATM   11  C   UNL     1     -10.260   8.918  69.596  1.00  0.00    -0.209 C  
HETATM   12  C   UNL     1      -8.981   9.694  69.231  1.00  0.00    -0.173 C  
HETATM   13  C   UNL     1      -8.347   9.134  67.943  1.00  0.00    -0.117 C  
HETATM   14  C   UNL     1      -7.948   9.689  70.365  1.00  0.00    -0.191 C  
BRANCH  13  15
HETATM   15  C   UNL     1      -9.251   9.187  66.705  1.00  0.00    -0.207 C  
BRANCH  15  16
HETATM   16  C   UNL     1      -8.940  10.375  65.795  1.00  0.00    -0.189 C  
BRANCH  16  17
HETATM   17  C   UNL     1     -10.147  11.253  65.583  1.00  0.00    -0.295 C  
HETATM   18  C   UNL     1     -10.755  11.817  66.646  1.00  0.00    -0.300 C  
HETATM   19  C   UNL     1     -10.570  11.492  64.163  1.00  0.00    -0.420 C  
BRANCH  18  20
HETATM   20  C   UNL     1     -11.910  12.784  66.617  1.00  0.00    -0.462 C  
BRANCH  20  21
HETATM   21  C   UNL     1     -11.438  14.206  66.387  1.00  0.00    -0.362 C  
HETATM   22  C   UNL     1     -11.626  14.902  65.246  1.00  0.00    -0.300 C  
HETATM   23  C   UNL     1     -12.284  14.377  63.998  1.00  0.00    -0.300 C  
HETATM   24  C   UNL     1     -11.196  16.328  65.137  1.00  0.00    -0.113 C  
HETATM   25  O   UNL     1     -11.325  16.948  64.090  1.00  0.00    -1.208 OA 
HETATM   26  C   UNL     1     -10.630  16.983  66.325  1.00  0.00    -0.185 A  
HETATM   27  C   UNL     1     -10.408  16.261  67.488  1.00  0.00    -0.288 A  
HETATM   28  C   UNL     1     -10.735  14.829  67.547  1.00  0.00    -0.269 C  
HETATM   29  C   UNL     1      -9.860  16.893  68.611  1.00  0.00    -0.270 A  
HETATM   30  C   UNL     1      -9.542  18.252  68.566  1.00  0.00    -0.358 A  
HETATM   31  O   UNL     1     -10.438  14.184  68.546  1.00  0.00    -0.239 OA 
HETATM   32  C   UNL     1      -9.770  18.980  67.399  1.00  0.00    -0.371 A  
HETATM   33  C   UNL     1     -10.312  18.348  66.278  1.00  0.00    -0.440 A  
ENDBRANCH  20  21
ENDBRANCH  18  20
ENDBRANCH  16  17
ENDBRANCH  15  16
ENDBRANCH  13  15
ENDBRANCH  10  11
ENDBRANCH   9  10
ENDBRANCH   5   6
ENDBRANCH   4   5
TORSDOF 9
ENDMDL
MODEL      121
REMARK 921   NORMALIZED FREE ENERGY PREDICTED BY IDOCK:   -5.36 KCAL/MOL
REMARK 922        TOTAL FREE ENERGY PREDICTED BY IDOCK:  -11.39 KCAL/MOL
REMARK 923 INTER-LIGAND FREE ENERGY PREDICTED BY IDOCK:   -8.15 KCAL/MOL
REMARK 924 INTRA-LIGAND FREE ENERGY PREDICTED BY IDOCK:   -3.24 KCAL/MOL
REMARK 927      BINDING AFFINITY PREDICTED BY RF-SCORE:    0.00 PKD
ROOT
HETATM    1  C   UNL     1     -12.578  12.078  63.331  1.00  0.00    -0.592 C  
HETATM    2  C   UNL     1     -11.591  11.727  64.442  1.00  0.00    -0.325 C  
HETATM    3  C   UNL     1     -10.156  11.946  63.949  1.00  0.00    -0.396 C  
HETATM    4  C   UNL     1     -11.919  12.545  65.706  1.00  0.00    -0.482 C  
ENDROOT
BRANCH   4   5
HETATM    5  C   UNL     1     -10.967  12.225  66.850  1.00  0.00    -0.312 C  
BRANCH   5   6
HETATM    6  C   UNL     1     -11.148  10.812  67.395  1.00  0.00    -0.363 C  
HETATM    7  C   UNL     1      -9.793  10.109  67.605  1.00  0.00    -0.201 C  
HETATM    8  C   UNL     1      -8.895  10.871  68.591  1.00  0.00    -0.158 C  
HETATM    9  C   UNL     1     -10.043   8.662  68.064  1.00  0.00    -0.241 C  
BRANCH   9  10
HETATM   10  C   UNL     1      -8.734   7.913  68.291  1.00  0.00    -0.130 C  
BRANCH  10  11
HETATM   11  C   UNL     1      -8.815   6.463  67.843  1.00  0.00    -0.113 C  
HETATM   12  C   UNL     1      -9.700   5.623  68.783  1.00  0.00    -0.178 C  
HETATM   13  C   UNL     1      -9.658   4.133  68.392  1.00  0.00    -0.190 C  
HETATM   14  C   UNL     1     -11.153   6.113  68.814  1.00  0.00    -0.398 C  
BRANCH  13  15
HETATM   15  C   UNL     1      -8.263   3.496  68.430  1.00  0.00    -0.088 C  
BRANCH  15  16
HETATM   16  C   UNL     1      -8.132   2.423  69.512  1.00  0.00    -0.061 C  
BRANCH  16  17
HETATM   17  C   UNL     1      -8.686   2.887  70.835  1.00  0.00    -0.128 C  
HETATM   18  C   UNL     1      -8.116   3.933  71.465  1.00  0.00    -0.069 C  
HETATM   19  C   UNL     1      -9.900   2.171  71.349  1.00  0.00    -0.181 C  
BRANCH  18  20
HETATM   20  C   UNL     1      -8.586   4.583  72.740  1.00  0.00    -0.113 C  
BRANCH  20  21
HETATM   21  C   UNL     1      -9.155   5.964  72.482  1.00  0.00    -0.135 C  
HETATM   22  C   UNL     1      -8.416   7.059  72.202  1.00  0.00    -0.116 C  
HETATM   23  C   UNL     1      -6.912   7.111  72.149  1.00  0.00    -0.067 C  
HETATM   24  C   UNL     1      -9.067   8.364  71.883  1.00  0.00    -0.221 C  
HETATM   25  O   UNL     1      -8.400   9.368  71.672  1.00  0.00    -0.233 OA 
HETATM   26  C   UNL     1     -10.534   8.416  71.806  1.00  0.00    -0.353 A  
HETATM   27  C   UNL     1     -11.295   7.300  72.123  1.00  0.00    -0.301 A  
HETATM   28  C   UNL     1     -10.643   6.052  72.542  1.00  0.00    -0.216 C  
HETATM   29  C   UNL     1     -12.692   7.364  72.055  1.00  0.00    -0.239 A  
HETATM   30  C   UNL     1     -13.323   8.546  71.661  1.00  0.00    -0.372 A  
HETATM   31  O   UNL     1     -11.332   5.109  72.916  1.00  0.00    -0.289 OA 
HETATM   32  C   UNL     1     -12.558   9.666  71.337  1.00  0.00    -0.463 A  
HETATM   33  C   UNL     1     -11.166   9.604  71.410  1.00  0.00    -0.426 A  
ENDBRANCH  20  21
ENDBRANCH  18  20
ENDBRANCH  16  17
ENDBRANCH  15  16
ENDBRANCH  13  15
ENDBRANCH  10  11
ENDBRANCH   9  10
ENDBRANCH   5   6
ENDBRANCH   4   5
TORSDOF 9
ENDMDL
MODEL      122
REMARK 921   NORMALIZED FREE ENERGY PREDICTED BY IDOCK:   -5.34 KCAL/MOL
REMARK 922        TOTAL FREE ENERGY PREDICTED BY IDOCK:  -11.36 KCAL/MOL
REMARK 923 INTER-LIGAND FREE ENERGY PREDICTED BY IDOCK:   -8.59 KCAL/MOL
REMARK 924 INTRA-LIGAND FREE ENERGY PREDICTED BY IDOCK:   -2.77 KCAL/MOL
REMARK 927      BINDING AFFINITY PREDICTED BY RF-SCORE:    0.00 PKD
ROOT
HETATM    1  C   UNL     1     -10.768   5.918  66.584  1.00  0.00    -0.323 C  
HETATM    2  C   UNL     1     -10.418   7.275  67.190  1.00  0.00    -0.394 C  
HETATM    3  C   UNL     1      -9.931   7.090  68.631  1.00  0.00    -0.156 C  
HETATM    4  C   UNL     1      -9.384   7.989  66.298  1.00  0.00    -0.246 C  
ENDROOT
BRANCH   4   5
HETATM    5  C   UNL     1      -9.005   9.356  66.854  1.00  0.00    -0.148 C  
BRANCH   5   6
HETATM    6  C   UNL     1      -7.517   9.476  67.168  1.00  0.00    -0.091 C  
HETATM    7  C   UNL     1      -7.263  10.453  68.333  1.00  0.00    -0.080 C  
HETATM    8  C   UNL     1      -7.971  10.009  69.622  1.00  0.00    -0.176 C  
HETATM    9  C   UNL     1      -5.746  10.605  68.540  1.00  0.00    -0.040 C  
BRANCH   9  10
HETATM   10  C   UNL     1      -5.430  11.560  69.686  1.00  0.00    -0.064 C  
BRANCH  10  11
HETATM   11  C   UNL     1      -5.323  13.003  69.218  1.00  0.00    -0.075 C  
HETATM   12  C   UNL     1      -6.291  13.925  69.983  1.00  0.00    -0.099 C  
HETATM   13  C   UNL     1      -6.266  15.353  69.401  1.00  0.00    -0.128 C  
HETATM   14  C   UNL     1      -5.993  13.970  71.487  1.00  0.00    -0.071 C  
BRANCH  13  15
HETATM   15  C   UNL     1      -6.655  15.451  67.921  1.00  0.00    -0.169 C  
BRANCH  15  16
HETATM   16  C   UNL     1      -7.123  14.115  67.342  1.00  0.00    -0.101 C  
BRANCH  16  17
HETATM   17  C   UNL     1      -8.595  14.128  67.015  1.00  0.00    -0.204 C  
HETATM   18  C   UNL     1      -9.354  13.057  67.322  1.00  0.00    -0.220 C  
HETATM   19  C   UNL     1      -9.142  15.385  66.406  1.00  0.00    -0.350 C  
BRANCH  18  20
HETATM   20  C   UNL     1     -10.845  12.929  67.150  1.00  0.00    -0.278 C  
BRANCH  20  21
HETATM   21  C   UNL     1     -11.560  12.936  68.486  1.00  0.00    -0.358 C  
HETATM   22  C   UNL     1     -11.819  11.836  69.224  1.00  0.00    -0.389 C  
HETATM   23  C   UNL     1     -11.492  10.420  68.830  1.00  0.00    -0.251 C  
HETATM   24  C   UNL     1     -12.460  11.946  70.568  1.00  0.00    -0.215 C  
HETATM   25  O   UNL     1     -12.735  10.949  71.221  1.00  0.00    -0.380 OA 
HETATM   26  C   UNL     1     -12.736  13.286  71.107  1.00  0.00    -0.404 A  
HETATM   27  C   UNL     1     -12.498  14.416  70.337  1.00  0.00    -0.420 A  
HETATM   28  C   UNL     1     -11.969  14.287  68.972  1.00  0.00    -0.325 C  
HETATM   29  C   UNL     1     -12.774  15.687  70.856  1.00  0.00    -0.500 A  
HETATM   30  C   UNL     1     -13.279  15.822  72.151  1.00  0.00    -0.508 A  
HETATM   31  O   UNL     1     -11.863  15.286  68.271  1.00  0.00    -0.336 OA 
HETATM   32  C   UNL     1     -13.513  14.687  72.927  1.00  0.00    -0.528 A  
HETATM   33  C   UNL     1     -13.243  13.420  72.407  1.00  0.00    -0.564 A  
ENDBRANCH  20  21
ENDBRANCH  18  20
ENDBRANCH  16  17
ENDBRANCH  15  16
ENDBRANCH  13  15
ENDBRANCH  10  11
ENDBRANCH   9  10
ENDBRANCH   5   6
ENDBRANCH   4   5
TORSDOF 9
ENDMDL
MODEL      123
REMARK 921   NORMALIZED FREE ENERGY PREDICTED BY IDOCK:   -5.33 KCAL/MOL
REMARK 922        TOTAL FREE ENERGY PREDICTED BY IDOCK:  -11.33 KCAL/MOL
REMARK 923 INTER-LIGAND FREE ENERGY PREDICTED BY IDOCK:   -9.02 KCAL/MOL
REMARK 924 INTRA-LIGAND FREE ENERGY PREDICTED BY IDOCK:   -2.31 KCAL/MOL
REMARK 927      BINDING AFFINITY PREDICTED BY RF-SCORE:    0.00 PKD
ROOT
HETATM    1  C   UNL     1      -9.769  20.484  67.282  1.00  0.00    -0.600 C  
HETATM    2  C   UNL     1      -9.436  18.995  67.246  1.00  0.00    -0.353 C  
HETATM    3  C   UNL     1      -8.370  18.676  68.300  1.00  0.00    -0.350 C  
HETATM    4  C   UNL     1     -10.724  18.170  67.432  1.00  0.00    -0.355 C  
ENDROOT
BRANCH   4   5
HETATM    5  C   UNL     1     -10.448  16.673  67.394  1.00  0.00    -0.314 C  
BRANCH   5   6
HETATM    6  C   UNL     1     -11.208  15.903  68.470  1.00  0.00    -0.362 C  
HETATM    7  C   UNL     1     -11.173  14.385  68.209  1.00  0.00    -0.295 C  
HETATM    8  C   UNL     1      -9.738  13.837  68.178  1.00  0.00    -0.227 C  
HETATM    9  C   UNL     1     -12.031  13.672  69.268  1.00  0.00    -0.384 C  
BRANCH   9  10
HETATM   10  C   UNL     1     -12.033  12.161  69.062  1.00  0.00    -0.302 C  
BRANCH  10  11
HETATM   11  C   UNL     1     -11.932  11.401  70.376  1.00  0.00    -0.465 C  
HETATM   12  C   UNL     1     -11.261  10.027  70.191  1.00  0.00    -0.367 C  
HETATM   13  C   UNL     1     -11.292   9.219  71.503  1.00  0.00    -0.455 C  
HETATM   14  C   UNL     1      -9.817  10.142  69.684  1.00  0.00    -0.254 C  
BRANCH  13  15
HETATM   15  C   UNL     1     -12.697   8.942  72.055  1.00  0.00    -0.456 C  
BRANCH  15  16
HETATM   16  C   UNL     1     -13.243   7.580  71.627  1.00  0.00    -0.404 C  
BRANCH  16  17
HETATM   17  C   UNL     1     -12.137   6.612  71.287  1.00  0.00    -0.395 C  
HETATM   18  C   UNL     1     -11.745   6.474  70.005  1.00  0.00    -0.388 C  
HETATM   19  C   UNL     1     -11.494   5.889  72.433  1.00  0.00    -0.358 C  
BRANCH  18  20
HETATM   20  C   UNL     1     -10.608   5.626  69.496  1.00  0.00    -0.384 C  
BRANCH  20  21
HETATM   21  C   UNL     1      -9.460   6.480  68.996  1.00  0.00    -0.130 C  
HETATM   22  C   UNL     1      -8.342   6.754  69.701  1.00  0.00    -0.132 C  
HETATM   23  C   UNL     1      -8.066   6.306  71.112  1.00  0.00    -0.118 C  
HETATM   24  C   UNL     1      -7.226   7.539  69.098  1.00  0.00    -0.084 C  
HETATM   25  O   UNL     1      -6.230   7.826  69.749  1.00  0.00    -0.029 OA 
HETATM   26  C   UNL     1      -7.336   7.948  67.690  1.00  0.00    -0.096 A  
HETATM   27  C   UNL     1      -8.496   7.694  66.973  1.00  0.00    -0.125 A  
HETATM   28  C   UNL     1      -9.631   7.015  67.613  1.00  0.00    -0.131 C  
HETATM   29  C   UNL     1      -8.594   8.095  65.635  1.00  0.00    -0.181 A  
HETATM   30  C   UNL     1      -7.523   8.744  65.016  1.00  0.00    -0.097 A  
HETATM   31  O   UNL     1     -10.684   6.891  66.998  1.00  0.00    -0.310 OA 
HETATM   32  C   UNL     1      -6.354   8.994  65.735  1.00  0.00    -0.060 A  
HETATM   33  C   UNL     1      -6.259   8.599  67.070  1.00  0.00    -0.056 A  
ENDBRANCH  20  21
ENDBRANCH  18  20
ENDBRANCH  16  17
ENDBRANCH  15  16
ENDBRANCH  13  15
ENDBRANCH  10  11
ENDBRANCH   9  10
ENDBRANCH   5   6
ENDBRANCH   4   5
TORSDOF 9
ENDMDL
MODEL      124
REMARK 921   NORMALIZED FREE ENERGY PREDICTED BY IDOCK:   -5.32 KCAL/MOL
REMARK 922        TOTAL FREE ENERGY PREDICTED BY IDOCK:  -11.32 KCAL/MOL
REMARK 923 INTER-LIGAND FREE ENERGY PREDICTED BY IDOCK:  -10.00 KCAL/MOL
REMARK 924 INTRA-LIGAND FREE ENERGY PREDICTED BY IDOCK:   -1.33 KCAL/MOL
REMARK 927      BINDING AFFINITY PREDICTED BY RF-SCORE:    0.00 PKD
ROOT
HETATM    1  C   UNL     1      -9.410   4.699  65.206  1.00  0.00    -0.159 C  
HETATM    2  C   UNL     1      -9.378   4.130  66.623  1.00  0.00    -0.189 C  
HETATM    3  C   UNL     1      -7.938   3.772  67.006  1.00  0.00    -0.091 C  
HETATM    4  C   UNL     1     -10.023   5.133  67.599  1.00  0.00    -0.203 C  
ENDROOT
BRANCH   4   5
HETATM    5  C   UNL     1     -10.024   4.610  69.029  1.00  0.00    -0.186 C  
BRANCH   5   6
HETATM    6  C   UNL     1      -9.350   5.563  70.010  1.00  0.00    -0.187 C  
HETATM    7  C   UNL     1     -10.204   6.823  70.252  1.00  0.00    -0.216 C  
HETATM    8  C   UNL     1     -11.589   6.480  70.821  1.00  0.00    -0.437 C  
HETATM    9  C   UNL     1      -9.433   7.785  71.172  1.00  0.00    -0.169 C  
BRANCH   9  10
HETATM   10  C   UNL     1     -10.231   9.054  71.450  1.00  0.00    -0.399 C  
BRANCH  10  11
HETATM   11  C   UNL     1     -10.176  10.035  70.290  1.00  0.00    -0.266 C  
HETATM   12  C   UNL     1     -11.539  10.164  69.584  1.00  0.00    -0.216 C  
HETATM   13  C   UNL     1     -11.428  11.053  68.330  1.00  0.00    -0.378 C  
HETATM   14  C   UNL     1     -12.632  10.707  70.513  1.00  0.00    -0.433 C  
BRANCH  13  15
HETATM   15  C   UNL     1     -10.439  10.551  67.270  1.00  0.00    -0.300 C  
BRANCH  15  16
HETATM   16  C   UNL     1     -11.035  10.544  65.862  1.00  0.00     0.146 C  
BRANCH  16  17
HETATM   17  C   UNL     1     -10.534  11.700  65.033  1.00  0.00    -0.336 C  
HETATM   18  C   UNL     1     -10.796  12.962  65.426  1.00  0.00    -0.307 C  
HETATM   19  C   UNL     1      -9.709  11.361  63.827  1.00  0.00    -0.314 C  
BRANCH  18  20
HETATM   20  C   UNL     1     -10.306  14.230  64.775  1.00  0.00    -0.373 C  
BRANCH  20  21
HETATM   21  C   UNL     1     -10.109  15.335  65.793  1.00  0.00    -0.384 C  
HETATM   22  C   UNL     1      -9.519  15.175  66.997  1.00  0.00    -0.237 C  
HETATM   23  C   UNL     1      -9.008  13.873  67.555  1.00  0.00    -0.197 C  
HETATM   24  C   UNL     1      -9.296  16.339  67.904  1.00  0.00    -0.209 C  
HETATM   25  O   UNL     1      -8.802  16.189  69.014  1.00  0.00    -0.232 OA 
HETATM   26  C   UNL     1      -9.662  17.680  67.428  1.00  0.00    -0.283 A  
HETATM   27  C   UNL     1     -10.295  17.843  66.205  1.00  0.00    -0.352 A  
HETATM   28  C   UNL     1     -10.609  16.676  65.369  1.00  0.00    -0.237 C  
HETATM   29  C   UNL     1     -10.649  19.125  65.765  1.00  0.00    -0.417 A  
HETATM   30  C   UNL     1     -10.359  20.242  66.551  1.00  0.00    -0.420 A  
HETATM   31  O   UNL     1     -11.258  16.828  64.341  1.00  0.00    -1.112 OA 
HETATM   32  C   UNL     1      -9.718  20.079  67.779  1.00  0.00    -0.528 A  
HETATM   33  C   UNL     1      -9.370  18.801  68.219  1.00  0.00    -0.374 A  
ENDBRANCH  20  21
ENDBRANCH  18  20
ENDBRANCH  16  17
ENDBRANCH  15  16
ENDBRANCH  13  15
ENDBRANCH  10  11
ENDBRANCH   9  10
ENDBRANCH   5   6
ENDBRANCH   4   5
TORSDOF 9
ENDMDL
MODEL      125
REMARK 921   NORMALIZED FREE ENERGY PREDICTED BY IDOCK:   -5.32 KCAL/MOL
REMARK 922        TOTAL FREE ENERGY PREDICTED BY IDOCK:  -11.32 KCAL/MOL
REMARK 923 INTER-LIGAND FREE ENERGY PREDICTED BY IDOCK:  -10.06 KCAL/MOL
REMARK 924 INTRA-LIGAND FREE ENERGY PREDICTED BY IDOCK:   -1.26 KCAL/MOL
REMARK 927      BINDING AFFINITY PREDICTED BY RF-SCORE:    0.00 PKD
ROOT
HETATM    1  C   UNL     1     -12.437  15.812  74.561  1.00  0.00    -0.755 C  
HETATM    2  C   UNL     1     -12.811  15.723  73.083  1.00  0.00    -0.631 C  
HETATM    3  C   UNL     1     -11.807  16.521  72.244  1.00  0.00    -0.396 C  
HETATM    4  C   UNL     1     -12.900  14.244  72.659  1.00  0.00    -0.468 C  
ENDROOT
BRANCH   4   5
HETATM    5  C   UNL     1     -13.280  14.098  71.192  1.00  0.00    -0.369 C  
BRANCH   5   6
HETATM    6  C   UNL     1     -12.201  13.405  70.366  1.00  0.00    -0.415 C  
HETATM    7  C   UNL     1     -12.046  14.056  68.978  1.00  0.00    -0.358 C  
HETATM    8  C   UNL     1     -11.668  15.542  69.077  1.00  0.00    -0.392 C  
HETATM    9  C   UNL     1     -11.015  13.260  68.160  1.00  0.00    -0.278 C  
BRANCH   9  10
HETATM   10  C   UNL     1     -10.816  13.860  66.773  1.00  0.00    -0.286 C  
BRANCH  10  11
HETATM   11  C   UNL     1     -10.035  12.936  65.852  1.00  0.00    -0.273 C  
HETATM   12  C   UNL     1     -10.909  11.783  65.324  1.00  0.00    -0.343 C  
HETATM   13  C   UNL     1     -10.066  10.784  64.507  1.00  0.00    -0.415 C  
HETATM   14  C   UNL     1     -12.090  12.281  64.481  1.00  0.00    -0.462 C  
BRANCH  13  15
HETATM   15  C   UNL     1      -8.913  10.132  65.280  1.00  0.00    -0.218 C  
BRANCH  15  16
HETATM   16  C   UNL     1      -9.125  10.160  66.795  1.00  0.00    -0.159 C  
BRANCH  16  17
HETATM   17  C   UNL     1     -10.259   9.261  67.221  1.00  0.00    -0.315 C  
HETATM   18  C   UNL     1     -10.253   7.964  66.855  1.00  0.00    -0.380 C  
HETATM   19  C   UNL     1     -11.316   9.872  68.093  1.00  0.00    -0.027 C  
BRANCH  18  20
HETATM   20  C   UNL     1     -11.248   6.909  67.259  1.00  0.00    -0.231 C  
BRANCH  20  21
HETATM   21  C   UNL     1     -10.616   5.865  68.158  1.00  0.00    -0.312 C  
HETATM   22  C   UNL     1      -9.810   4.870  67.730  1.00  0.00    -0.196 C  
HETATM   23  C   UNL     1      -9.444   4.594  66.296  1.00  0.00    -0.167 C  
HETATM   24  C   UNL     1      -9.167   3.933  68.698  1.00  0.00    -0.151 C  
HETATM   25  O   UNL     1      -8.471   3.003  68.311  1.00  0.00    -0.075 OA 
HETATM   26  C   UNL     1      -9.368   4.161  70.136  1.00  0.00    -0.234 A  
HETATM   27  C   UNL     1     -10.219   5.164  70.576  1.00  0.00    -0.330 A  
HETATM   28  C   UNL     1     -10.933   6.010  69.609  1.00  0.00    -0.400 C  
HETATM   29  C   UNL     1     -10.411   5.368  71.949  1.00  0.00    -0.283 A  
HETATM   30  C   UNL     1      -9.741   4.568  72.877  1.00  0.00    -0.172 A  
HETATM   31  O   UNL     1     -11.758   6.822  70.012  1.00  0.00    -0.337 OA 
HETATM   32  C   UNL     1      -8.882   3.563  72.435  1.00  0.00    -0.111 A  
HETATM   33  C   UNL     1      -8.694   3.358  71.067  1.00  0.00    -0.123 A  
ENDBRANCH  20  21
ENDBRANCH  18  20
ENDBRANCH  16  17
ENDBRANCH  15  16
ENDBRANCH  13  15
ENDBRANCH  10  11
ENDBRANCH   9  10
ENDBRANCH   5   6
ENDBRANCH   4   5
TORSDOF 9
ENDMDL
MODEL      126
REMARK 921   NORMALIZED FREE ENERGY PREDICTED BY IDOCK:   -5.32 KCAL/MOL
REMARK 922        TOTAL FREE ENERGY PREDICTED BY IDOCK:  -11.32 KCAL/MOL
REMARK 923 INTER-LIGAND FREE ENERGY PREDICTED BY IDOCK:   -7.98 KCAL/MOL
REMARK 924 INTRA-LIGAND FREE ENERGY PREDICTED BY IDOCK:   -3.34 KCAL/MOL
REMARK 927      BINDING AFFINITY PREDICTED BY RF-SCORE:    0.00 PKD
ROOT
HETATM    1  C   UNL     1      -9.825  17.966  66.326  1.00  0.00    -0.307 C  
HETATM    2  C   UNL     1     -10.651  16.695  66.509  1.00  0.00    -0.203 C  
HETATM    3  C   UNL     1     -10.699  15.913  65.192  1.00  0.00    -0.449 C  
HETATM    4  C   UNL     1     -10.077  15.867  67.675  1.00  0.00    -0.242 C  
ENDROOT
BRANCH   4   5
HETATM    5  C   UNL     1     -10.872  14.589  67.907  1.00  0.00    -0.260 C  
BRANCH   5   6
HETATM    6  C   UNL     1     -10.016  13.331  67.804  1.00  0.00    -0.223 C  
HETATM    7  C   UNL     1     -10.870  12.092  67.472  1.00  0.00    -0.284 C  
HETATM    8  C   UNL     1     -11.620  12.248  66.141  1.00  0.00    -0.450 C  
HETATM    9  C   UNL     1      -9.969  10.845  67.475  1.00  0.00    -0.201 C  
BRANCH   9  10
HETATM   10  C   UNL     1     -10.760   9.582  67.149  1.00  0.00    -0.252 C  
BRANCH  10  11
HETATM   11  C   UNL     1      -9.894   8.510  66.507  1.00  0.00    -0.342 C  
HETATM   12  C   UNL     1      -9.790   7.253  67.392  1.00  0.00    -0.206 C  
HETATM   13  C   UNL     1      -8.800   6.237  66.790  1.00  0.00    -0.126 C  
HETATM   14  C   UNL     1     -11.151   6.583  67.620  1.00  0.00    -0.380 C  
BRANCH  13  15
HETATM   15  C   UNL     1      -7.369   6.760  66.614  1.00  0.00    -0.074 C  
BRANCH  15  16
HETATM   16  C   UNL     1      -6.348   5.980  67.444  1.00  0.00    -0.038 C  
BRANCH  16  17
HETATM   17  C   UNL     1      -6.665   6.030  68.918  1.00  0.00    -0.060 C  
HETATM   18  C   UNL     1      -6.978   7.209  69.491  1.00  0.00    -0.058 C  
HETATM   19  C   UNL     1      -6.665   4.723  69.655  1.00  0.00    -0.047 C  
BRANCH  18  20
HETATM   20  C   UNL     1      -7.403   7.432  70.919  1.00  0.00    -0.073 C  
BRANCH  20  21
HETATM   21  C   UNL     1      -8.907   7.586  71.032  1.00  0.00    -0.146 C  
HETATM   22  C   UNL     1      -9.754   6.599  71.396  1.00  0.00    -0.181 C  
HETATM   23  C   UNL     1      -9.364   5.177  71.698  1.00  0.00    -0.183 C  
HETATM   24  C   UNL     1     -11.215   6.862  71.558  1.00  0.00    -0.256 C  
HETATM   25  O   UNL     1     -11.991   5.961  71.844  1.00  0.00    -0.206 OA 
HETATM   26  C   UNL     1     -11.703   8.238  71.387  1.00  0.00    -0.327 A  
HETATM   27  C   UNL     1     -10.840   9.246  70.984  1.00  0.00    -0.385 A  
HETATM   28  C   UNL     1      -9.424   8.951  70.721  1.00  0.00    -0.228 C  
HETATM   29  C   UNL     1     -11.318  10.552  70.815  1.00  0.00    -0.295 A  
HETATM   30  C   UNL     1     -12.661  10.844  71.059  1.00  0.00    -0.505 A  
HETATM   31  O   UNL     1      -8.700   9.829  70.268  1.00  0.00    -0.209 OA 
HETATM   32  C   UNL     1     -13.529   9.832  71.469  1.00  0.00    -0.417 A  
HETATM   33  C   UNL     1     -13.053   8.530  71.632  1.00  0.00    -0.368 A  
ENDBRANCH  20  21
ENDBRANCH  18  20
ENDBRANCH  16  17
ENDBRANCH  15  16
ENDBRANCH  13  15
ENDBRANCH  10  11
ENDBRANCH   9  10
ENDBRANCH   5   6
ENDBRANCH   4   5
TORSDOF 9
ENDMDL
MODEL      127
REMARK 921   NORMALIZED FREE ENERGY PREDICTED BY IDOCK:   -5.31 KCAL/MOL
REMARK 922        TOTAL FREE ENERGY PREDICTED BY IDOCK:  -11.31 KCAL/MOL
REMARK 923 INTER-LIGAND FREE ENERGY PREDICTED BY IDOCK:   -7.53 KCAL/MOL
REMARK 924 INTRA-LIGAND FREE ENERGY PREDICTED BY IDOCK:   -3.77 KCAL/MOL
REMARK 927      BINDING AFFINITY PREDICTED BY RF-SCORE:    0.00 PKD
ROOT
HETATM    1  C   UNL     1     -12.147  14.573  64.224  1.00  0.00    -0.448 C  
HETATM    2  C   UNL     1     -10.978  13.841  64.878  1.00  0.00    -0.378 C  
HETATM    3  C   UNL     1     -11.047  14.009  66.400  1.00  0.00    -0.316 C  
HETATM    4  C   UNL     1     -10.980  12.364  64.440  1.00  0.00    -0.377 C  
ENDROOT
BRANCH   4   5
HETATM    5  C   UNL     1      -9.825  11.588  65.059  1.00  0.00    -0.294 C  
BRANCH   5   6
HETATM    6  C   UNL     1     -10.144  10.111  65.262  1.00  0.00    -0.344 C  
HETATM    7  C   UNL     1     -10.089   9.720  66.752  1.00  0.00    -0.295 C  
HETATM    8  C   UNL     1     -11.086  10.528  67.597  1.00  0.00    -0.375 C  
HETATM    9  C   UNL     1     -10.326   8.206  66.884  1.00  0.00    -0.401 C  
BRANCH   9  10
HETATM   10  C   UNL     1     -10.285   7.759  68.342  1.00  0.00    -0.230 C  
BRANCH  10  11
HETATM   11  C   UNL     1      -9.228   6.694  68.587  1.00  0.00    -0.128 C  
HETATM   12  C   UNL     1      -7.866   7.093  67.988  1.00  0.00    -0.118 C  
HETATM   13  C   UNL     1      -6.847   5.945  68.126  1.00  0.00    -0.067 C  
HETATM   14  C   UNL     1      -7.299   8.371  68.620  1.00  0.00    -0.088 C  
BRANCH  13  15
HETATM   15  C   UNL     1      -7.255   4.636  67.437  1.00  0.00    -0.073 C  
BRANCH  15  16
HETATM   16  C   UNL     1      -7.079   3.414  68.338  1.00  0.00    -0.050 C  
BRANCH  16  17
HETATM   17  C   UNL     1      -7.921   3.508  69.585  1.00  0.00    -0.056 C  
HETATM   18  C   UNL     1      -7.374   3.982  70.722  1.00  0.00    -0.041 C  
HETATM   19  C   UNL     1      -9.362   3.109  69.461  1.00  0.00    -0.228 C  
BRANCH  18  20
HETATM   20  C   UNL     1      -8.082   4.226  72.030  1.00  0.00    -0.094 C  
BRANCH  20  21
HETATM   21  C   UNL     1      -8.728   5.597  72.063  1.00  0.00    -0.134 C  
HETATM   22  C   UNL     1      -8.051   6.764  72.089  1.00  0.00    -0.100 C  
HETATM   23  C   UNL     1      -6.553   6.907  72.140  1.00  0.00    -0.057 C  
HETATM   24  C   UNL     1      -8.771   8.071  72.041  1.00  0.00    -0.147 C  
HETATM   25  O   UNL     1      -8.163   9.131  72.108  1.00  0.00    -0.303 OA 
HETATM   26  C   UNL     1     -10.234   8.061  71.889  1.00  0.00    -0.275 A  
HETATM   27  C   UNL     1     -10.933   6.863  71.893  1.00  0.00    -0.266 A  
HETATM   28  C   UNL     1     -10.220   5.588  72.051  1.00  0.00    -0.199 C  
HETATM   29  C   UNL     1     -12.327   6.866  71.757  1.00  0.00    -0.401 A  
HETATM   30  C   UNL     1     -13.015   8.072  71.608  1.00  0.00    -0.351 A  
HETATM   31  O   UNL     1     -10.862   4.549  72.156  1.00  0.00    -0.066 OA 
HETATM   32  C   UNL     1     -12.312   9.276  71.599  1.00  0.00    -0.450 A  
HETATM   33  C   UNL     1     -10.923   9.274  71.740  1.00  0.00    -0.383 A  
ENDBRANCH  20  21
ENDBRANCH  18  20
ENDBRANCH  16  17
ENDBRANCH  15  16
ENDBRANCH  13  15
ENDBRANCH  10  11
ENDBRANCH   9  10
ENDBRANCH   5   6
ENDBRANCH   4   5
TORSDOF 9
ENDMDL
MODEL      128
REMARK 921   NORMALIZED FREE ENERGY PREDICTED BY IDOCK:   -5.31 KCAL/MOL
REMARK 922        TOTAL FREE ENERGY PREDICTED BY IDOCK:  -11.31 KCAL/MOL
REMARK 923 INTER-LIGAND FREE ENERGY PREDICTED BY IDOCK:   -7.68 KCAL/MOL
REMARK 924 INTRA-LIGAND FREE ENERGY PREDICTED BY IDOCK:   -3.62 KCAL/MOL
REMARK 927      BINDING AFFINITY PREDICTED BY RF-SCORE:    0.00 PKD
ROOT
HETATM    1  C   UNL     1     -12.409  13.955  64.849  1.00  0.00    -0.445 C  
HETATM    2  C   UNL     1     -11.559  13.640  66.078  1.00  0.00    -0.358 C  
HETATM    3  C   UNL     1     -11.987  14.534  67.247  1.00  0.00    -0.375 C  
HETATM    4  C   UNL     1     -11.659  12.139  66.407  1.00  0.00    -0.429 C  
ENDROOT
BRANCH   4   5
HETATM    5  C   UNL     1     -10.820  11.769  67.623  1.00  0.00    -0.263 C  
BRANCH   5   6
HETATM    6  C   UNL     1     -11.176  10.399  68.194  1.00  0.00    -0.333 C  
HETATM    7  C   UNL     1     -11.113  10.396  69.734  1.00  0.00    -0.352 C  
HETATM    8  C   UNL     1     -12.079  11.418  70.352  1.00  0.00    -0.473 C  
HETATM    9  C   UNL     1     -11.388   8.971  70.245  1.00  0.00    -0.202 C  
BRANCH   9  10
HETATM   10  C   UNL     1     -11.342   8.904  71.768  1.00  0.00    -0.431 C  
BRANCH  10  11
HETATM   11  C   UNL     1      -9.985   8.452  72.283  1.00  0.00    -0.383 C  
HETATM   12  C   UNL     1     -10.116   7.572  73.541  1.00  0.00    -0.378 C  
HETATM   13  C   UNL     1      -8.729   7.239  74.126  1.00  0.00    -0.253 C  
HETATM   14  C   UNL     1     -10.893   6.277  73.272  1.00  0.00    -0.269 C  
BRANCH  13  15
HETATM   15  C   UNL     1      -7.895   8.458  74.538  1.00  0.00    -0.259 C  
BRANCH  15  16
HETATM   16  C   UNL     1      -6.409   8.294  74.216  1.00  0.00    -0.142 C  
BRANCH  16  17
HETATM   17  C   UNL     1      -6.182   7.936  72.769  1.00  0.00    -0.066 C  
HETATM   18  C   UNL     1      -5.877   6.666  72.438  1.00  0.00    -0.038 C  
HETATM   19  C   UNL     1      -6.370   9.033  71.764  1.00  0.00    -0.049 C  
BRANCH  18  20
HETATM   20  C   UNL     1      -5.703   6.114  71.047  1.00  0.00    -0.022 C  
BRANCH  20  21
HETATM   21  C   UNL     1      -7.038   5.927  70.354  1.00  0.00    -0.070 C  
HETATM   22  C   UNL     1      -8.028   5.123  70.796  1.00  0.00    -0.096 C  
HETATM   23  C   UNL     1      -7.960   4.240  72.014  1.00  0.00    -0.090 C  
HETATM   24  C   UNL     1      -9.342   5.062  70.090  1.00  0.00    -0.157 C  
HETATM   25  O   UNL     1     -10.225   4.301  70.463  1.00  0.00    -0.135 OA 
HETATM   26  C   UNL     1      -9.565   5.954  68.944  1.00  0.00    -0.158 A  
HETATM   27  C   UNL     1      -8.539   6.759  68.470  1.00  0.00    -0.125 A  
HETATM   28  C   UNL     1      -7.216   6.728  69.107  1.00  0.00    -0.091 C  
HETATM   29  C   UNL     1      -8.760   7.599  67.370  1.00  0.00    -0.124 A  
HETATM   30  C   UNL     1     -10.012   7.634  66.755  1.00  0.00    -0.317 A  
HETATM   31  O   UNL     1      -6.294   7.367  68.612  1.00  0.00    -0.037 OA 
HETATM   32  C   UNL     1     -11.045   6.829  67.234  1.00  0.00    -0.394 A  
HETATM   33  C   UNL     1     -10.824   5.989  68.326  1.00  0.00    -0.366 A  
ENDBRANCH  20  21
ENDBRANCH  18  20
ENDBRANCH  16  17
ENDBRANCH  15  16
ENDBRANCH  13  15
ENDBRANCH  10  11
ENDBRANCH   9  10
ENDBRANCH   5   6
ENDBRANCH   4   5
TORSDOF 9
ENDMDL
MODEL      129
REMARK 921   NORMALIZED FREE ENERGY PREDICTED BY IDOCK:   -5.30 KCAL/MOL
REMARK 922        TOTAL FREE ENERGY PREDICTED BY IDOCK:  -11.29 KCAL/MOL
REMARK 923 INTER-LIGAND FREE ENERGY PREDICTED BY IDOCK:   -9.50 KCAL/MOL
REMARK 924 INTRA-LIGAND FREE ENERGY PREDICTED BY IDOCK:   -1.79 KCAL/MOL
REMARK 927      BINDING AFFINITY PREDICTED BY RF-SCORE:    0.00 PKD
ROOT
HETATM    1  C   UNL     1     -13.454   8.866  72.081  1.00  0.00    -0.497 C  
HETATM    2  C   UNL     1     -12.219   8.282  71.398  1.00  0.00    -0.328 C  
HETATM    3  C   UNL     1     -10.956   8.717  72.150  1.00  0.00    -0.434 C  
HETATM    4  C   UNL     1     -12.357   6.751  71.297  1.00  0.00    -0.395 C  
ENDROOT
BRANCH   4   5
HETATM    5  C   UNL     1     -11.152   6.118  70.614  1.00  0.00    -0.384 C  
BRANCH   5   6
HETATM    6  C   UNL     1     -11.158   6.314  69.101  1.00  0.00    -0.457 C  
HETATM    7  C   UNL     1     -10.219   7.460  68.676  1.00  0.00    -0.203 C  
HETATM    8  C   UNL     1      -8.766   7.204  69.102  1.00  0.00    -0.133 C  
HETATM    9  C   UNL     1     -10.338   7.672  67.157  1.00  0.00    -0.385 C  
BRANCH   9  10
HETATM   10  C   UNL     1      -9.427   8.796  66.675  1.00  0.00    -0.263 C  
BRANCH  10  11
HETATM   11  C   UNL     1     -10.028   9.562  65.508  1.00  0.00    -0.209 C  
HETATM   12  C   UNL     1      -9.131  10.736  65.073  1.00  0.00    -0.226 C  
HETATM   13  C   UNL     1      -9.820  11.581  63.983  1.00  0.00    -0.306 C  
HETATM   14  C   UNL     1      -7.755  10.272  64.579  1.00  0.00    -0.107 C  
BRANCH  13  15
HETATM   15  C   UNL     1     -11.163  12.195  64.398  1.00  0.00    -0.400 C  
BRANCH  15  16
HETATM   16  C   UNL     1     -11.071  13.698  64.661  1.00  0.00    -0.387 C  
BRANCH  16  17
HETATM   17  C   UNL     1     -10.771  13.999  66.108  1.00  0.00    -0.289 C  
HETATM   18  C   UNL     1      -9.528  14.378  66.465  1.00  0.00    -0.309 C  
HETATM   19  C   UNL     1     -11.919  13.909  67.070  1.00  0.00    -0.459 C  
BRANCH  18  20
HETATM   20  C   UNL     1      -9.072  14.798  67.838  1.00  0.00    -0.183 C  
BRANCH  20  21
HETATM   21  C   UNL     1      -8.809  16.289  67.902  1.00  0.00    -0.183 C  
HETATM   22  C   UNL     1      -9.688  17.206  68.362  1.00  0.00    -0.284 C  
HETATM   23  C   UNL     1     -11.087  16.916  68.836  1.00  0.00    -0.128 C  
HETATM   24  C   UNL     1      -9.312  18.647  68.463  1.00  0.00    -0.346 C  
HETATM   25  O   UNL     1     -10.121  19.486  68.837  1.00  0.00    -0.442 OA 
HETATM   26  C   UNL     1      -7.937  19.040  68.122  1.00  0.00    -0.334 A  
HETATM   27  C   UNL     1      -7.043  18.105  67.622  1.00  0.00    -0.202 A  
HETATM   28  C   UNL     1      -7.459  16.710  67.424  1.00  0.00    -0.161 C  
HETATM   29  C   UNL     1      -5.738  18.492  67.292  1.00  0.00    -0.146 A  
HETATM   30  C   UNL     1      -5.331  19.816  67.473  1.00  0.00    -0.172 A  
HETATM   31  O   UNL     1      -6.690  15.922  66.886  1.00  0.00    -0.266 OA 
HETATM   32  C   UNL     1      -6.229  20.754  67.981  1.00  0.00    -0.373 A  
HETATM   33  C   UNL     1      -7.531  20.369  68.305  1.00  0.00    -0.109 A  
ENDBRANCH  20  21
ENDBRANCH  18  20
ENDBRANCH  16  17
ENDBRANCH  15  16
ENDBRANCH  13  15
ENDBRANCH  10  11
ENDBRANCH   9  10
ENDBRANCH   5   6
ENDBRANCH   4   5
TORSDOF 9
ENDMDL
MODEL      130
REMARK 921   NORMALIZED FREE ENERGY PREDICTED BY IDOCK:   -5.27 KCAL/MOL
REMARK 922        TOTAL FREE ENERGY PREDICTED BY IDOCK:  -11.25 KCAL/MOL
REMARK 923 INTER-LIGAND FREE ENERGY PREDICTED BY IDOCK:   -9.19 KCAL/MOL
REMARK 924 INTRA-LIGAND FREE ENERGY PREDICTED BY IDOCK:   -2.06 KCAL/MOL
REMARK 927      BINDING AFFINITY PREDICTED BY RF-SCORE:    0.00 PKD
ROOT
HETATM    1  C   UNL     1     -14.177  15.134  71.861  1.00  0.00    -0.676 C  
HETATM    2  C   UNL     1     -12.836  15.557  71.267  1.00  0.00    -0.540 C  
HETATM    3  C   UNL     1     -11.832  15.827  72.393  1.00  0.00    -0.606 C  
HETATM    4  C   UNL     1     -12.347  14.484  70.275  1.00  0.00    -0.408 C  
ENDROOT
BRANCH   4   5
HETATM    5  C   UNL     1     -11.013  14.862  69.646  1.00  0.00    -0.294 C  
BRANCH   5   6
HETATM    6  C   UNL     1     -11.033  14.785  68.122  1.00  0.00    -0.274 C  
HETATM    7  C   UNL     1     -10.822  13.341  67.627  1.00  0.00    -0.273 C  
HETATM    8  C   UNL     1     -11.906  12.386  68.152  1.00  0.00    -0.372 C  
HETATM    9  C   UNL     1     -10.759  13.340  66.090  1.00  0.00    -0.287 C  
BRANCH   9  10
HETATM   10  C   UNL     1     -10.553  11.933  65.539  1.00  0.00    -0.313 C  
BRANCH  10  11
HETATM   11  C   UNL     1      -9.166  11.392  65.847  1.00  0.00    -0.231 C  
HETATM   12  C   UNL     1      -9.180  10.439  67.057  1.00  0.00    -0.165 C  
HETATM   13  C   UNL     1      -7.749  10.012  67.438  1.00  0.00    -0.095 C  
HETATM   14  C   UNL     1     -10.047   9.197  66.816  1.00  0.00    -0.341 C  
BRANCH  13  15
HETATM   15  C   UNL     1      -6.809  11.167  67.809  1.00  0.00    -0.073 C  
BRANCH  15  16
HETATM   16  C   UNL     1      -7.451  12.163  68.775  1.00  0.00    -0.075 C  
BRANCH  16  17
HETATM   17  C   UNL     1      -6.673  13.453  68.853  1.00  0.00    -0.110 C  
HETATM   18  C   UNL     1      -6.398  14.133  67.722  1.00  0.00    -0.169 C  
HETATM   19  C   UNL     1      -6.295  13.934  70.222  1.00  0.00    -0.067 C  
BRANCH  18  20
HETATM   20  C   UNL     1      -5.714  15.470  67.618  1.00  0.00    -0.116 C  
BRANCH  20  21
HETATM   21  C   UNL     1      -6.688  16.611  67.836  1.00  0.00    -0.155 C  
HETATM   22  C   UNL     1      -6.502  17.624  68.709  1.00  0.00    -0.213 C  
HETATM   23  C   UNL     1      -5.332  17.770  69.645  1.00  0.00    -0.199 C  
HETATM   24  C   UNL     1      -7.479  18.748  68.800  1.00  0.00    -0.306 C  
HETATM   25  O   UNL     1      -7.336  19.645  69.620  1.00  0.00    -0.252 OA 
HETATM   26  C   UNL     1      -8.614  18.770  67.865  1.00  0.00    -0.321 A  
HETATM   27  C   UNL     1      -8.823  17.715  66.989  1.00  0.00    -0.256 A  
HETATM   28  C   UNL     1      -7.914  16.561  66.986  1.00  0.00    -0.203 C  
HETATM   29  C   UNL     1      -9.913  17.741  66.110  1.00  0.00    -0.283 A  
HETATM   30  C   UNL     1     -10.786  18.831  66.106  1.00  0.00    -0.320 A  
HETATM   31  O   UNL     1      -8.172  15.593  66.279  1.00  0.00    -0.199 OA 
HETATM   32  C   UNL     1     -10.573  19.894  66.983  1.00  0.00    -0.533 A  
HETATM   33  C   UNL     1      -9.490  19.865  67.863  1.00  0.00    -0.469 A  
ENDBRANCH  20  21
ENDBRANCH  18  20
ENDBRANCH  16  17
ENDBRANCH  15  16
ENDBRANCH  13  15
ENDBRANCH  10  11
ENDBRANCH   9  10
ENDBRANCH   5   6
ENDBRANCH   4   5
TORSDOF 9
ENDMDL
MODEL      131
REMARK 921   NORMALIZED FREE ENERGY PREDICTED BY IDOCK:   -5.27 KCAL/MOL
REMARK 922        TOTAL FREE ENERGY PREDICTED BY IDOCK:  -11.24 KCAL/MOL
REMARK 923 INTER-LIGAND FREE ENERGY PREDICTED BY IDOCK:   -9.18 KCAL/MOL
REMARK 924 INTRA-LIGAND FREE ENERGY PREDICTED BY IDOCK:   -2.06 KCAL/MOL
REMARK 927      BINDING AFFINITY PREDICTED BY RF-SCORE:    0.00 PKD
ROOT
HETATM    1  C   UNL     1     -10.854  14.980  65.085  1.00  0.00    -0.422 C  
HETATM    2  C   UNL     1     -10.912  13.477  65.351  1.00  0.00    -0.300 C  
HETATM    3  C   UNL     1     -12.336  13.076  65.750  1.00  0.00    -0.477 C  
HETATM    4  C   UNL     1     -10.400  12.712  64.115  1.00  0.00    -0.412 C  
ENDROOT
BRANCH   4   5
HETATM    5  C   UNL     1     -10.429  11.205  64.331  1.00  0.00    -0.418 C  
BRANCH   5   6
HETATM    6  C   UNL     1      -9.176  10.682  65.026  1.00  0.00    -0.245 C  
HETATM    7  C   UNL     1      -9.483  10.197  66.456  1.00  0.00    -0.214 C  
HETATM    8  C   UNL     1     -10.524   9.067  66.471  1.00  0.00    -0.192 C  
HETATM    9  C   UNL     1      -8.171   9.770  67.136  1.00  0.00    -0.121 C  
BRANCH   9  10
HETATM   10  C   UNL     1      -8.412   9.277  68.559  1.00  0.00    -0.123 C  
BRANCH  10  11
HETATM   11  C   UNL     1      -9.450  10.113  69.289  1.00  0.00    -0.231 C  
HETATM   12  C   UNL     1     -10.137   9.317  70.415  1.00  0.00    -0.287 C  
HETATM   13  C   UNL     1     -11.278  10.134  71.051  1.00  0.00    -0.322 C  
HETATM   14  C   UNL     1      -9.151   8.867  71.501  1.00  0.00    -0.299 C  
BRANCH  13  15
HETATM   15  C   UNL     1     -12.389  10.552  70.079  1.00  0.00    -0.290 C  
BRANCH  15  16
HETATM   16  C   UNL     1     -11.912  11.562  69.034  1.00  0.00    -0.377 C  
BRANCH  16  17
HETATM   17  C   UNL     1     -11.733  12.938  69.623  1.00  0.00    -0.367 C  
HETATM   18  C   UNL     1     -10.834  13.783  69.079  1.00  0.00    -0.247 C  
HETATM   19  C   UNL     1     -12.628  13.306  70.769  1.00  0.00    -0.357 C  
BRANCH  18  20
HETATM   20  C   UNL     1     -10.585  15.214  69.477  1.00  0.00    -0.277 C  
BRANCH  20  21
HETATM   21  C   UNL     1      -9.465  15.829  68.663  1.00  0.00    -0.208 C  
HETATM   22  C   UNL     1      -8.379  15.160  68.221  1.00  0.00    -0.149 C  
HETATM   23  C   UNL     1      -8.069  13.713  68.500  1.00  0.00    -0.118 C  
HETATM   24  C   UNL     1      -7.363  15.829  67.356  1.00  0.00    -0.197 C  
HETATM   25  O   UNL     1      -6.356  15.238  66.990  1.00  0.00    -0.240 OA 
HETATM   26  C   UNL     1      -7.607  17.216  66.931  1.00  0.00    -0.240 A  
HETATM   27  C   UNL     1      -8.706  17.914  67.409  1.00  0.00    -0.237 A  
HETATM   28  C   UNL     1      -9.640  17.278  68.348  1.00  0.00    -0.285 C  
HETATM   29  C   UNL     1      -8.923  19.238  67.005  1.00  0.00    -0.331 A  
HETATM   30  C   UNL     1      -8.040  19.854  66.116  1.00  0.00    -0.347 A  
HETATM   31  O   UNL     1     -10.546  17.941  68.839  1.00  0.00    -0.242 OA 
HETATM   32  C   UNL     1      -6.938  19.150  65.632  1.00  0.00    -0.293 A  
HETATM   33  C   UNL     1      -6.719  17.833  66.038  1.00  0.00    -0.316 A  
ENDBRANCH  20  21
ENDBRANCH  18  20
ENDBRANCH  16  17
ENDBRANCH  15  16
ENDBRANCH  13  15
ENDBRANCH  10  11
ENDBRANCH   9  10
ENDBRANCH   5   6
ENDBRANCH   4   5
TORSDOF 9
ENDMDL
MODEL      132
REMARK 921   NORMALIZED FREE ENERGY PREDICTED BY IDOCK:   -5.26 KCAL/MOL
REMARK 922        TOTAL FREE ENERGY PREDICTED BY IDOCK:  -11.23 KCAL/MOL
REMARK 923 INTER-LIGAND FREE ENERGY PREDICTED BY IDOCK:   -7.88 KCAL/MOL
REMARK 924 INTRA-LIGAND FREE ENERGY PREDICTED BY IDOCK:   -3.35 KCAL/MOL
REMARK 927      BINDING AFFINITY PREDICTED BY RF-SCORE:    0.00 PKD
ROOT
HETATM    1  C   UNL     1      -8.757  19.286  67.662  1.00  0.00    -0.335 C  
HETATM    2  C   UNL     1      -9.998  18.622  67.071  1.00  0.00    -0.368 C  
HETATM    3  C   UNL     1     -10.590  19.512  65.973  1.00  0.00    -0.589 C  
HETATM    4  C   UNL     1      -9.640  17.210  66.567  1.00  0.00    -0.294 C  
ENDROOT
BRANCH   4   5
HETATM    5  C   UNL     1     -10.849  16.498  65.974  1.00  0.00    -0.069 C  
BRANCH   5   6
HETATM    6  C   UNL     1     -10.465  15.412  64.974  1.00  0.00    -0.411 C  
HETATM    7  C   UNL     1     -11.031  14.039  65.387  1.00  0.00    -0.321 C  
HETATM    8  C   UNL     1     -12.564  14.053  65.486  1.00  0.00    -0.543 C  
HETATM    9  C   UNL     1     -10.535  12.972  64.396  1.00  0.00    -0.426 C  
BRANCH   9  10
HETATM   10  C   UNL     1     -11.066  11.587  64.752  1.00  0.00    -0.300 C  
BRANCH  10  11
HETATM   11  C   UNL     1     -10.119  10.479  64.320  1.00  0.00    -0.380 C  
HETATM   12  C   UNL     1      -9.420   9.823  65.526  1.00  0.00    -0.324 C  
HETATM   13  C   UNL     1      -8.365   8.800  65.060  1.00  0.00    -0.180 C  
HETATM   14  C   UNL     1     -10.410   9.150  66.484  1.00  0.00    -0.269 C  
BRANCH  13  15
HETATM   15  C   UNL     1      -7.251   9.381  64.179  1.00  0.00    -0.106 C  
BRANCH  15  16
HETATM   16  C   UNL     1      -5.857   9.164  64.768  1.00  0.00    -0.064 C  
BRANCH  16  17
HETATM   17  C   UNL     1      -5.792   9.563  66.221  1.00  0.00    -0.058 C  
HETATM   18  C   UNL     1      -6.101  10.826  66.578  1.00  0.00    -0.103 C  
HETATM   19  C   UNL     1      -5.432   8.488  67.203  1.00  0.00    -0.038 C  
BRANCH  18  20
HETATM   20  C   UNL     1      -6.174  11.374  67.979  1.00  0.00    -0.049 C  
BRANCH  20  21
HETATM   21  C   UNL     1      -7.609  11.502  68.450  1.00  0.00    -0.125 C  
HETATM   22  C   UNL     1      -8.441  12.510  68.112  1.00  0.00    -0.180 C  
HETATM   23  C   UNL     1      -8.078  13.696  67.258  1.00  0.00    -0.152 C  
HETATM   24  C   UNL     1      -9.865  12.513  68.559  1.00  0.00    -0.149 C  
HETATM   25  O   UNL     1     -10.610  13.446  68.291  1.00  0.00    -0.240 OA 
HETATM   26  C   UNL     1     -10.365  11.356  69.316  1.00  0.00    -0.056 A  
HETATM   27  C   UNL     1      -9.504  10.335  69.691  1.00  0.00    -0.180 A  
HETATM   28  C   UNL     1      -8.080  10.398  69.337  1.00  0.00    -0.155 C  
HETATM   29  C   UNL     1      -9.990   9.242  70.420  1.00  0.00    -0.287 A  
HETATM   30  C   UNL     1     -11.341   9.173  70.764  1.00  0.00    -0.337 A  
HETATM   31  O   UNL     1      -7.315   9.540  69.763  1.00  0.00    -0.071 OA 
HETATM   32  C   UNL     1     -12.208  10.197  70.384  1.00  0.00    -0.300 A  
HETATM   33  C   UNL     1     -11.723  11.288  69.661  1.00  0.00    -0.420 A  
ENDBRANCH  20  21
ENDBRANCH  18  20
ENDBRANCH  16  17
ENDBRANCH  15  16
ENDBRANCH  13  15
ENDBRANCH  10  11
ENDBRANCH   9  10
ENDBRANCH   5   6
ENDBRANCH   4   5
TORSDOF 9
ENDMDL
MODEL      133
REMARK 921   NORMALIZED FREE ENERGY PREDICTED BY IDOCK:   -5.26 KCAL/MOL
REMARK 922        TOTAL FREE ENERGY PREDICTED BY IDOCK:  -11.22 KCAL/MOL
REMARK 923 INTER-LIGAND FREE ENERGY PREDICTED BY IDOCK:   -8.63 KCAL/MOL
REMARK 924 INTRA-LIGAND FREE ENERGY PREDICTED BY IDOCK:   -2.60 KCAL/MOL
REMARK 927      BINDING AFFINITY PREDICTED BY RF-SCORE:    0.00 PKD
ROOT
HETATM    1  C   UNL     1     -10.121  11.046  62.956  1.00  0.00    -0.285 C  
HETATM    2  C   UNL     1     -10.820  12.318  63.431  1.00  0.00    -0.457 C  
HETATM    3  C   UNL     1     -12.338  12.111  63.417  1.00  0.00    -0.648 C  
HETATM    4  C   UNL     1     -10.284  12.716  64.820  1.00  0.00    -0.307 C  
ENDROOT
BRANCH   4   5
HETATM    5  C   UNL     1     -10.944  13.987  65.337  1.00  0.00    -0.321 C  
BRANCH   5   6
HETATM    6  C   UNL     1     -11.723  13.767  66.629  1.00  0.00    -0.421 C  
HETATM    7  C   UNL     1     -11.132  12.608  67.455  1.00  0.00    -0.313 C  
HETATM    8  C   UNL     1      -9.666  12.861  67.839  1.00  0.00    -0.218 C  
HETATM    9  C   UNL     1     -12.012  12.373  68.695  1.00  0.00    -0.272 C  
BRANCH   9  10
HETATM   10  C   UNL     1     -11.474  11.235  69.556  1.00  0.00    -0.376 C  
BRANCH  10  11
HETATM   11  C   UNL     1     -12.577  10.299  70.027  1.00  0.00    -0.059 C  
HETATM   12  C   UNL     1     -12.763  10.360  71.554  1.00  0.00    -0.564 C  
HETATM   13  C   UNL     1     -13.786   9.307  72.026  1.00  0.00    -0.493 C  
HETATM   14  C   UNL     1     -13.188  11.752  72.039  1.00  0.00    -0.460 C  
BRANCH  13  15
HETATM   15  C   UNL     1     -13.415   7.856  71.694  1.00  0.00    -0.386 C  
BRANCH  15  16
HETATM   16  C   UNL     1     -12.063   7.443  72.277  1.00  0.00    -0.246 C  
BRANCH  16  17
HETATM   17  C   UNL     1     -11.299   6.539  71.342  1.00  0.00    -0.344 C  
HETATM   18  C   UNL     1     -11.347   6.764  70.014  1.00  0.00    -0.396 C  
HETATM   19  C   UNL     1     -10.473   5.457  71.971  1.00  0.00    -0.278 C  
BRANCH  18  20
HETATM   20  C   UNL     1     -10.585   6.023  68.946  1.00  0.00    -0.356 C  
BRANCH  20  21
HETATM   21  C   UNL     1      -9.336   6.776  68.532  1.00  0.00    -0.126 C  
HETATM   22  C   UNL     1      -8.080   6.438  68.896  1.00  0.00    -0.111 C  
HETATM   23  C   UNL     1      -7.708   5.298  69.807  1.00  0.00    -0.073 C  
HETATM   24  C   UNL     1      -6.901   7.191  68.375  1.00  0.00    -0.073 C  
HETATM   25  O   UNL     1      -5.765   6.916  68.737  1.00  0.00    -0.017 OA 
HETATM   26  C   UNL     1      -7.130   8.265  67.397  1.00  0.00    -0.080 A  
HETATM   27  C   UNL     1      -8.421   8.633  67.047  1.00  0.00    -0.110 A  
HETATM   28  C   UNL     1      -9.576   7.955  67.650  1.00  0.00    -0.150 C  
HETATM   29  C   UNL     1      -8.628   9.663  66.120  1.00  0.00    -0.138 A  
HETATM   30  C   UNL     1      -7.537  10.316  65.542  1.00  0.00    -0.149 A  
HETATM   31  O   UNL     1     -10.707   8.361  67.407  1.00  0.00    -0.269 OA 
HETATM   32  C   UNL     1      -6.240   9.944  65.891  1.00  0.00    -0.079 A  
HETATM   33  C   UNL     1      -6.034   8.920  66.818  1.00  0.00    -0.053 A  
ENDBRANCH  20  21
ENDBRANCH  18  20
ENDBRANCH  16  17
ENDBRANCH  15  16
ENDBRANCH  13  15
ENDBRANCH  10  11
ENDBRANCH   9  10
ENDBRANCH   5   6
ENDBRANCH   4   5
TORSDOF 9
ENDMDL
MODEL      134
REMARK 921   NORMALIZED FREE ENERGY PREDICTED BY IDOCK:   -5.25 KCAL/MOL
REMARK 922        TOTAL FREE ENERGY PREDICTED BY IDOCK:  -11.22 KCAL/MOL
REMARK 923 INTER-LIGAND FREE ENERGY PREDICTED BY IDOCK:   -9.18 KCAL/MOL
REMARK 924 INTRA-LIGAND FREE ENERGY PREDICTED BY IDOCK:   -2.04 KCAL/MOL
REMARK 927      BINDING AFFINITY PREDICTED BY RF-SCORE:    0.00 PKD
ROOT
HETATM    1  C   UNL     1      -9.652   6.072  74.558  1.00  0.00    -0.232 C  
HETATM    2  C   UNL     1     -10.447   5.882  73.268  1.00  0.00    -0.255 C  
HETATM    3  C   UNL     1     -11.304   4.616  73.369  1.00  0.00    -0.394 C  
HETATM    4  C   UNL     1     -11.280   7.146  72.982  1.00  0.00    -0.279 C  
ENDROOT
BRANCH   4   5
HETATM    5  C   UNL     1     -12.087   7.013  71.698  1.00  0.00    -0.384 C  
BRANCH   5   6
HETATM    6  C   UNL     1     -13.086   8.150  71.505  1.00  0.00    -0.309 C  
HETATM    7  C   UNL     1     -12.432   9.524  71.749  1.00  0.00    -0.484 C  
HETATM    8  C   UNL     1     -11.253   9.779  70.798  1.00  0.00    -0.419 C  
HETATM    9  C   UNL     1     -13.505  10.620  71.632  1.00  0.00    -0.280 C  
BRANCH   9  10
HETATM   10  C   UNL     1     -12.916  12.007  71.863  1.00  0.00    -0.428 C  
BRANCH  10  11
HETATM   11  C   UNL     1     -12.077  12.479  70.686  1.00  0.00    -0.312 C  
HETATM   12  C   UNL     1     -12.307  13.972  70.383  1.00  0.00    -0.429 C  
HETATM   13  C   UNL     1     -11.556  14.395  69.105  1.00  0.00    -0.344 C  
HETATM   14  C   UNL     1     -11.898  14.877  71.552  1.00  0.00    -0.419 C  
BRANCH  13  15
HETATM   15  C   UNL     1     -11.960  13.631  67.838  1.00  0.00    -0.382 C  
BRANCH  15  16
HETATM   16  C   UNL     1     -11.334  14.215  66.570  1.00  0.00    -0.348 C  
BRANCH  16  17
HETATM   17  C   UNL     1     -10.316  13.282  65.964  1.00  0.00    -0.290 C  
HETATM   18  C   UNL     1      -9.425  12.660  66.762  1.00  0.00    -0.237 C  
HETATM   19  C   UNL     1     -10.399  13.060  64.483  1.00  0.00    -0.386 C  
BRANCH  18  20
HETATM   20  C   UNL     1      -8.401  11.637  66.345  1.00  0.00    -0.084 C  
BRANCH  20  21
HETATM   21  C   UNL     1      -8.483  10.389  67.202  1.00  0.00    -0.126 C  
HETATM   22  C   UNL     1      -7.827  10.215  68.369  1.00  0.00    -0.093 C  
HETATM   23  C   UNL     1      -6.871  11.197  68.992  1.00  0.00    -0.092 C  
HETATM   24  C   UNL     1      -8.030   8.983  69.187  1.00  0.00    -0.101 C  
HETATM   25  O   UNL     1      -7.404   8.802  70.223  1.00  0.00    -0.050 OA 
HETATM   26  C   UNL     1      -9.017   7.993  68.733  1.00  0.00    -0.141 A  
HETATM   27  C   UNL     1      -9.669   8.156  67.519  1.00  0.00    -0.207 A  
HETATM   28  C   UNL     1      -9.379   9.321  66.671  1.00  0.00    -0.170 C  
HETATM   29  C   UNL     1     -10.601   7.202  67.092  1.00  0.00    -0.417 A  
HETATM   30  C   UNL     1     -10.883   6.090  67.888  1.00  0.00    -0.378 A  
HETATM   31  O   UNL     1      -9.886   9.396  65.558  1.00  0.00    -0.290 OA 
HETATM   32  C   UNL     1     -10.231   5.928  69.110  1.00  0.00    -0.275 A  
HETATM   33  C   UNL     1      -9.299   6.877  69.534  1.00  0.00    -0.147 A  
ENDBRANCH  20  21
ENDBRANCH  18  20
ENDBRANCH  16  17
ENDBRANCH  15  16
ENDBRANCH  13  15
ENDBRANCH  10  11
ENDBRANCH   9  10
ENDBRANCH   5   6
ENDBRANCH   4   5
TORSDOF 9
ENDMDL
MODEL      135
REMARK 921   NORMALIZED FREE ENERGY PREDICTED BY IDOCK:   -5.24 KCAL/MOL
REMARK 922        TOTAL FREE ENERGY PREDICTED BY IDOCK:  -11.20 KCAL/MOL
REMARK 923 INTER-LIGAND FREE ENERGY PREDICTED BY IDOCK:   -7.40 KCAL/MOL
REMARK 924 INTRA-LIGAND FREE ENERGY PREDICTED BY IDOCK:   -3.81 KCAL/MOL
REMARK 927      BINDING AFFINITY PREDICTED BY RF-SCORE:    0.00 PKD
ROOT
HETATM    1  C   UNL     1      -8.357   9.978  63.064  1.00  0.00    -0.166 C  
HETATM    2  C   UNL     1      -7.136   9.489  63.840  1.00  0.00    -0.108 C  
HETATM    3  C   UNL     1      -5.892   9.558  62.948  1.00  0.00    -0.093 C  
HETATM    4  C   UNL     1      -6.985  10.305  65.138  1.00  0.00    -0.122 C  
ENDROOT
BRANCH   4   5
HETATM    5  C   UNL     1      -5.785   9.850  65.957  1.00  0.00    -0.059 C  
BRANCH   5   6
HETATM    6  C   UNL     1      -6.180   9.218  67.288  1.00  0.00    -0.058 C  
HETATM    7  C   UNL     1      -6.896   7.869  67.082  1.00  0.00    -0.073 C  
HETATM    8  C   UNL     1      -6.015   6.856  66.335  1.00  0.00    -0.034 C  
HETATM    9  C   UNL     1      -7.351   7.328  68.448  1.00  0.00    -0.103 C  
BRANCH   9  10
HETATM   10  C   UNL     1      -8.067   5.988  68.309  1.00  0.00    -0.110 C  
BRANCH  10  11
HETATM   11  C   UNL     1      -9.239   5.860  69.269  1.00  0.00    -0.134 C  
HETATM   12  C   UNL     1     -10.462   6.662  68.788  1.00  0.00    -0.241 C  
HETATM   13  C   UNL     1     -11.589   6.632  69.840  1.00  0.00    -0.393 C  
HETATM   14  C   UNL     1     -10.996   6.166  67.438  1.00  0.00    -0.409 C  
BRANCH  13  15
HETATM   15  C   UNL     1     -11.206   7.208  71.209  1.00  0.00    -0.287 C  
BRANCH  15  16
HETATM   16  C   UNL     1     -11.201   8.737  71.227  1.00  0.00    -0.352 C  
BRANCH  16  17
HETATM   17  C   UNL     1      -9.959   9.303  70.587  1.00  0.00    -0.336 C  
HETATM   18  C   UNL     1     -10.073  10.124  69.524  1.00  0.00    -0.258 C  
HETATM   19  C   UNL     1      -8.648   8.951  71.225  1.00  0.00    -0.259 C  
BRANCH  18  20
HETATM   20  C   UNL     1      -8.956  10.846  68.817  1.00  0.00    -0.166 C  
BRANCH  20  21
HETATM   21  C   UNL     1      -9.466  11.617  67.617  1.00  0.00    -0.177 C  
HETATM   22  C   UNL     1     -10.099  11.064  66.560  1.00  0.00    -0.270 C  
HETATM   23  C   UNL     1     -10.361   9.594  66.368  1.00  0.00    -0.246 C  
HETATM   24  C   UNL     1     -10.639  11.913  65.457  1.00  0.00    -0.269 C  
HETATM   25  O   UNL     1     -11.174  11.412  64.478  1.00  0.00    -0.283 OA 
HETATM   26  C   UNL     1     -10.533  13.374  65.580  1.00  0.00    -0.293 A  
HETATM   27  C   UNL     1      -9.856  13.943  66.649  1.00  0.00    -0.288 A  
HETATM   28  C   UNL     1      -9.234  13.091  67.672  1.00  0.00    -0.200 C  
HETATM   29  C   UNL     1      -9.753  15.336  66.752  1.00  0.00    -0.249 A  
HETATM   30  C   UNL     1     -10.337  16.156  65.784  1.00  0.00    -0.398 A  
HETATM   31  O   UNL     1      -8.554  13.605  68.552  1.00  0.00    -0.165 OA 
HETATM   32  C   UNL     1     -11.022  15.585  64.712  1.00  0.00    -0.416 A  
HETATM   33  C   UNL     1     -11.120  14.196  64.607  1.00  0.00    -0.378 A  
ENDBRANCH  20  21
ENDBRANCH  18  20
ENDBRANCH  16  17
ENDBRANCH  15  16
ENDBRANCH  13  15
ENDBRANCH  10  11
ENDBRANCH   9  10
ENDBRANCH   5   6
ENDBRANCH   4   5
TORSDOF 9
ENDMDL
MODEL      136
REMARK 921   NORMALIZED FREE ENERGY PREDICTED BY IDOCK:   -5.24 KCAL/MOL
REMARK 922        TOTAL FREE ENERGY PREDICTED BY IDOCK:  -11.20 KCAL/MOL
REMARK 923 INTER-LIGAND FREE ENERGY PREDICTED BY IDOCK:  -10.57 KCAL/MOL
REMARK 924 INTRA-LIGAND FREE ENERGY PREDICTED BY IDOCK:   -0.63 KCAL/MOL
REMARK 927      BINDING AFFINITY PREDICTED BY RF-SCORE:    0.00 PKD
ROOT
HETATM    1  C   UNL     1      -9.576  20.853  67.543  1.00  0.00    -0.358 C  
HETATM    2  C   UNL     1      -9.114  19.467  67.099  1.00  0.00    -0.375 C  
HETATM    3  C   UNL     1      -8.219  18.848  68.178  1.00  0.00    -0.343 C  
HETATM    4  C   UNL     1     -10.339  18.594  66.766  1.00  0.00    -0.449 C  
ENDROOT
BRANCH   4   5
HETATM    5  C   UNL     1      -9.932  17.201  66.306  1.00  0.00    -0.316 C  
BRANCH   5   6
HETATM    6  C   UNL     1     -10.737  16.095  66.983  1.00  0.00    -0.254 C  
HETATM    7  C   UNL     1     -10.816  14.834  66.103  1.00  0.00    -0.321 C  
HETATM    8  C   UNL     1      -9.425  14.263  65.786  1.00  0.00    -0.098 C  
HETATM    9  C   UNL     1     -11.714  13.793  66.793  1.00  0.00    -0.420 C  
BRANCH   9  10
HETATM   10  C   UNL     1     -11.829  12.516  65.967  1.00  0.00    -0.478 C  
BRANCH  10  11
HETATM   11  C   UNL     1     -10.515  11.755  65.898  1.00  0.00    -0.296 C  
HETATM   12  C   UNL     1     -10.476  10.789  64.699  1.00  0.00    -0.346 C  
HETATM   13  C   UNL     1      -9.197   9.929  64.726  1.00  0.00    -0.309 C  
HETATM   14  C   UNL     1     -10.586  11.518  63.354  1.00  0.00    -0.460 C  
BRANCH  13  15
HETATM   15  C   UNL     1      -9.029   9.065  65.983  1.00  0.00    -0.227 C  
BRANCH  15  16
HETATM   16  C   UNL     1     -10.119   8.002  66.120  1.00  0.00     0.137 C  
BRANCH  16  17
HETATM   17  C   UNL     1     -10.343   7.607  67.557  1.00  0.00    -0.326 C  
HETATM   18  C   UNL     1     -10.001   8.461  68.543  1.00  0.00    -0.203 C  
HETATM   19  C   UNL     1     -11.000   6.281  67.801  1.00  0.00    -0.427 C  
BRANCH  18  20
HETATM   20  C   UNL     1     -10.230   8.272  70.019  1.00  0.00    -0.202 C  
BRANCH  20  21
HETATM   21  C   UNL     1     -11.273   9.237  70.547  1.00  0.00    -0.315 C  
HETATM   22  C   UNL     1     -12.238   8.915  71.433  1.00  0.00    -0.374 C  
HETATM   23  C   UNL     1     -12.479   7.544  72.007  1.00  0.00    -0.289 C  
HETATM   24  C   UNL     1     -13.175   9.951  71.959  1.00  0.00    -0.456 C  
HETATM   25  O   UNL     1     -14.079   9.655  72.728  1.00  0.00    -0.240 OA 
HETATM   26  C   UNL     1     -12.978  11.349  71.548  1.00  0.00    -0.505 A  
HETATM   27  C   UNL     1     -12.006  11.677  70.615  1.00  0.00    -0.356 A  
HETATM   28  C   UNL     1     -11.161  10.630  70.023  1.00  0.00    -0.309 C  
HETATM   29  C   UNL     1     -11.832  13.011  70.224  1.00  0.00    -0.294 A  
HETATM   30  C   UNL     1     -12.630  14.014  70.778  1.00  0.00    -0.431 A  
HETATM   31  O   UNL     1     -10.379  10.923  69.126  1.00  0.00    -0.211 OA 
HETATM   32  C   UNL     1     -13.604  13.685  71.720  1.00  0.00    -0.445 A  
HETATM   33  C   UNL     1     -13.780  12.355  72.105  1.00  0.00    -0.271 A  
ENDBRANCH  20  21
ENDBRANCH  18  20
ENDBRANCH  16  17
ENDBRANCH  15  16
ENDBRANCH  13  15
ENDBRANCH  10  11
ENDBRANCH   9  10
ENDBRANCH   5   6
ENDBRANCH   4   5
TORSDOF 9
ENDMDL
MODEL      137
REMARK 921   NORMALIZED FREE ENERGY PREDICTED BY IDOCK:   -5.24 KCAL/MOL
REMARK 922        TOTAL FREE ENERGY PREDICTED BY IDOCK:  -11.20 KCAL/MOL
REMARK 923 INTER-LIGAND FREE ENERGY PREDICTED BY IDOCK:   -7.63 KCAL/MOL
REMARK 924 INTRA-LIGAND FREE ENERGY PREDICTED BY IDOCK:   -3.57 KCAL/MOL
REMARK 927      BINDING AFFINITY PREDICTED BY RF-SCORE:    0.00 PKD
ROOT
HETATM    1  C   UNL     1      -7.070   5.483  71.113  1.00  0.00    -0.067 C  
HETATM    2  C   UNL     1      -7.319   6.981  71.271  1.00  0.00    -0.080 C  
HETATM    3  C   UNL     1      -6.554   7.508  72.490  1.00  0.00    -0.059 C  
HETATM    4  C   UNL     1      -6.941   7.711  69.968  1.00  0.00    -0.051 C  
ENDROOT
BRANCH   4   5
HETATM    5  C   UNL     1      -7.180   9.211  70.070  1.00  0.00    -0.066 C  
BRANCH   5   6
HETATM    6  C   UNL     1      -7.164   9.907  68.712  1.00  0.00    -0.076 C  
HETATM    7  C   UNL     1      -7.440  11.417  68.849  1.00  0.00    -0.113 C  
HETATM    8  C   UNL     1      -6.400  12.116  69.738  1.00  0.00    -0.102 C  
HETATM    9  C   UNL     1      -7.504  12.046  67.446  1.00  0.00    -0.152 C  
BRANCH   9  10
HETATM   10  C   UNL     1      -7.774  13.545  67.516  1.00  0.00    -0.182 C  
BRANCH  10  11
HETATM   11  C   UNL     1      -9.041  13.937  66.773  1.00  0.00    -0.238 C  
HETATM   12  C   UNL     1      -9.762  15.115  67.455  1.00  0.00    -0.209 C  
HETATM   13  C   UNL     1     -11.111  15.406  66.768  1.00  0.00    -0.244 C  
HETATM   14  C   UNL     1      -8.907  16.389  67.485  1.00  0.00    -0.187 C  
BRANCH  13  15
HETATM   15  C   UNL     1     -12.101  14.234  66.771  1.00  0.00    -0.446 C  
BRANCH  15  16
HETATM   16  C   UNL     1     -12.262  13.593  65.392  1.00  0.00    -0.474 C  
BRANCH  16  17
HETATM   17  C   UNL     1     -11.403  12.363  65.240  1.00  0.00    -0.374 C  
HETATM   18  C   UNL     1     -11.245  11.529  66.286  1.00  0.00    -0.286 C  
HETATM   19  C   UNL     1     -10.812  12.114  63.884  1.00  0.00    -0.461 C  
BRANCH  18  20
HETATM   20  C   UNL     1     -10.500  10.219  66.291  1.00  0.00    -0.214 C  
BRANCH  20  21
HETATM   21  C   UNL     1     -10.544   9.561  67.655  1.00  0.00    -0.329 C  
HETATM   22  C   UNL     1     -10.823  10.203  68.810  1.00  0.00    -0.259 C  
HETATM   23  C   UNL     1     -11.085  11.680  68.949  1.00  0.00    -0.287 C  
HETATM   24  C   UNL     1     -10.923   9.458  70.099  1.00  0.00    -0.246 C  
HETATM   25  O   UNL     1     -11.132  10.044  71.153  1.00  0.00    -0.333 OA 
HETATM   26  C   UNL     1     -10.786   7.994  70.076  1.00  0.00    -0.235 A  
HETATM   27  C   UNL     1     -10.470   7.336  68.897  1.00  0.00    -0.216 A  
HETATM   28  C   UNL     1     -10.266   8.094  67.655  1.00  0.00    -0.234 C  
HETATM   29  C   UNL     1     -10.333   5.942  68.888  1.00  0.00    -0.290 A  
HETATM   30  C   UNL     1     -10.521   5.211  70.063  1.00  0.00    -0.305 A  
HETATM   31  O   UNL     1      -9.887   7.509  66.647  1.00  0.00    -0.214 OA 
HETATM   32  C   UNL     1     -10.844   5.872  71.248  1.00  0.00    -0.333 A  
HETATM   33  C   UNL     1     -10.976   7.262  71.257  1.00  0.00    -0.264 A  
ENDBRANCH  20  21
ENDBRANCH  18  20
ENDBRANCH  16  17
ENDBRANCH  15  16
ENDBRANCH  13  15
ENDBRANCH  10  11
ENDBRANCH   9  10
ENDBRANCH   5   6
ENDBRANCH   4   5
TORSDOF 9
ENDMDL
MODEL      138
REMARK 921   NORMALIZED FREE ENERGY PREDICTED BY IDOCK:   -5.24 KCAL/MOL
REMARK 922        TOTAL FREE ENERGY PREDICTED BY IDOCK:  -11.20 KCAL/MOL
REMARK 923 INTER-LIGAND FREE ENERGY PREDICTED BY IDOCK:   -8.54 KCAL/MOL
REMARK 924 INTRA-LIGAND FREE ENERGY PREDICTED BY IDOCK:   -2.66 KCAL/MOL
REMARK 927      BINDING AFFINITY PREDICTED BY RF-SCORE:    0.00 PKD
ROOT
HETATM    1  C   UNL     1      -8.399   5.635  66.055  1.00  0.00    -0.124 C  
HETATM    2  C   UNL     1      -8.566   7.147  66.185  1.00  0.00    -0.151 C  
HETATM    3  C   UNL     1      -7.677   7.671  67.318  1.00  0.00    -0.113 C  
HETATM    4  C   UNL     1      -8.268   7.821  64.832  1.00  0.00    -0.111 C  
ENDROOT
BRANCH   4   5
HETATM    5  C   UNL     1      -8.430   9.333  64.905  1.00  0.00    -0.182 C  
BRANCH   5   6
HETATM    6  C   UNL     1      -9.871   9.764  65.162  1.00  0.00    -0.294 C  
HETATM    7  C   UNL     1     -10.092  11.244  64.795  1.00  0.00    -0.338 C  
HETATM    8  C   UNL     1      -9.784  11.524  63.316  1.00  0.00    -0.405 C  
HETATM    9  C   UNL     1     -11.531  11.644  65.162  1.00  0.00    -0.180 C  
BRANCH   9  10
HETATM   10  C   UNL     1     -11.812  13.103  64.818  1.00  0.00    -0.413 C  
BRANCH  10  11
HETATM   11  C   UNL     1     -11.103  14.062  65.761  1.00  0.00    -0.305 C  
HETATM   12  C   UNL     1     -10.559  15.297  65.017  1.00  0.00    -0.444 C  
HETATM   13  C   UNL     1      -9.727  16.186  65.961  1.00  0.00    -0.376 C  
HETATM   14  C   UNL     1     -11.673  16.127  64.366  1.00  0.00    -0.059 C  
BRANCH  13  15
HETATM   15  C   UNL     1      -8.513  15.494  66.593  1.00  0.00    -0.314 C  
BRANCH  15  16
HETATM   16  C   UNL     1      -8.841  14.827  67.930  1.00  0.00    -0.167 C  
BRANCH  16  17
HETATM   17  C   UNL     1      -8.432  13.376  67.951  1.00  0.00    -0.173 C  
HETATM   18  C   UNL     1      -9.325  12.438  68.321  1.00  0.00    -0.199 C  
HETATM   19  C   UNL     1      -7.038  13.060  67.494  1.00  0.00    -0.158 C  
BRANCH  18  20
HETATM   20  C   UNL     1      -9.120  10.946  68.318  1.00  0.00    -0.158 C  
BRANCH  20  21
HETATM   21  C   UNL     1      -9.796  10.291  69.506  1.00  0.00    -0.244 C  
HETATM   22  C   UNL     1     -11.113  10.381  69.786  1.00  0.00    -0.352 C  
HETATM   23  C   UNL     1     -12.122  11.181  69.006  1.00  0.00    -0.315 C  
HETATM   24  C   UNL     1     -11.707   9.636  70.936  1.00  0.00    -0.334 C  
HETATM   25  O   UNL     1     -12.892   9.750  71.218  1.00  0.00    -0.337 OA 
HETATM   26  C   UNL     1     -10.840   8.739  71.714  1.00  0.00    -0.416 A  
HETATM   27  C   UNL     1      -9.481   8.669  71.447  1.00  0.00    -0.306 A  
HETATM   28  C   UNL     1      -8.889   9.491  70.382  1.00  0.00    -0.234 C  
HETATM   29  C   UNL     1      -8.662   7.819  72.201  1.00  0.00    -0.169 A  
HETATM   30  C   UNL     1      -9.212   7.034  73.217  1.00  0.00    -0.173 A  
HETATM   31  O   UNL     1      -7.673   9.494  70.228  1.00  0.00    -0.126 OA 
HETATM   32  C   UNL     1     -10.579   7.101  73.483  1.00  0.00    -0.416 A  
HETATM   33  C   UNL     1     -11.394   7.952  72.734  1.00  0.00    -0.453 A  
ENDBRANCH  20  21
ENDBRANCH  18  20
ENDBRANCH  16  17
ENDBRANCH  15  16
ENDBRANCH  13  15
ENDBRANCH  10  11
ENDBRANCH   9  10
ENDBRANCH   5   6
ENDBRANCH   4   5
TORSDOF 9
ENDMDL
MODEL      139
REMARK 921   NORMALIZED FREE ENERGY PREDICTED BY IDOCK:   -5.24 KCAL/MOL
REMARK 922        TOTAL FREE ENERGY PREDICTED BY IDOCK:  -11.19 KCAL/MOL
REMARK 923 INTER-LIGAND FREE ENERGY PREDICTED BY IDOCK:   -7.28 KCAL/MOL
REMARK 924 INTRA-LIGAND FREE ENERGY PREDICTED BY IDOCK:   -3.92 KCAL/MOL
REMARK 927      BINDING AFFINITY PREDICTED BY RF-SCORE:    0.00 PKD
ROOT
HETATM    1  C   UNL     1      -7.684  13.016  67.760  1.00  0.00    -0.151 C  
HETATM    2  C   UNL     1      -6.880  11.718  67.763  1.00  0.00    -0.090 C  
HETATM    3  C   UNL     1      -5.578  11.912  66.979  1.00  0.00    -0.126 C  
HETATM    4  C   UNL     1      -6.641  11.260  69.215  1.00  0.00    -0.100 C  
ENDROOT
BRANCH   4   5
HETATM    5  C   UNL     1      -5.849   9.961  69.275  1.00  0.00    -0.034 C  
BRANCH   5   6
HETATM    6  C   UNL     1      -6.737   8.722  69.226  1.00  0.00    -0.050 C  
HETATM    7  C   UNL     1      -6.655   7.915  70.536  1.00  0.00    -0.037 C  
HETATM    8  C   UNL     1      -7.089   8.746  71.753  1.00  0.00    -0.077 C  
HETATM    9  C   UNL     1      -7.495   6.635  70.393  1.00  0.00    -0.090 C  
BRANCH   9  10
HETATM   10  C   UNL     1      -7.454   5.793  71.664  1.00  0.00    -0.094 C  
BRANCH  10  11
HETATM   11  C   UNL     1      -8.828   5.638  72.296  1.00  0.00    -0.132 C  
HETATM   12  C   UNL     1      -9.803   4.889  71.368  1.00  0.00    -0.252 C  
HETATM   13  C   UNL     1     -11.223   4.864  71.966  1.00  0.00     0.159 C  
HETATM   14  C   UNL     1      -9.340   3.458  71.063  1.00  0.00    -0.212 C  
BRANCH  13  15
HETATM   15  C   UNL     1     -11.840   6.246  72.215  1.00  0.00    -0.326 C  
BRANCH  15  16
HETATM   16  C   UNL     1     -12.059   7.037  70.925  1.00  0.00    -0.403 C  
BRANCH  16  17
HETATM   17  C   UNL     1     -11.143   8.231  70.836  1.00  0.00    -0.289 C  
HETATM   18  C   UNL     1     -10.690   8.633  69.632  1.00  0.00    -0.204 C  
HETATM   19  C   UNL     1     -10.833   8.944  72.118  1.00  0.00    -0.339 C  
BRANCH  18  20
HETATM   20  C   UNL     1      -9.844   9.847  69.345  1.00  0.00    -0.231 C  
BRANCH  20  21
HETATM   21  C   UNL     1     -10.432  10.681  68.225  1.00  0.00    -0.214 C  
HETATM   22  C   UNL     1     -11.192  11.783  68.404  1.00  0.00    -0.307 C  
HETATM   23  C   UNL     1     -11.625  12.340  69.734  1.00  0.00    -0.314 C  
HETATM   24  C   UNL     1     -11.663  12.589  67.240  1.00  0.00    -0.362 C  
HETATM   25  O   UNL     1     -12.387  13.563  67.397  1.00  0.00    -0.278 OA 
HETATM   26  C   UNL     1     -11.220  12.202  65.893  1.00  0.00    -0.384 A  
HETATM   27  C   UNL     1     -10.466  11.053  65.704  1.00  0.00    -0.293 A  
HETATM   28  C   UNL     1     -10.100  10.208  66.849  1.00  0.00    -0.223 C  
HETATM   29  C   UNL     1     -10.057  10.688  64.415  1.00  0.00    -0.418 A  
HETATM   30  C   UNL     1     -10.400  11.483  63.319  1.00  0.00    -0.435 A  
HETATM   31  O   UNL     1      -9.523   9.145  66.652  1.00  0.00    -0.159 OA 
HETATM   32  C   UNL     1     -11.155  12.640  63.509  1.00  0.00    -0.449 A  
HETATM   33  C   UNL     1     -11.566  13.000  64.793  1.00  0.00    -0.368 A  
ENDBRANCH  20  21
ENDBRANCH  18  20
ENDBRANCH  16  17
ENDBRANCH  15  16
ENDBRANCH  13  15
ENDBRANCH  10  11
ENDBRANCH   9  10
ENDBRANCH   5   6
ENDBRANCH   4   5
TORSDOF 9
ENDMDL
MODEL      140
REMARK 921   NORMALIZED FREE ENERGY PREDICTED BY IDOCK:   -5.22 KCAL/MOL
REMARK 922        TOTAL FREE ENERGY PREDICTED BY IDOCK:  -11.17 KCAL/MOL
REMARK 923 INTER-LIGAND FREE ENERGY PREDICTED BY IDOCK:   -7.62 KCAL/MOL
REMARK 924 INTRA-LIGAND FREE ENERGY PREDICTED BY IDOCK:   -3.55 KCAL/MOL
REMARK 927      BINDING AFFINITY PREDICTED BY RF-SCORE:    0.00 PKD
ROOT
HETATM    1  C   UNL     1     -10.708  11.869  64.453  1.00  0.00    -0.373 C  
HETATM    2  C   UNL     1     -10.143  10.465  64.249  1.00  0.00    -0.306 C  
HETATM    3  C   UNL     1      -8.914  10.528  63.336  1.00  0.00    -0.232 C  
HETATM    4  C   UNL     1      -9.837   9.825  65.617  1.00  0.00    -0.371 C  
ENDROOT
BRANCH   4   5
HETATM    5  C   UNL     1      -9.278   8.416  65.470  1.00  0.00    -0.057 C  
BRANCH   5   6
HETATM    6  C   UNL     1      -9.022   7.737  66.812  1.00  0.00    -0.163 C  
HETATM    7  C   UNL     1     -10.338   7.307  67.488  1.00  0.00    -0.310 C  
HETATM    8  C   UNL     1     -11.139   6.325  66.621  1.00  0.00    -0.115 C  
HETATM    9  C   UNL     1     -10.023   6.717  68.873  1.00  0.00    -0.160 C  
BRANCH   9  10
HETATM   10  C   UNL     1     -11.291   6.270  69.593  1.00  0.00    -0.492 C  
BRANCH  10  11
HETATM   11  C   UNL     1     -11.098   6.186  71.099  1.00  0.00    -0.360 C  
HETATM   12  C   UNL     1     -11.248   7.563  71.772  1.00  0.00    -0.281 C  
HETATM   13  C   UNL     1     -10.914   7.480  73.275  1.00  0.00    -0.362 C  
HETATM   14  C   UNL     1     -12.649   8.159  71.583  1.00  0.00    -0.347 C  
BRANCH  13  15
HETATM   15  C   UNL     1      -9.492   6.998  73.592  1.00  0.00    -0.239 C  
BRANCH  15  16
HETATM   16  C   UNL     1      -8.430   8.062  73.311  1.00  0.00    -0.284 C  
BRANCH  16  17
HETATM   17  C   UNL     1      -7.998   8.057  71.866  1.00  0.00    -0.140 C  
HETATM   18  C   UNL     1      -8.288   9.114  71.082  1.00  0.00    -0.157 C  
HETATM   19  C   UNL     1      -7.205   6.872  71.400  1.00  0.00    -0.080 C  
BRANCH  18  20
HETATM   20  C   UNL     1      -7.864   9.320  69.651  1.00  0.00    -0.090 C  
BRANCH  20  21
HETATM   21  C   UNL     1      -8.255  10.695  69.148  1.00  0.00    -0.142 C  
HETATM   22  C   UNL     1      -7.381  11.668  68.815  1.00  0.00    -0.118 C  
HETATM   23  C   UNL     1      -5.883  11.578  68.933  1.00  0.00    -0.047 C  
HETATM   24  C   UNL     1      -7.856  12.967  68.252  1.00  0.00    -0.142 C  
HETATM   25  O   UNL     1      -7.070  13.867  67.990  1.00  0.00    -0.110 OA 
HETATM   26  C   UNL     1      -9.293  13.137  67.996  1.00  0.00    -0.219 A  
HETATM   27  C   UNL     1     -10.195  12.150  68.366  1.00  0.00    -0.212 A  
HETATM   28  C   UNL     1      -9.725  10.921  69.020  1.00  0.00    -0.166 C  
HETATM   29  C   UNL     1     -11.564  12.327  68.126  1.00  0.00    -0.396 A  
HETATM   30  C   UNL     1     -12.023  13.492  67.507  1.00  0.00    -0.385 A  
HETATM   31  O   UNL     1     -10.543  10.107  69.432  1.00  0.00    -0.206 OA 
HETATM   32  C   UNL     1     -11.116  14.482  67.131  1.00  0.00    -0.325 A  
HETATM   33  C   UNL     1      -9.753  14.308  67.375  1.00  0.00    -0.235 A  
ENDBRANCH  20  21
ENDBRANCH  18  20
ENDBRANCH  16  17
ENDBRANCH  15  16
ENDBRANCH  13  15
ENDBRANCH  10  11
ENDBRANCH   9  10
ENDBRANCH   5   6
ENDBRANCH   4   5
TORSDOF 9
ENDMDL
MODEL      141
REMARK 921   NORMALIZED FREE ENERGY PREDICTED BY IDOCK:   -5.19 KCAL/MOL
REMARK 922        TOTAL FREE ENERGY PREDICTED BY IDOCK:  -11.12 KCAL/MOL
REMARK 923 INTER-LIGAND FREE ENERGY PREDICTED BY IDOCK:   -8.76 KCAL/MOL
REMARK 924 INTRA-LIGAND FREE ENERGY PREDICTED BY IDOCK:   -2.36 KCAL/MOL
REMARK 927      BINDING AFFINITY PREDICTED BY RF-SCORE:    0.00 PKD
ROOT
HETATM    1  C   UNL     1      -9.398   3.613  66.072  1.00  0.00    -0.171 C  
HETATM    2  C   UNL     1      -9.513   3.475  67.588  1.00  0.00    -0.233 C  
HETATM    3  C   UNL     1      -8.229   2.857  68.152  1.00  0.00    -0.085 C  
HETATM    4  C   UNL     1      -9.837   4.847  68.210  1.00  0.00    -0.198 C  
ENDROOT
BRANCH   4   5
HETATM    5  C   UNL     1      -9.971   4.764  69.725  1.00  0.00    -0.308 C  
BRANCH   5   6
HETATM    6  C   UNL     1      -9.015   5.701  70.457  1.00  0.00    -0.150 C  
HETATM    7  C   UNL     1      -9.251   7.171  70.061  1.00  0.00    -0.144 C  
HETATM    8  C   UNL     1     -10.682   7.633  70.379  1.00  0.00    -0.241 C  
HETATM    9  C   UNL     1      -8.201   8.055  70.756  1.00  0.00    -0.113 C  
BRANCH   9  10
HETATM   10  C   UNL     1      -8.385   9.527  70.403  1.00  0.00    -0.226 C  
BRANCH  10  11
HETATM   11  C   UNL     1      -7.486   9.960  69.256  1.00  0.00    -0.096 C  
HETATM   12  C   UNL     1      -6.520  11.083  69.679  1.00  0.00    -0.123 C  
HETATM   13  C   UNL     1      -5.716  11.602  68.471  1.00  0.00    -0.045 C  
HETATM   14  C   UNL     1      -5.561  10.642  70.793  1.00  0.00    -0.107 C  
BRANCH  13  15
HETATM   15  C   UNL     1      -6.567  12.172  67.329  1.00  0.00    -0.146 C  
BRANCH  15  16
HETATM   16  C   UNL     1      -6.838  13.669  67.485  1.00  0.00    -0.152 C  
BRANCH  16  17
HETATM   17  C   UNL     1      -8.282  14.011  67.215  1.00  0.00    -0.187 C  
HETATM   18  C   UNL     1      -9.195  13.023  67.134  1.00  0.00    -0.226 C  
HETATM   19  C   UNL     1      -8.623  15.467  67.105  1.00  0.00    -0.240 C  
BRANCH  18  20
HETATM   20  C   UNL     1     -10.683  13.183  66.958  1.00  0.00    -0.270 C  
BRANCH  20  21
HETATM   21  C   UNL     1     -11.417  13.026  68.274  1.00  0.00    -0.347 C  
HETATM   22  C   UNL     1     -11.610  11.851  68.911  1.00  0.00    -0.370 C  
HETATM   23  C   UNL     1     -11.180  10.499  68.404  1.00  0.00    -0.339 C  
HETATM   24  C   UNL     1     -12.277  11.800  70.245  1.00  0.00    -0.299 C  
HETATM   25  O   UNL     1     -12.493  10.733  70.804  1.00  0.00    -0.324 OA 
HETATM   26  C   UNL     1     -12.654  13.067  70.890  1.00  0.00    -0.364 A  
HETATM   27  C   UNL     1     -12.484  14.272  70.225  1.00  0.00    -0.422 A  
HETATM   28  C   UNL     1     -11.926  14.298  68.866  1.00  0.00    -0.320 C  
HETATM   29  C   UNL     1     -12.855  15.472  70.845  1.00  0.00    -0.535 A  
HETATM   30  C   UNL     1     -13.388  15.460  72.135  1.00  0.00    -0.541 A  
HETATM   31  O   UNL     1     -11.879  15.359  68.254  1.00  0.00    -0.339 OA 
HETATM   32  C   UNL     1     -13.555  14.249  72.806  1.00  0.00    -0.538 A  
HETATM   33  C   UNL     1     -13.190  13.052  72.186  1.00  0.00    -0.558 A  
ENDBRANCH  20  21
ENDBRANCH  18  20
ENDBRANCH  16  17
ENDBRANCH  15  16
ENDBRANCH  13  15
ENDBRANCH  10  11
ENDBRANCH   9  10
ENDBRANCH   5   6
ENDBRANCH   4   5
TORSDOF 9
ENDMDL
MODEL      142
REMARK 921   NORMALIZED FREE ENERGY PREDICTED BY IDOCK:   -5.15 KCAL/MOL
REMARK 922        TOTAL FREE ENERGY PREDICTED BY IDOCK:  -11.07 KCAL/MOL
REMARK 923 INTER-LIGAND FREE ENERGY PREDICTED BY IDOCK:   -9.24 KCAL/MOL
REMARK 924 INTRA-LIGAND FREE ENERGY PREDICTED BY IDOCK:   -1.83 KCAL/MOL
REMARK 927      BINDING AFFINITY PREDICTED BY RF-SCORE:    0.00 PKD
ROOT
HETATM    1  C   UNL     1      -9.429  20.281  67.086  1.00  0.00    -0.557 C  
HETATM    2  C   UNL     1      -9.614  18.772  67.224  1.00  0.00    -0.333 C  
HETATM    3  C   UNL     1      -8.331  18.051  66.795  1.00  0.00    -0.271 C  
HETATM    4  C   UNL     1     -10.037  18.431  68.666  1.00  0.00    -0.407 C  
ENDROOT
BRANCH   4   5
HETATM    5  C   UNL     1     -10.244  16.935  68.856  1.00  0.00    -0.314 C  
BRANCH   5   6
HETATM    6  C   UNL     1     -11.216  16.338  67.844  1.00  0.00    -0.213 C  
HETATM    7  C   UNL     1     -11.113  14.801  67.800  1.00  0.00    -0.306 C  
HETATM    8  C   UNL     1     -11.418  14.163  69.163  1.00  0.00    -0.338 C  
HETATM    9  C   UNL     1     -12.045  14.265  66.699  1.00  0.00    -0.448 C  
BRANCH   9  10
HETATM   10  C   UNL     1     -11.988  12.744  66.609  1.00  0.00    -0.411 C  
BRANCH  10  11
HETATM   11  C   UNL     1     -10.870  12.264  65.698  1.00  0.00    -0.321 C  
HETATM   12  C   UNL     1     -11.408  11.786  64.336  1.00  0.00    -0.373 C  
HETATM   13  C   UNL     1     -10.280  11.176  63.481  1.00  0.00    -0.446 C  
HETATM   14  C   UNL     1     -12.106  12.906  63.554  1.00  0.00    -0.633 C  
BRANCH  13  15
HETATM   15  C   UNL     1      -9.574   9.970  64.114  1.00  0.00    -0.274 C  
BRANCH  15  16
HETATM   16  C   UNL     1      -8.065  10.175  64.254  1.00  0.00    -0.159 C  
BRANCH  16  17
HETATM   17  C   UNL     1      -7.465   9.253  65.286  1.00  0.00    -0.098 C  
HETATM   18  C   UNL     1      -8.267   8.430  65.989  1.00  0.00    -0.112 C  
HETATM   19  C   UNL     1      -5.971   9.275  65.426  1.00  0.00    -0.062 C  
BRANCH  18  20
HETATM   20  C   UNL     1      -7.838   7.390  66.990  1.00  0.00    -0.116 C  
BRANCH  20  21
HETATM   21  C   UNL     1      -8.392   7.685  68.370  1.00  0.00    -0.125 C  
HETATM   22  C   UNL     1      -7.796   8.481  69.282  1.00  0.00    -0.099 C  
HETATM   23  C   UNL     1      -6.466   9.167  69.111  1.00  0.00    -0.042 C  
HETATM   24  C   UNL     1      -8.454   8.779  70.588  1.00  0.00    -0.171 C  
HETATM   25  O   UNL     1      -7.897   9.465  71.435  1.00  0.00    -0.325 OA 
HETATM   26  C   UNL     1      -9.803   8.248  70.832  1.00  0.00    -0.215 A  
HETATM   27  C   UNL     1     -10.404   7.405  69.909  1.00  0.00    -0.222 A  
HETATM   28  C   UNL     1      -9.698   7.031  68.675  1.00  0.00    -0.139 C  
HETATM   29  C   UNL     1     -11.685   6.896  70.155  1.00  0.00    -0.306 A  
HETATM   30  C   UNL     1     -12.364   7.242  71.325  1.00  0.00    -0.401 A  
HETATM   31  O   UNL     1     -10.200   6.206  67.920  1.00  0.00    -0.143 OA 
HETATM   32  C   UNL     1     -11.763   8.093  72.251  1.00  0.00    -0.439 A  
HETATM   33  C   UNL     1     -10.483   8.596  72.008  1.00  0.00    -0.422 A  
ENDBRANCH  20  21
ENDBRANCH  18  20
ENDBRANCH  16  17
ENDBRANCH  15  16
ENDBRANCH  13  15
ENDBRANCH  10  11
ENDBRANCH   9  10
ENDBRANCH   5   6
ENDBRANCH   4   5
TORSDOF 9
ENDMDL
MODEL      143
REMARK 921   NORMALIZED FREE ENERGY PREDICTED BY IDOCK:   -5.15 KCAL/MOL
REMARK 922        TOTAL FREE ENERGY PREDICTED BY IDOCK:  -11.06 KCAL/MOL
REMARK 923 INTER-LIGAND FREE ENERGY PREDICTED BY IDOCK:   -7.76 KCAL/MOL
REMARK 924 INTRA-LIGAND FREE ENERGY PREDICTED BY IDOCK:   -3.30 KCAL/MOL
REMARK 927      BINDING AFFINITY PREDICTED BY RF-SCORE:    0.00 PKD
ROOT
HETATM    1  C   UNL     1      -8.623   6.479  73.118  1.00  0.00    -0.126 C  
HETATM    2  C   UNL     1      -7.700   6.914  71.981  1.00  0.00    -0.094 C  
HETATM    3  C   UNL     1      -7.936   6.027  70.754  1.00  0.00    -0.114 C  
HETATM    4  C   UNL     1      -7.912   8.411  71.685  1.00  0.00    -0.169 C  
ENDROOT
BRANCH   4   5
HETATM    5  C   UNL     1      -7.007   8.899  70.562  1.00  0.00    -0.057 C  
BRANCH   5   6
HETATM    6  C   UNL     1      -7.720   9.833  69.589  1.00  0.00    -0.136 C  
HETATM    7  C   UNL     1      -7.020  11.203  69.505  1.00  0.00    -0.111 C  
HETATM    8  C   UNL     1      -5.561  11.077  69.038  1.00  0.00    -0.040 C  
HETATM    9  C   UNL     1      -7.834  12.129  68.585  1.00  0.00    -0.078 C  
BRANCH   9  10
HETATM   10  C   UNL     1      -7.186  13.504  68.460  1.00  0.00    -0.110 C  
BRANCH  10  11
HETATM   11  C   UNL     1      -7.825  14.343  67.365  1.00  0.00    -0.211 C  
HETATM   12  C   UNL     1      -8.082  15.789  67.829  1.00  0.00    -0.156 C  
HETATM   13  C   UNL     1      -8.853  16.583  66.756  1.00  0.00    -0.255 C  
HETATM   14  C   UNL     1      -6.787  16.527  68.194  1.00  0.00    -0.142 C  
BRANCH  13  15
HETATM   15  C   UNL     1     -10.222  15.999  66.384  1.00  0.00    -0.315 C  
BRANCH  15  16
HETATM   16  C   UNL     1     -10.233  15.356  64.997  1.00  0.00    -0.295 C  
BRANCH  16  17
HETATM   17  C   UNL     1     -10.959  14.034  64.996  1.00  0.00    -0.379 C  
HETATM   18  C   UNL     1     -10.611  13.083  65.885  1.00  0.00    -0.288 C  
HETATM   19  C   UNL     1     -12.085  13.882  64.016  1.00  0.00    -0.437 C  
BRANCH  18  20
HETATM   20  C   UNL     1     -11.279  11.748  66.085  1.00  0.00    -0.363 C  
BRANCH  20  21
HETATM   21  C   UNL     1     -11.370  11.387  67.554  1.00  0.00    -0.362 C  
HETATM   22  C   UNL     1     -11.772  12.230  68.529  1.00  0.00    -0.381 C  
HETATM   23  C   UNL     1     -12.147  13.676  68.336  1.00  0.00    -0.312 C  
HETATM   24  C   UNL     1     -11.907  11.765  69.941  1.00  0.00    -0.348 C  
HETATM   25  O   UNL     1     -12.228  12.537  70.833  1.00  0.00    -0.347 OA 
HETATM   26  C   UNL     1     -11.664  10.345  70.238  1.00  0.00    -0.406 A  
HETATM   27  C   UNL     1     -11.222   9.485  69.244  1.00  0.00    -0.032 A  
HETATM   28  C   UNL     1     -10.988   9.981  67.881  1.00  0.00    -0.252 C  
HETATM   29  C   UNL     1     -10.986   8.136  69.540  1.00  0.00    -0.056 A  
HETATM   30  C   UNL     1     -11.202   7.653  70.832  1.00  0.00    -0.282 A  
HETATM   31  O   UNL     1     -10.500   9.233  67.042  1.00  0.00    -0.253 OA 
HETATM   32  C   UNL     1     -11.651   8.517  71.830  1.00  0.00    -0.410 A  
HETATM   33  C   UNL     1     -11.882   9.862  71.536  1.00  0.00    -0.445 A  
ENDBRANCH  20  21
ENDBRANCH  18  20
ENDBRANCH  16  17
ENDBRANCH  15  16
ENDBRANCH  13  15
ENDBRANCH  10  11
ENDBRANCH   9  10
ENDBRANCH   5   6
ENDBRANCH   4   5
TORSDOF 9
ENDMDL
MODEL      144
REMARK 921   NORMALIZED FREE ENERGY PREDICTED BY IDOCK:   -5.15 KCAL/MOL
REMARK 922        TOTAL FREE ENERGY PREDICTED BY IDOCK:  -11.06 KCAL/MOL
REMARK 923 INTER-LIGAND FREE ENERGY PREDICTED BY IDOCK:   -8.37 KCAL/MOL
REMARK 924 INTRA-LIGAND FREE ENERGY PREDICTED BY IDOCK:   -2.69 KCAL/MOL
REMARK 927      BINDING AFFINITY PREDICTED BY RF-SCORE:    0.00 PKD
ROOT
HETATM    1  C   UNL     1     -10.540   7.752  72.959  1.00  0.00    -0.441 C  
HETATM    2  C   UNL     1     -11.489   8.067  71.805  1.00  0.00    -0.324 C  
HETATM    3  C   UNL     1     -12.494   6.923  71.633  1.00  0.00    -0.418 C  
HETATM    4  C   UNL     1     -12.169   9.427  72.048  1.00  0.00    -0.396 C  
ENDROOT
BRANCH   4   5
HETATM    5  C   UNL     1     -13.122   9.794  70.918  1.00  0.00    -0.285 C  
BRANCH   5   6
HETATM    6  C   UNL     1     -13.119  11.286  70.601  1.00  0.00     0.049 C  
HETATM    7  C   UNL     1     -11.833  11.704  69.862  1.00  0.00    -0.434 C  
HETATM    8  C   UNL     1     -11.659  10.951  68.535  1.00  0.00    -0.360 C  
HETATM    9  C   UNL     1     -11.846  13.229  69.654  1.00  0.00    -0.391 C  
BRANCH   9  10
HETATM   10  C   UNL     1     -10.594  13.704  68.923  1.00  0.00    -0.211 C  
BRANCH  10  11
HETATM   11  C   UNL     1     -10.643  13.390  67.436  1.00  0.00    -0.254 C  
HETATM   12  C   UNL     1     -11.615  14.321  66.687  1.00  0.00    -0.397 C  
HETATM   13  C   UNL     1     -11.754  13.899  65.211  1.00  0.00    -0.347 C  
HETATM   14  C   UNL     1     -11.197  15.795  66.770  1.00  0.00    -0.021 C  
BRANCH  13  15
HETATM   15  C   UNL     1     -12.272  12.471  64.996  1.00  0.00    -0.519 C  
BRANCH  15  16
HETATM   16  C   UNL     1     -11.708  11.821  63.732  1.00  0.00    -0.499 C  
BRANCH  16  17
HETATM   17  C   UNL     1     -10.306  11.308  63.940  1.00  0.00    -0.439 C  
HETATM   18  C   UNL     1      -9.795  11.254  65.186  1.00  0.00    -0.298 C  
HETATM   19  C   UNL     1      -9.573  10.827  62.722  1.00  0.00    -0.337 C  
BRANCH  18  20
HETATM   20  C   UNL     1      -8.456  10.694  65.588  1.00  0.00    -0.180 C  
BRANCH  20  21
HETATM   21  C   UNL     1      -8.598   9.637  66.665  1.00  0.00    -0.137 C  
HETATM   22  C   UNL     1      -8.427   9.858  67.986  1.00  0.00    -0.117 C  
HETATM   23  C   UNL     1      -8.019  11.167  68.609  1.00  0.00    -0.145 C  
HETATM   24  C   UNL     1      -8.665   8.773  68.984  1.00  0.00    -0.133 C  
HETATM   25  O   UNL     1      -8.469   8.958  70.177  1.00  0.00    -0.123 OA 
HETATM   26  C   UNL     1      -9.164   7.476  68.504  1.00  0.00    -0.143 A  
HETATM   27  C   UNL     1      -9.311   7.238  67.146  1.00  0.00    -0.170 A  
HETATM   28  C   UNL     1      -8.968   8.279  66.168  1.00  0.00    -0.181 C  
HETATM   29  C   UNL     1      -9.778   5.995  66.700  1.00  0.00    -0.189 A  
HETATM   30  C   UNL     1     -10.105   4.997  67.620  1.00  0.00    -0.192 A  
HETATM   31  O   UNL     1      -9.006   8.018  64.971  1.00  0.00     0.075 OA 
HETATM   32  C   UNL     1      -9.962   5.238  68.986  1.00  0.00    -0.260 A  
HETATM   33  C   UNL     1      -9.491   6.474  69.430  1.00  0.00    -0.147 A  
ENDBRANCH  20  21
ENDBRANCH  18  20
ENDBRANCH  16  17
ENDBRANCH  15  16
ENDBRANCH  13  15
ENDBRANCH  10  11
ENDBRANCH   9  10
ENDBRANCH   5   6
ENDBRANCH   4   5
TORSDOF 9
ENDMDL
MODEL      145
REMARK 921   NORMALIZED FREE ENERGY PREDICTED BY IDOCK:   -5.14 KCAL/MOL
REMARK 922        TOTAL FREE ENERGY PREDICTED BY IDOCK:  -11.04 KCAL/MOL
REMARK 923 INTER-LIGAND FREE ENERGY PREDICTED BY IDOCK:   -7.71 KCAL/MOL
REMARK 924 INTRA-LIGAND FREE ENERGY PREDICTED BY IDOCK:   -3.34 KCAL/MOL
REMARK 927      BINDING AFFINITY PREDICTED BY RF-SCORE:    0.00 PKD
ROOT
HETATM    1  C   UNL     1     -11.125  11.784  65.068  1.00  0.00    -0.343 C  
HETATM    2  C   UNL     1     -10.092  10.689  64.814  1.00  0.00    -0.412 C  
HETATM    3  C   UNL     1      -9.805  10.584  63.312  1.00  0.00    -0.309 C  
HETATM    4  C   UNL     1      -8.825  10.968  65.646  1.00  0.00    -0.187 C  
ENDROOT
BRANCH   4   5
HETATM    5  C   UNL     1      -7.763   9.897  65.436  1.00  0.00    -0.130 C  
BRANCH   5   6
HETATM    6  C   UNL     1      -7.796   8.811  66.507  1.00  0.00    -0.103 C  
HETATM    7  C   UNL     1      -8.665   7.615  66.072  1.00  0.00    -0.178 C  
HETATM    8  C   UNL     1      -8.152   6.969  64.777  1.00  0.00    -0.096 C  
HETATM    9  C   UNL     1      -8.736   6.599  67.226  1.00  0.00    -0.118 C  
BRANCH   9  10
HETATM   10  C   UNL     1      -9.585   5.388  66.853  1.00  0.00    -0.150 C  
BRANCH  10  11
HETATM   11  C   UNL     1      -9.749   4.422  68.016  1.00  0.00    -0.182 C  
HETATM   12  C   UNL     1      -9.807   5.158  69.367  1.00  0.00    -0.269 C  
HETATM   13  C   UNL     1      -9.834   4.157  70.539  1.00  0.00    -0.252 C  
HETATM   14  C   UNL     1     -11.006   6.109  69.466  1.00  0.00    -0.463 C  
BRANCH  13  15
HETATM   15  C   UNL     1      -8.624   3.218  70.611  1.00  0.00    -0.116 C  
BRANCH  15  16
HETATM   16  C   UNL     1      -7.335   3.943  71.000  1.00  0.00    -0.037 C  
BRANCH  16  17
HETATM   17  C   UNL     1      -7.593   5.069  71.969  1.00  0.00    -0.096 C  
HETATM   18  C   UNL     1      -7.503   6.345  71.544  1.00  0.00    -0.090 C  
HETATM   19  C   UNL     1      -7.999   4.685  73.361  1.00  0.00    -0.099 C  
BRANCH  18  20
HETATM   20  C   UNL     1      -7.809   7.585  72.343  1.00  0.00    -0.112 C  
BRANCH  20  21
HETATM   21  C   UNL     1      -9.055   8.281  71.831  1.00  0.00    -0.259 C  
HETATM   22  C   UNL     1     -10.280   8.171  72.388  1.00  0.00    -0.368 C  
HETATM   23  C   UNL     1     -10.630   7.307  73.571  1.00  0.00    -0.408 C  
HETATM   24  C   UNL     1     -11.436   8.956  71.864  1.00  0.00    -0.372 C  
HETATM   25  O   UNL     1     -12.556   8.826  72.338  1.00  0.00    -0.385 OA 
HETATM   26  C   UNL     1     -11.197   9.912  70.772  1.00  0.00    -0.427 A  
HETATM   27  C   UNL     1      -9.947  10.004  70.179  1.00  0.00    -0.239 A  
HETATM   28  C   UNL     1      -8.844   9.145  70.633  1.00  0.00    -0.232 C  
HETATM   29  C   UNL     1      -9.733  10.912  69.134  1.00  0.00    -0.141 A  
HETATM   30  C   UNL     1     -10.774  11.731  68.692  1.00  0.00    -0.252 A  
HETATM   31  O   UNL     1      -7.777   9.167  70.031  1.00  0.00    -0.068 OA 
HETATM   32  C   UNL     1     -12.030  11.642  69.292  1.00  0.00    -0.382 A  
HETATM   33  C   UNL     1     -12.244  10.734  70.330  1.00  0.00    -0.431 A  
ENDBRANCH  20  21
ENDBRANCH  18  20
ENDBRANCH  16  17
ENDBRANCH  15  16
ENDBRANCH  13  15
ENDBRANCH  10  11
ENDBRANCH   9  10
ENDBRANCH   5   6
ENDBRANCH   4   5
TORSDOF 9
ENDMDL
MODEL      146
REMARK 921   NORMALIZED FREE ENERGY PREDICTED BY IDOCK:   -5.14 KCAL/MOL
REMARK 922        TOTAL FREE ENERGY PREDICTED BY IDOCK:  -11.04 KCAL/MOL
REMARK 923 INTER-LIGAND FREE ENERGY PREDICTED BY IDOCK:   -9.08 KCAL/MOL
REMARK 924 INTRA-LIGAND FREE ENERGY PREDICTED BY IDOCK:   -1.97 KCAL/MOL
REMARK 927      BINDING AFFINITY PREDICTED BY RF-SCORE:    0.00 PKD
ROOT
HETATM    1  C   UNL     1      -6.590  11.329  66.926  1.00  0.00    -0.130 C  
HETATM    2  C   UNL     1      -7.531  10.535  66.023  1.00  0.00    -0.137 C  
HETATM    3  C   UNL     1      -6.815  10.175  64.716  1.00  0.00    -0.121 C  
HETATM    4  C   UNL     1      -8.053   9.297  66.778  1.00  0.00    -0.112 C  
ENDROOT
BRANCH   4   5
HETATM    5  C   UNL     1      -9.005   8.473  65.922  1.00  0.00    -0.235 C  
BRANCH   5   6
HETATM    6  C   UNL     1      -8.744   6.974  66.021  1.00  0.00    -0.156 C  
HETATM    7  C   UNL     1      -9.405   6.366  67.274  1.00  0.00    -0.125 C  
HETATM    8  C   UNL     1     -10.927   6.570  67.279  1.00  0.00    -0.475 C  
HETATM    9  C   UNL     1      -9.029   4.877  67.369  1.00  0.00    -0.111 C  
BRANCH   9  10
HETATM   10  C   UNL     1      -9.658   4.219  68.593  1.00  0.00    -0.210 C  
BRANCH  10  11
HETATM   11  C   UNL     1      -9.508   5.069  69.844  1.00  0.00    -0.225 C  
HETATM   12  C   UNL     1      -9.033   4.234  71.049  1.00  0.00    -0.167 C  
HETATM   13  C   UNL     1      -9.020   5.083  72.335  1.00  0.00    -0.139 C  
HETATM   14  C   UNL     1      -7.649   3.612  70.821  1.00  0.00    -0.040 C  
BRANCH  13  15
HETATM   15  C   UNL     1     -10.379   5.674  72.730  1.00  0.00    -0.224 C  
BRANCH  15  16
HETATM   16  C   UNL     1     -10.387   7.203  72.711  1.00  0.00    -0.261 C  
BRANCH  16  17
HETATM   17  C   UNL     1     -11.323   7.749  71.663  1.00  0.00    -0.291 C  
HETATM   18  C   UNL     1     -11.050   8.932  71.079  1.00  0.00    -0.340 C  
HETATM   19  C   UNL     1     -12.497   6.891  71.291  1.00  0.00    -0.409 C  
BRANCH  18  20
HETATM   20  C   UNL     1     -11.820   9.584  69.960  1.00  0.00     0.053 C  
BRANCH  20  21
HETATM   21  C   UNL     1     -11.823  11.094  70.096  1.00  0.00    -0.449 C  
HETATM   22  C   UNL     1     -11.164  11.940  69.276  1.00  0.00    -0.304 C  
HETATM   23  C   UNL     1     -10.277  11.535  68.129  1.00  0.00    -0.205 C  
HETATM   24  C   UNL     1     -11.288  13.419  69.438  1.00  0.00    -0.226 C  
HETATM   25  O   UNL     1     -10.658  14.188  68.725  1.00  0.00    -0.245 OA 
HETATM   26  C   UNL     1     -12.206  13.938  70.462  1.00  0.00    -0.443 A  
HETATM   27  C   UNL     1     -12.861  13.071  71.324  1.00  0.00    -0.370 A  
HETATM   28  C   UNL     1     -12.644  11.621  71.225  1.00  0.00    -0.320 C  
HETATM   29  C   UNL     1     -13.726  13.577  72.303  1.00  0.00    -0.700 A  
HETATM   30  C   UNL     1     -13.937  14.954  72.408  1.00  0.00    -0.582 A  
HETATM   31  O   UNL     1     -13.149  10.878  72.059  1.00  0.00    -0.491 OA 
HETATM   32  C   UNL     1     -13.283  15.825  71.539  1.00  0.00    -0.434 A  
HETATM   33  C   UNL     1     -12.417  15.321  70.567  1.00  0.00    -0.454 A  
ENDBRANCH  20  21
ENDBRANCH  18  20
ENDBRANCH  16  17
ENDBRANCH  15  16
ENDBRANCH  13  15
ENDBRANCH  10  11
ENDBRANCH   9  10
ENDBRANCH   5   6
ENDBRANCH   4   5
TORSDOF 9
ENDMDL
MODEL      147
REMARK 921   NORMALIZED FREE ENERGY PREDICTED BY IDOCK:   -5.14 KCAL/MOL
REMARK 922        TOTAL FREE ENERGY PREDICTED BY IDOCK:  -11.04 KCAL/MOL
REMARK 923 INTER-LIGAND FREE ENERGY PREDICTED BY IDOCK:   -8.00 KCAL/MOL
REMARK 924 INTRA-LIGAND FREE ENERGY PREDICTED BY IDOCK:   -3.05 KCAL/MOL
REMARK 927      BINDING AFFINITY PREDICTED BY RF-SCORE:    0.00 PKD
ROOT
HETATM    1  C   UNL     1     -13.313   9.926  72.182  1.00  0.00    -0.498 C  
HETATM    2  C   UNL     1     -12.596   8.580  72.103  1.00  0.00    -0.431 C  
HETATM    3  C   UNL     1     -13.560   7.509  71.582  1.00  0.00    -0.442 C  
HETATM    4  C   UNL     1     -11.330   8.717  71.236  1.00  0.00    -0.357 C  
ENDROOT
BRANCH   4   5
HETATM    5  C   UNL     1     -10.571   7.402  71.131  1.00  0.00    -0.235 C  
BRANCH   5   6
HETATM    6  C   UNL     1      -9.427   7.456  70.123  1.00  0.00    -0.165 C  
HETATM    7  C   UNL     1      -8.619   8.761  70.255  1.00  0.00    -0.158 C  
HETATM    8  C   UNL     1      -8.006   8.922  71.654  1.00  0.00    -0.080 C  
HETATM    9  C   UNL     1      -7.543   8.800  69.155  1.00  0.00    -0.088 C  
BRANCH   9  10
HETATM   10  C   UNL     1      -6.706  10.072  69.236  1.00  0.00    -0.057 C  
BRANCH  10  11
HETATM   11  C   UNL     1      -7.513  11.314  68.894  1.00  0.00    -0.123 C  
HETATM   12  C   UNL     1      -6.765  12.228  67.905  1.00  0.00    -0.093 C  
HETATM   13  C   UNL     1      -7.536  13.543  67.679  1.00  0.00    -0.187 C  
HETATM   14  C   UNL     1      -6.498  11.542  66.559  1.00  0.00    -0.037 C  
BRANCH  13  15
HETATM   15  C   UNL     1      -7.770  14.378  68.945  1.00  0.00    -0.128 C  
BRANCH  15  16
HETATM   16  C   UNL     1      -9.133  15.072  68.952  1.00  0.00    -0.202 C  
BRANCH  16  17
HETATM   17  C   UNL     1     -10.066  14.490  67.920  1.00  0.00    -0.227 C  
HETATM   18  C   UNL     1     -10.537  13.238  68.081  1.00  0.00    -0.259 C  
HETATM   19  C   UNL     1     -10.463  15.386  66.784  1.00  0.00    -0.299 C  
BRANCH  18  20
HETATM   20  C   UNL     1     -11.538  12.531  67.204  1.00  0.00    -0.437 C  
BRANCH  20  21
HETATM   21  C   UNL     1     -10.854  11.613  66.211  1.00  0.00    -0.333 C  
HETATM   22  C   UNL     1     -10.601  11.928  64.922  1.00  0.00    -0.333 C  
HETATM   23  C   UNL     1     -10.996  13.211  64.241  1.00  0.00    -0.428 C  
HETATM   24  C   UNL     1      -9.851  10.990  64.036  1.00  0.00    -0.313 C  
HETATM   25  O   UNL     1      -9.659  11.254  62.856  1.00  0.00    -0.348 OA 
HETATM   26  C   UNL     1      -9.326   9.745  64.615  1.00  0.00    -0.318 A  
HETATM   27  C   UNL     1      -9.611   9.407  65.929  1.00  0.00    -0.338 A  
HETATM   28  C   UNL     1     -10.443  10.287  66.760  1.00  0.00    -0.214 C  
HETATM   29  C   UNL     1      -9.113   8.213  66.468  1.00  0.00    -0.216 A  
HETATM   30  C   UNL     1      -8.323   7.367  65.688  1.00  0.00    -0.143 A  
HETATM   31  O   UNL     1     -10.770   9.924  67.884  1.00  0.00    -0.238 OA 
HETATM   32  C   UNL     1      -8.032   7.710  64.368  1.00  0.00    -0.123 A  
HETATM   33  C   UNL     1      -8.533   8.896  63.829  1.00  0.00    -0.147 A  
ENDBRANCH  20  21
ENDBRANCH  18  20
ENDBRANCH  16  17
ENDBRANCH  15  16
ENDBRANCH  13  15
ENDBRANCH  10  11
ENDBRANCH   9  10
ENDBRANCH   5   6
ENDBRANCH   4   5
TORSDOF 9
ENDMDL
MODEL      148
REMARK 921   NORMALIZED FREE ENERGY PREDICTED BY IDOCK:   -5.10 KCAL/MOL
REMARK 922        TOTAL FREE ENERGY PREDICTED BY IDOCK:  -10.98 KCAL/MOL
REMARK 923 INTER-LIGAND FREE ENERGY PREDICTED BY IDOCK:   -9.08 KCAL/MOL
REMARK 924 INTRA-LIGAND FREE ENERGY PREDICTED BY IDOCK:   -1.90 KCAL/MOL
REMARK 927      BINDING AFFINITY PREDICTED BY RF-SCORE:    0.00 PKD
ROOT
HETATM    1  C   UNL     1      -6.997  12.354  67.460  1.00  0.00    -0.142 C  
HETATM    2  C   UNL     1      -6.594  11.002  66.876  1.00  0.00    -0.112 C  
HETATM    3  C   UNL     1      -5.368  11.171  65.973  1.00  0.00    -0.132 C  
HETATM    4  C   UNL     1      -6.360   9.994  68.017  1.00  0.00    -0.054 C  
ENDROOT
BRANCH   4   5
HETATM    5  C   UNL     1      -5.965   8.622  67.488  1.00  0.00    -0.047 C  
BRANCH   5   6
HETATM    6  C   UNL     1      -6.102   7.520  68.534  1.00  0.00    -0.028 C  
HETATM    7  C   UNL     1      -7.573   7.313  68.946  1.00  0.00    -0.103 C  
HETATM    8  C   UNL     1      -8.458   6.927  67.751  1.00  0.00    -0.123 C  
HETATM    9  C   UNL     1      -7.638   6.260  70.066  1.00  0.00    -0.096 C  
BRANCH   9  10
HETATM   10  C   UNL     1      -9.074   6.010  70.515  1.00  0.00    -0.157 C  
BRANCH  10  11
HETATM   11  C   UNL     1      -9.642   7.179  71.303  1.00  0.00    -0.163 C  
HETATM   12  C   UNL     1     -11.176   7.101  71.414  1.00  0.00    -0.278 C  
HETATM   13  C   UNL     1     -11.744   8.363  72.094  1.00  0.00    -0.442 C  
HETATM   14  C   UNL     1     -11.647   5.849  72.165  1.00  0.00    -0.314 C  
BRANCH  13  15
HETATM   15  C   UNL     1     -11.430   9.679  71.372  1.00  0.00    -0.455 C  
BRANCH  15  16
HETATM   16  C   UNL     1     -12.662  10.568  71.201  1.00  0.00    -0.518 C  
BRANCH  16  17
HETATM   17  C   UNL     1     -12.354  11.810  70.403  1.00  0.00    -0.362 C  
HETATM   18  C   UNL     1     -11.946  11.694  69.124  1.00  0.00    -0.378 C  
HETATM   19  C   UNL     1     -12.582  13.127  71.084  1.00  0.00    -0.403 C  
BRANCH  18  20
HETATM   20  C   UNL     1     -11.679  12.818  68.157  1.00  0.00    -0.392 C  
BRANCH  20  21
HETATM   21  C   UNL     1     -11.385  12.295  66.765  1.00  0.00    -0.395 C  
HETATM   22  C   UNL     1     -11.880  12.823  65.625  1.00  0.00    -0.472 C  
HETATM   23  C   UNL     1     -12.841  13.978  65.541  1.00  0.00    -0.453 C  
HETATM   24  C   UNL     1     -11.472  12.290  64.292  1.00  0.00    -0.362 C  
HETATM   25  O   UNL     1     -11.952  12.738  63.259  1.00  0.00    -0.534 OA 
HETATM   26  C   UNL     1     -10.459  11.225  64.241  1.00  0.00    -0.419 A  
HETATM   27  C   UNL     1      -9.973  10.662  65.411  1.00  0.00    -0.343 A  
HETATM   28  C   UNL     1     -10.465  11.121  66.717  1.00  0.00    -0.252 C  
HETATM   29  C   UNL     1      -9.015   9.641  65.351  1.00  0.00    -0.231 A  
HETATM   30  C   UNL     1      -8.542   9.194  64.115  1.00  0.00    -0.191 A  
HETATM   31  O   UNL     1     -10.101  10.542  67.735  1.00  0.00    -0.166 OA 
HETATM   32  C   UNL     1      -9.028   9.765  62.939  1.00  0.00    -0.270 A  
HETATM   33  C   UNL     1      -9.986  10.778  62.999  1.00  0.00    -0.291 A  
ENDBRANCH  20  21
ENDBRANCH  18  20
ENDBRANCH  16  17
ENDBRANCH  15  16
ENDBRANCH  13  15
ENDBRANCH  10  11
ENDBRANCH   9  10
ENDBRANCH   5   6
ENDBRANCH   4   5
TORSDOF 9
ENDMDL
MODEL      149
REMARK 921   NORMALIZED FREE ENERGY PREDICTED BY IDOCK:   -5.10 KCAL/MOL
REMARK 922        TOTAL FREE ENERGY PREDICTED BY IDOCK:  -10.98 KCAL/MOL
REMARK 923 INTER-LIGAND FREE ENERGY PREDICTED BY IDOCK:   -8.49 KCAL/MOL
REMARK 924 INTRA-LIGAND FREE ENERGY PREDICTED BY IDOCK:   -2.50 KCAL/MOL
REMARK 927      BINDING AFFINITY PREDICTED BY RF-SCORE:    0.00 PKD
ROOT
HETATM    1  C   UNL     1      -9.497   6.757  74.405  1.00  0.00    -0.279 C  
HETATM    2  C   UNL     1     -10.354   6.616  73.150  1.00  0.00    -0.256 C  
HETATM    3  C   UNL     1     -11.250   5.379  73.270  1.00  0.00    -0.322 C  
HETATM    4  C   UNL     1     -11.154   7.913  72.920  1.00  0.00    -0.442 C  
ENDROOT
BRANCH   4   5
HETATM    5  C   UNL     1     -12.022   7.828  71.672  1.00  0.00    -0.330 C  
BRANCH   5   6
HETATM    6  C   UNL     1     -12.831   9.098  71.425  1.00  0.00    -0.376 C  
HETATM    7  C   UNL     1     -11.926  10.270  70.999  1.00  0.00    -0.483 C  
HETATM    8  C   UNL     1     -11.149   9.961  69.710  1.00  0.00    -0.294 C  
HETATM    9  C   UNL     1     -12.782  11.541  70.857  1.00  0.00    -0.372 C  
BRANCH   9  10
HETATM   10  C   UNL     1     -11.939  12.739  70.434  1.00  0.00    -0.331 C  
BRANCH  10  11
HETATM   11  C   UNL     1     -11.499  12.649  68.981  1.00  0.00    -0.354 C  
HETATM   12  C   UNL     1     -11.908  13.900  68.181  1.00  0.00    -0.407 C  
HETATM   13  C   UNL     1     -11.577  13.729  66.686  1.00  0.00    -0.392 C  
HETATM   14  C   UNL     1     -11.252  15.179  68.717  1.00  0.00    -0.293 C  
BRANCH  13  15
HETATM   15  C   UNL     1     -12.265  12.538  66.006  1.00  0.00    -0.263 C  
BRANCH  15  16
HETATM   16  C   UNL     1     -11.819  12.347  64.555  1.00  0.00    -0.452 C  
BRANCH  16  17
HETATM   17  C   UNL     1     -10.618  11.442  64.450  1.00  0.00    -0.403 C  
HETATM   18  C   UNL     1     -10.380  10.537  65.420  1.00  0.00    -0.292 C  
HETATM   19  C   UNL     1      -9.778  11.574  63.214  1.00  0.00    -0.405 C  
BRANCH  18  20
HETATM   20  C   UNL     1      -9.287   9.501  65.438  1.00  0.00    -0.324 C  
BRANCH  20  21
HETATM   21  C   UNL     1      -8.633   9.409  66.802  1.00  0.00    -0.134 C  
HETATM   22  C   UNL     1      -8.079  10.450  67.460  1.00  0.00    -0.107 C  
HETATM   23  C   UNL     1      -7.969  11.857  66.937  1.00  0.00    -0.132 C  
HETATM   24  C   UNL     1      -7.526  10.282  68.836  1.00  0.00    -0.094 C  
HETATM   25  O   UNL     1      -6.984  11.213  69.417  1.00  0.00    -0.112 OA 
HETATM   26  C   UNL     1      -7.665   8.974  69.494  1.00  0.00    -0.082 A  
HETATM   27  C   UNL     1      -8.206   7.897  68.808  1.00  0.00    -0.127 A  
HETATM   28  C   UNL     1      -8.646   8.048  67.415  1.00  0.00    -0.125 C  
HETATM   29  C   UNL     1      -8.325   6.653  69.442  1.00  0.00    -0.128 A  
HETATM   30  C   UNL     1      -7.907   6.496  70.765  1.00  0.00    -0.106 A  
HETATM   31  O   UNL     1      -9.026   7.062  66.793  1.00  0.00    -0.123 OA 
HETATM   32  C   UNL     1      -7.368   7.581  71.456  1.00  0.00    -0.075 A  
HETATM   33  C   UNL     1      -7.245   8.819  70.823  1.00  0.00    -0.073 A  
ENDBRANCH  20  21
ENDBRANCH  18  20
ENDBRANCH  16  17
ENDBRANCH  15  16
ENDBRANCH  13  15
ENDBRANCH  10  11
ENDBRANCH   9  10
ENDBRANCH   5   6
ENDBRANCH   4   5
TORSDOF 9
ENDMDL
MODEL      150
REMARK 921   NORMALIZED FREE ENERGY PREDICTED BY IDOCK:   -5.10 KCAL/MOL
REMARK 922        TOTAL FREE ENERGY PREDICTED BY IDOCK:  -10.98 KCAL/MOL
REMARK 923 INTER-LIGAND FREE ENERGY PREDICTED BY IDOCK:   -7.94 KCAL/MOL
REMARK 924 INTRA-LIGAND FREE ENERGY PREDICTED BY IDOCK:   -3.04 KCAL/MOL
REMARK 927      BINDING AFFINITY PREDICTED BY RF-SCORE:    0.00 PKD
ROOT
HETATM    1  C   UNL     1     -12.071  15.596  70.393  1.00  0.00    -0.425 C  
HETATM    2  C   UNL     1     -12.322  14.338  71.220  1.00  0.00    -0.439 C  
HETATM    3  C   UNL     1     -13.620  14.494  72.020  1.00  0.00    -0.509 C  
HETATM    4  C   UNL     1     -12.335  13.104  70.297  1.00  0.00    -0.319 C  
ENDROOT
BRANCH   4   5
HETATM    5  C   UNL     1     -12.573  11.818  71.076  1.00  0.00    -0.409 C  
BRANCH   5   6
HETATM    6  C   UNL     1     -11.788  10.634  70.520  1.00  0.00    -0.453 C  
HETATM    7  C   UNL     1     -11.512   9.578  71.607  1.00  0.00    -0.433 C  
HETATM    8  C   UNL     1     -12.809   9.025  72.217  1.00  0.00    -0.474 C  
HETATM    9  C   UNL     1     -10.640   8.459  71.013  1.00  0.00    -0.258 C  
BRANCH   9  10
HETATM   10  C   UNL     1     -10.334   7.379  72.045  1.00  0.00    -0.223 C  
BRANCH  10  11
HETATM   11  C   UNL     1     -10.173   6.006  71.411  1.00  0.00    -0.253 C  
HETATM   12  C   UNL     1     -10.197   4.884  72.466  1.00  0.00    -0.248 C  
HETATM   13  C   UNL     1      -9.895   3.517  71.821  1.00  0.00    -0.230 C  
HETATM   14  C   UNL     1     -11.530   4.819  73.224  1.00  0.00    -0.361 C  
BRANCH  13  15
HETATM   15  C   UNL     1      -8.533   3.422  71.122  1.00  0.00    -0.097 C  
BRANCH  15  16
HETATM   16  C   UNL     1      -8.556   2.492  69.908  1.00  0.00    -0.108 C  
BRANCH  16  17
HETATM   17  C   UNL     1      -8.896   3.231  68.639  1.00  0.00    -0.165 C  
HETATM   18  C   UNL     1      -8.868   4.579  68.626  1.00  0.00    -0.130 C  
HETATM   19  C   UNL     1      -9.196   2.397  67.429  1.00  0.00    -0.174 C  
BRANCH  18  20
HETATM   20  C   UNL     1      -9.092   5.474  67.435  1.00  0.00    -0.110 C  
BRANCH  20  21
HETATM   21  C   UNL     1      -8.911   6.935  67.798  1.00  0.00    -0.119 C  
HETATM   22  C   UNL     1      -7.822   7.444  68.414  1.00  0.00    -0.122 C  
HETATM   23  C   UNL     1      -6.635   6.650  68.890  1.00  0.00    -0.051 C  
HETATM   24  C   UNL     1      -7.695   8.910  68.661  1.00  0.00    -0.097 C  
HETATM   25  O   UNL     1      -6.731   9.369  69.258  1.00  0.00    -0.048 OA 
HETATM   26  C   UNL     1      -8.747   9.802  68.151  1.00  0.00    -0.119 A  
HETATM   27  C   UNL     1      -9.880   9.278  67.545  1.00  0.00    -0.224 A  
HETATM   28  C   UNL     1     -10.043   7.825  67.407  1.00  0.00    -0.222 C  
HETATM   29  C   UNL     1     -10.880  10.136  67.072  1.00  0.00    -0.221 A  
HETATM   30  C   UNL     1     -10.738  11.519  67.201  1.00  0.00    -0.294 A  
HETATM   31  O   UNL     1     -11.094   7.376  66.963  1.00  0.00    -0.268 OA 
HETATM   32  C   UNL     1      -9.597  12.046  67.805  1.00  0.00    -0.193 A  
HETATM   33  C   UNL     1      -8.602  11.191  68.282  1.00  0.00    -0.146 A  
ENDBRANCH  20  21
ENDBRANCH  18  20
ENDBRANCH  16  17
ENDBRANCH  15  16
ENDBRANCH  13  15
ENDBRANCH  10  11
ENDBRANCH   9  10
ENDBRANCH   5   6
ENDBRANCH   4   5
TORSDOF 9
ENDMDL
MODEL      151
REMARK 921   NORMALIZED FREE ENERGY PREDICTED BY IDOCK:   -5.09 KCAL/MOL
REMARK 922        TOTAL FREE ENERGY PREDICTED BY IDOCK:  -10.96 KCAL/MOL
REMARK 923 INTER-LIGAND FREE ENERGY PREDICTED BY IDOCK:   -9.35 KCAL/MOL
REMARK 924 INTRA-LIGAND FREE ENERGY PREDICTED BY IDOCK:   -1.61 KCAL/MOL
REMARK 927      BINDING AFFINITY PREDICTED BY RF-SCORE:    0.00 PKD
ROOT
HETATM    1  C   UNL     1     -11.318   5.482  72.975  1.00  0.00    -0.323 C  
HETATM    2  C   UNL     1     -11.633   6.247  71.691  1.00  0.00    -0.353 C  
HETATM    3  C   UNL     1     -11.624   7.754  71.970  1.00  0.00    -0.347 C  
HETATM    4  C   UNL     1     -10.640   5.838  70.586  1.00  0.00    -0.346 C  
ENDROOT
BRANCH   4   5
HETATM    5  C   UNL     1     -10.917   6.568  69.279  1.00  0.00    -0.389 C  
BRANCH   5   6
HETATM    6  C   UNL     1     -10.460   5.782  68.054  1.00  0.00    -0.286 C  
HETATM    7  C   UNL     1      -9.234   6.438  67.387  1.00  0.00    -0.117 C  
HETATM    8  C   UNL     1      -8.038   6.533  68.347  1.00  0.00    -0.111 C  
HETATM    9  C   UNL     1      -8.879   5.658  66.110  1.00  0.00    -0.142 C  
BRANCH   9  10
HETATM   10  C   UNL     1      -7.668   6.260  65.405  1.00  0.00    -0.097 C  
BRANCH  10  11
HETATM   11  C   UNL     1      -8.030   7.490  64.589  1.00  0.00    -0.133 C  
HETATM   12  C   UNL     1      -7.025   8.637  64.806  1.00  0.00    -0.073 C  
HETATM   13  C   UNL     1      -7.485   9.916  64.080  1.00  0.00    -0.139 C  
HETATM   14  C   UNL     1      -5.605   8.265  64.358  1.00  0.00    -0.048 C  
BRANCH  13  15
HETATM   15  C   UNL     1      -8.852  10.452  64.523  1.00  0.00    -0.225 C  
BRANCH  15  16
HETATM   16  C   UNL     1      -8.828  11.040  65.934  1.00  0.00    -0.204 C  
BRANCH  16  17
HETATM   17  C   UNL     1     -10.098  11.787  66.255  1.00  0.00    -0.248 C  
HETATM   18  C   UNL     1     -10.268  13.040  65.787  1.00  0.00    -0.297 C  
HETATM   19  C   UNL     1     -11.136  11.049  67.046  1.00  0.00    -0.311 C  
BRANCH  18  20
HETATM   20  C   UNL     1     -11.498  13.897  65.933  1.00  0.00    -0.328 C  
BRANCH  20  21
HETATM   21  C   UNL     1     -11.226  15.116  66.793  1.00  0.00    -0.285 C  
HETATM   22  C   UNL     1     -11.354  15.151  68.137  1.00  0.00    -0.345 C  
HETATM   23  C   UNL     1     -11.834  14.016  69.001  1.00  0.00    -0.391 C  
HETATM   24  C   UNL     1     -10.987  16.374  68.911  1.00  0.00    -0.332 C  
HETATM   25  O   UNL     1     -11.143  16.425  70.123  1.00  0.00    -0.355 OA 
HETATM   26  C   UNL     1     -10.411  17.516  68.187  1.00  0.00    -0.375 A  
HETATM   27  C   UNL     1     -10.307  17.492  66.804  1.00  0.00    -0.314 A  
HETATM   28  C   UNL     1     -10.774  16.325  66.044  1.00  0.00    -0.214 C  
HETATM   29  C   UNL     1      -9.765  18.590  66.124  1.00  0.00    -0.241 A  
HETATM   30  C   UNL     1      -9.321  19.707  66.835  1.00  0.00    -0.445 A  
HETATM   31  O   UNL     1     -10.770  16.362  64.819  1.00  0.00    -0.700 OA 
HETATM   32  C   UNL     1      -9.420  19.729  68.225  1.00  0.00    -0.440 A  
HETATM   33  C   UNL     1      -9.965  18.637  68.903  1.00  0.00    -0.399 A  
ENDBRANCH  20  21
ENDBRANCH  18  20
ENDBRANCH  16  17
ENDBRANCH  15  16
ENDBRANCH  13  15
ENDBRANCH  10  11
ENDBRANCH   9  10
ENDBRANCH   5   6
ENDBRANCH   4   5
TORSDOF 9
ENDMDL
MODEL      152
REMARK 921   NORMALIZED FREE ENERGY PREDICTED BY IDOCK:   -5.04 KCAL/MOL
REMARK 922        TOTAL FREE ENERGY PREDICTED BY IDOCK:  -10.90 KCAL/MOL
REMARK 923 INTER-LIGAND FREE ENERGY PREDICTED BY IDOCK:   -9.71 KCAL/MOL
REMARK 924 INTRA-LIGAND FREE ENERGY PREDICTED BY IDOCK:   -1.19 KCAL/MOL
REMARK 927      BINDING AFFINITY PREDICTED BY RF-SCORE:    0.00 PKD
ROOT
HETATM    1  C   UNL     1      -9.478   3.591  73.880  1.00  0.00    -0.118 C  
HETATM    2  C   UNL     1      -9.972   4.568  72.816  1.00  0.00    -0.209 C  
HETATM    3  C   UNL     1      -9.893   3.913  71.433  1.00  0.00    -0.243 C  
HETATM    4  C   UNL     1     -11.394   5.045  73.170  1.00  0.00    -0.397 C  
ENDROOT
BRANCH   4   5
HETATM    5  C   UNL     1     -11.932   6.031  72.143  1.00  0.00    -0.261 C  
BRANCH   5   6
HETATM    6  C   UNL     1     -11.084   7.294  72.032  1.00  0.00    -0.277 C  
HETATM    7  C   UNL     1     -11.881   8.457  71.410  1.00  0.00    -0.339 C  
HETATM    8  C   UNL     1     -13.127   8.810  72.237  1.00  0.00    -0.458 C  
HETATM    9  C   UNL     1     -10.950   9.670  71.238  1.00  0.00    -0.399 C  
BRANCH   9  10
HETATM   10  C   UNL     1     -11.686  10.858  70.627  1.00  0.00    -0.418 C  
BRANCH  10  11
HETATM   11  C   UNL     1     -11.723  10.792  69.108  1.00  0.00    -0.368 C  
HETATM   12  C   UNL     1     -10.580  11.605  68.473  1.00  0.00    -0.241 C  
HETATM   13  C   UNL     1     -10.716  11.640  66.938  1.00  0.00    -0.295 C  
HETATM   14  C   UNL     1      -9.194  11.073  68.861  1.00  0.00    -0.139 C  
BRANCH  13  15
HETATM   15  C   UNL     1     -12.022  12.255  66.421  1.00  0.00    -0.286 C  
BRANCH  15  16
HETATM   16  C   UNL     1     -12.223  13.697  66.891  1.00  0.00    -0.398 C  
BRANCH  16  17
HETATM   17  C   UNL     1     -11.584  14.689  65.952  1.00  0.00    -0.327 C  
HETATM   18  C   UNL     1     -10.657  15.547  66.421  1.00  0.00    -0.312 C  
HETATM   19  C   UNL     1     -11.992  14.616  64.510  1.00  0.00    -0.473 C  
BRANCH  18  20
HETATM   20  C   UNL     1      -9.858  16.540  65.618  1.00  0.00    -0.187 C  
BRANCH  20  21
HETATM   21  C   UNL     1      -9.086  17.487  66.515  1.00  0.00    -0.284 C  
HETATM   22  C   UNL     1      -9.429  18.771  66.752  1.00  0.00    -0.335 C  
HETATM   23  C   UNL     1     -10.596  19.494  66.134  1.00  0.00    -0.585 C  
HETATM   24  C   UNL     1      -8.653  19.608  67.714  1.00  0.00    -0.322 C  
HETATM   25  O   UNL     1      -8.935  20.784  67.899  1.00  0.00    -0.037 OA 
HETATM   26  C   UNL     1      -7.550  18.982  68.458  1.00  0.00    -0.364 A  
HETATM   27  C   UNL     1      -7.177  17.673  68.193  1.00  0.00    -0.218 A  
HETATM   28  C   UNL     1      -7.880  16.894  67.164  1.00  0.00    -0.177 C  
HETATM   29  C   UNL     1      -6.118  17.089  68.900  1.00  0.00    -0.170 A  
HETATM   30  C   UNL     1      -5.441  17.820  69.879  1.00  0.00    -0.229 A  
HETATM   31  O   UNL     1      -7.472  15.775  66.872  1.00  0.00    -0.216 OA 
HETATM   32  C   UNL     1      -5.818  19.135  70.148  1.00  0.00    -0.263 A  
HETATM   33  C   UNL     1      -6.870  19.718  69.440  1.00  0.00    -0.364 A  
ENDBRANCH  20  21
ENDBRANCH  18  20
ENDBRANCH  16  17
ENDBRANCH  15  16
ENDBRANCH  13  15
ENDBRANCH  10  11
ENDBRANCH   9  10
ENDBRANCH   5   6
ENDBRANCH   4   5
TORSDOF 9
ENDMDL
MODEL      153
REMARK 921   NORMALIZED FREE ENERGY PREDICTED BY IDOCK:   -5.04 KCAL/MOL
REMARK 922        TOTAL FREE ENERGY PREDICTED BY IDOCK:  -10.90 KCAL/MOL
REMARK 923 INTER-LIGAND FREE ENERGY PREDICTED BY IDOCK:   -7.94 KCAL/MOL
REMARK 924 INTRA-LIGAND FREE ENERGY PREDICTED BY IDOCK:   -2.96 KCAL/MOL
REMARK 927      BINDING AFFINITY PREDICTED BY RF-SCORE:    0.00 PKD
ROOT
HETATM    1  C   UNL     1     -11.580   5.667  72.186  1.00  0.00    -0.202 C  
HETATM    2  C   UNL     1     -10.348   5.912  71.318  1.00  0.00    -0.276 C  
HETATM    3  C   UNL     1      -9.079   5.632  72.129  1.00  0.00    -0.147 C  
HETATM    4  C   UNL     1     -10.438   5.061  70.037  1.00  0.00    -0.226 C  
ENDROOT
BRANCH   4   5
HETATM    5  C   UNL     1      -9.235   5.276  69.130  1.00  0.00    -0.153 C  
BRANCH   5   6
HETATM    6  C   UNL     1      -9.263   6.624  68.417  1.00  0.00    -0.122 C  
HETATM    7  C   UNL     1      -8.601   6.543  67.028  1.00  0.00    -0.113 C  
HETATM    8  C   UNL     1      -9.300   5.525  66.114  1.00  0.00    -0.169 C  
HETATM    9  C   UNL     1      -8.575   7.947  66.400  1.00  0.00    -0.156 C  
BRANCH   9  10
HETATM   10  C   UNL     1      -7.931   7.930  65.017  1.00  0.00    -0.137 C  
BRANCH  10  11
HETATM   11  C   UNL     1      -8.736   8.722  63.999  1.00  0.00    -0.006 C  
HETATM   12  C   UNL     1      -8.186  10.150  63.822  1.00  0.00    -0.163 C  
HETATM   13  C   UNL     1      -9.095  10.978  62.892  1.00  0.00    -0.333 C  
HETATM   14  C   UNL     1      -6.747  10.163  63.290  1.00  0.00    -0.131 C  
BRANCH  13  15
HETATM   15  C   UNL     1     -10.543  11.130  63.375  1.00  0.00    -0.340 C  
BRANCH  15  16
HETATM   16  C   UNL     1     -10.988  12.591  63.459  1.00  0.00    -0.472 C  
BRANCH  16  17
HETATM   17  C   UNL     1     -10.910  13.123  64.867  1.00  0.00    -0.348 C  
HETATM   18  C   UNL     1      -9.922  12.705  65.683  1.00  0.00    -0.253 C  
HETATM   19  C   UNL     1     -11.931  14.151  65.260  1.00  0.00    -0.383 C  
BRANCH  18  20
HETATM   20  C   UNL     1      -9.640  13.191  67.081  1.00  0.00    -0.235 C  
BRANCH  20  21
HETATM   21  C   UNL     1      -9.785  12.075  68.096  1.00  0.00    -0.199 C  
HETATM   22  C   UNL     1      -8.785  11.255  68.482  1.00  0.00    -0.156 C  
HETATM   23  C   UNL     1      -7.380  11.271  67.941  1.00  0.00    -0.092 C  
HETATM   24  C   UNL     1      -8.999  10.232  69.549  1.00  0.00    -0.157 C  
HETATM   25  O   UNL     1      -8.107   9.458  69.871  1.00  0.00    -0.105 OA 
HETATM   26  C   UNL     1     -10.303  10.186  70.225  1.00  0.00    -0.234 A  
HETATM   27  C   UNL     1     -11.340  11.007  69.808  1.00  0.00    -0.366 A  
HETATM   28  C   UNL     1     -11.149  11.933  68.684  1.00  0.00    -0.246 C  
HETATM   29  C   UNL     1     -12.582  10.949  70.454  1.00  0.00    -0.376 A  
HETATM   30  C   UNL     1     -12.777  10.070  71.522  1.00  0.00    -0.532 A  
HETATM   31  O   UNL     1     -12.104  12.576  68.263  1.00  0.00    -0.284 OA 
HETATM   32  C   UNL     1     -11.733   9.248  71.944  1.00  0.00    -0.420 A  
HETATM   33  C   UNL     1     -10.497   9.303  71.298  1.00  0.00    -0.408 A  
ENDBRANCH  20  21
ENDBRANCH  18  20
ENDBRANCH  16  17
ENDBRANCH  15  16
ENDBRANCH  13  15
ENDBRANCH  10  11
ENDBRANCH   9  10
ENDBRANCH   5   6
ENDBRANCH   4   5
TORSDOF 9
ENDMDL
MODEL      154
REMARK 921   NORMALIZED FREE ENERGY PREDICTED BY IDOCK:   -5.02 KCAL/MOL
REMARK 922        TOTAL FREE ENERGY PREDICTED BY IDOCK:  -10.87 KCAL/MOL
REMARK 923 INTER-LIGAND FREE ENERGY PREDICTED BY IDOCK:   -7.22 KCAL/MOL
REMARK 924 INTRA-LIGAND FREE ENERGY PREDICTED BY IDOCK:   -3.65 KCAL/MOL
REMARK 927      BINDING AFFINITY PREDICTED BY RF-SCORE:    0.00 PKD
ROOT
HETATM    1  C   UNL     1     -10.414  20.061  65.832  1.00  0.00    -0.511 C  
HETATM    2  C   UNL     1     -10.123  18.632  66.284  1.00  0.00    -0.431 C  
HETATM    3  C   UNL     1     -10.443  18.484  67.775  1.00  0.00    -0.443 C  
HETATM    4  C   UNL     1     -10.908  17.640  65.403  1.00  0.00     0.104 C  
ENDROOT
BRANCH   4   5
HETATM    5  C   UNL     1     -10.645  16.196  65.806  1.00  0.00    -0.347 C  
BRANCH   5   6
HETATM    6  C   UNL     1     -10.664  15.236  64.621  1.00  0.00    -0.226 C  
HETATM    7  C   UNL     1     -10.884  13.780  65.075  1.00  0.00    -0.377 C  
HETATM    8  C   UNL     1     -12.210  13.605  65.830  1.00  0.00    -0.503 C  
HETATM    9  C   UNL     1     -10.799  12.853  63.851  1.00  0.00    -0.402 C  
BRANCH   9  10
HETATM   10  C   UNL     1     -11.012  11.393  64.238  1.00  0.00    -0.390 C  
BRANCH  10  11
HETATM   11  C   UNL     1      -9.810  10.526  63.896  1.00  0.00    -0.373 C  
HETATM   12  C   UNL     1      -9.130   9.968  65.161  1.00  0.00    -0.247 C  
HETATM   13  C   UNL     1      -7.838   9.209  64.801  1.00  0.00    -0.119 C  
HETATM   14  C   UNL     1     -10.060   9.058  65.974  1.00  0.00    -0.154 C  
BRANCH  13  15
HETATM   15  C   UNL     1      -6.779  10.049  64.076  1.00  0.00    -0.128 C  
BRANCH  15  16
HETATM   16  C   UNL     1      -5.420  10.019  64.777  1.00  0.00    -0.090 C  
BRANCH  16  17
HETATM   17  C   UNL     1      -5.545  10.275  66.258  1.00  0.00    -0.058 C  
HETATM   18  C   UNL     1      -6.010  11.463  66.691  1.00  0.00    -0.147 C  
HETATM   19  C   UNL     1      -5.186   9.142  67.173  1.00  0.00    -0.036 C  
BRANCH  18  20
HETATM   20  C   UNL     1      -6.281  11.860  68.118  1.00  0.00    -0.051 C  
BRANCH  20  21
HETATM   21  C   UNL     1      -7.767  12.005  68.381  1.00  0.00    -0.138 C  
HETATM   22  C   UNL     1      -8.597  10.984  68.683  1.00  0.00    -0.157 C  
HETATM   23  C   UNL     1      -8.207   9.532  68.760  1.00  0.00    -0.112 C  
HETATM   24  C   UNL     1     -10.033  11.231  69.005  1.00  0.00    -0.105 C  
HETATM   25  O   UNL     1     -10.798  10.304  69.237  1.00  0.00    -0.211 OA 
HETATM   26  C   UNL     1     -10.511  12.621  69.061  1.00  0.00    -0.026 A  
HETATM   27  C   UNL     1      -9.668  13.668  68.722  1.00  0.00    -0.040 A  
HETATM   28  C   UNL     1      -8.286  13.402  68.300  1.00  0.00    -0.160 C  
HETATM   29  C   UNL     1     -10.136  14.987  68.769  1.00  0.00    -0.231 A  
HETATM   30  C   UNL     1     -11.449  15.252  69.166  1.00  0.00    -0.330 A  
HETATM   31  O   UNL     1      -7.587  14.329  67.906  1.00  0.00    -0.122 OA 
HETATM   32  C   UNL     1     -12.295  14.199  69.512  1.00  0.00    -0.275 A  
HETATM   33  C   UNL     1     -11.830  12.885  69.459  1.00  0.00    -0.383 A  
ENDBRANCH  20  21
ENDBRANCH  18  20
ENDBRANCH  16  17
ENDBRANCH  15  16
ENDBRANCH  13  15
ENDBRANCH  10  11
ENDBRANCH   9  10
ENDBRANCH   5   6
ENDBRANCH   4   5
TORSDOF 9
ENDMDL
MODEL      155
REMARK 921   NORMALIZED FREE ENERGY PREDICTED BY IDOCK:   -5.02 KCAL/MOL
REMARK 922        TOTAL FREE ENERGY PREDICTED BY IDOCK:  -10.86 KCAL/MOL
REMARK 923 INTER-LIGAND FREE ENERGY PREDICTED BY IDOCK:   -7.38 KCAL/MOL
REMARK 924 INTRA-LIGAND FREE ENERGY PREDICTED BY IDOCK:   -3.48 KCAL/MOL
REMARK 927      BINDING AFFINITY PREDICTED BY RF-SCORE:    0.00 PKD
ROOT
HETATM    1  C   UNL     1      -7.590  13.039  67.815  1.00  0.00    -0.152 C  
HETATM    2  C   UNL     1      -6.678  11.814  67.813  1.00  0.00    -0.082 C  
HETATM    3  C   UNL     1      -5.317  12.181  67.213  1.00  0.00    -0.113 C  
HETATM    4  C   UNL     1      -6.568  11.248  69.242  1.00  0.00    -0.100 C  
ENDROOT
BRANCH   4   5
HETATM    5  C   UNL     1      -5.675  10.016  69.295  1.00  0.00    -0.037 C  
BRANCH   5   6
HETATM    6  C   UNL     1      -6.457   8.712  69.172  1.00  0.00    -0.043 C  
HETATM    7  C   UNL     1      -6.444   7.919  70.493  1.00  0.00    -0.037 C  
HETATM    8  C   UNL     1      -7.062   8.718  71.651  1.00  0.00    -0.091 C  
HETATM    9  C   UNL     1      -7.165   6.576  70.281  1.00  0.00    -0.080 C  
BRANCH   9  10
HETATM   10  C   UNL     1      -7.187   5.745  71.560  1.00  0.00    -0.082 C  
BRANCH  10  11
HETATM   11  C   UNL     1      -8.590   5.603  72.129  1.00  0.00    -0.126 C  
HETATM   12  C   UNL     1      -9.543   4.914  71.135  1.00  0.00    -0.232 C  
HETATM   13  C   UNL     1     -10.987   4.905  71.674  1.00  0.00     0.115 C  
HETATM   14  C   UNL     1      -9.104   3.484  70.796  1.00  0.00    -0.181 C  
BRANCH  13  15
HETATM   15  C   UNL     1     -11.581   6.292  71.950  1.00  0.00    -0.369 C  
BRANCH  15  16
HETATM   16  C   UNL     1     -11.929   7.052  70.669  1.00  0.00    -0.361 C  
BRANCH  16  17
HETATM   17  C   UNL     1     -11.183   8.358  70.568  1.00  0.00    -0.252 C  
HETATM   18  C   UNL     1     -10.637   8.723  69.391  1.00  0.00    -0.218 C  
HETATM   19  C   UNL     1     -11.145   9.212  71.801  1.00  0.00    -0.437 C  
BRANCH  18  20
HETATM   20  C   UNL     1      -9.937  10.021  69.086  1.00  0.00    -0.213 C  
BRANCH  20  21
HETATM   21  C   UNL     1     -10.123  10.424  67.637  1.00  0.00    -0.223 C  
HETATM   22  C   UNL     1      -9.602   9.761  66.582  1.00  0.00    -0.239 C  
HETATM   23  C   UNL     1      -8.713   8.548  66.663  1.00  0.00    -0.139 C  
HETATM   24  C   UNL     1      -9.903  10.185  65.183  1.00  0.00    -0.325 C  
HETATM   25  O   UNL     1      -9.398   9.613  64.227  1.00  0.00    -0.244 OA 
HETATM   26  C   UNL     1     -10.842  11.297  64.974  1.00  0.00    -0.285 A  
HETATM   27  C   UNL     1     -11.353  11.999  66.055  1.00  0.00    -0.398 A  
HETATM   28  C   UNL     1     -10.962  11.640  67.426  1.00  0.00    -0.261 C  
HETATM   29  C   UNL     1     -12.239  13.063  65.844  1.00  0.00    -0.493 A  
HETATM   30  C   UNL     1     -12.616  13.415  64.546  1.00  0.00    -0.286 A  
HETATM   31  O   UNL     1     -11.342  12.334  68.362  1.00  0.00    -0.245 OA 
HETATM   32  C   UNL     1     -12.106  12.707  63.459  1.00  0.00    -0.648 A  
HETATM   33  C   UNL     1     -11.219  11.649  63.670  1.00  0.00    -0.497 A  
ENDBRANCH  20  21
ENDBRANCH  18  20
ENDBRANCH  16  17
ENDBRANCH  15  16
ENDBRANCH  13  15
ENDBRANCH  10  11
ENDBRANCH   9  10
ENDBRANCH   5   6
ENDBRANCH   4   5
TORSDOF 9
ENDMDL
MODEL      156
REMARK 921   NORMALIZED FREE ENERGY PREDICTED BY IDOCK:   -5.00 KCAL/MOL
REMARK 922        TOTAL FREE ENERGY PREDICTED BY IDOCK:  -10.83 KCAL/MOL
REMARK 923 INTER-LIGAND FREE ENERGY PREDICTED BY IDOCK:   -8.07 KCAL/MOL
REMARK 924 INTRA-LIGAND FREE ENERGY PREDICTED BY IDOCK:   -2.77 KCAL/MOL
REMARK 927      BINDING AFFINITY PREDICTED BY RF-SCORE:    0.00 PKD
ROOT
HETATM    1  C   UNL     1      -9.055  20.705  67.322  1.00  0.00    -0.408 C  
HETATM    2  C   UNL     1      -9.815  19.412  67.609  1.00  0.00    -0.450 C  
HETATM    3  C   UNL     1     -10.293  18.789  66.293  1.00  0.00    -0.497 C  
HETATM    4  C   UNL     1      -8.926  18.460  68.432  1.00  0.00    -0.336 C  
ENDROOT
BRANCH   4   5
HETATM    5  C   UNL     1      -9.641  17.155  68.754  1.00  0.00    -0.269 C  
BRANCH   5   6
HETATM    6  C   UNL     1      -8.680  16.024  69.107  1.00  0.00    -0.248 C  
HETATM    7  C   UNL     1      -8.612  14.970  67.985  1.00  0.00    -0.158 C  
HETATM    8  C   UNL     1      -8.142  15.575  66.653  1.00  0.00    -0.189 C  
HETATM    9  C   UNL     1      -7.704  13.813  68.436  1.00  0.00    -0.134 C  
BRANCH   9  10
HETATM   10  C   UNL     1      -7.595  12.735  67.362  1.00  0.00    -0.152 C  
BRANCH  10  11
HETATM   11  C   UNL     1      -7.677  11.333  67.944  1.00  0.00    -0.110 C  
HETATM   12  C   UNL     1      -6.808  10.336  67.155  1.00  0.00    -0.082 C  
HETATM   13  C   UNL     1      -7.011   8.899  67.673  1.00  0.00    -0.075 C  
HETATM   14  C   UNL     1      -5.317  10.698  67.194  1.00  0.00    -0.042 C  
BRANCH  13  15
HETATM   15  C   UNL     1      -8.452   8.380  67.584  1.00  0.00    -0.130 C  
BRANCH  15  16
HETATM   16  C   UNL     1      -8.834   7.489  68.766  1.00  0.00    -0.131 C  
BRANCH  16  17
HETATM   17  C   UNL     1     -10.110   7.947  69.427  1.00  0.00    -0.196 C  
HETATM   18  C   UNL     1     -10.287   9.256  69.697  1.00  0.00    -0.227 C  
HETATM   19  C   UNL     1     -11.147   6.897  69.697  1.00  0.00    -0.302 C  
BRANCH  18  20
HETATM   20  C   UNL     1     -11.522   9.900  70.269  1.00  0.00    -0.349 C  
BRANCH  20  21
HETATM   21  C   UNL     1     -11.789  11.250  69.634  1.00  0.00    -0.430 C  
HETATM   22  C   UNL     1     -12.248  12.333  70.296  1.00  0.00    -0.342 C  
HETATM   23  C   UNL     1     -12.619  12.376  71.755  1.00  0.00    -0.121 C  
HETATM   24  C   UNL     1     -12.406  13.646  69.604  1.00  0.00    -0.203 C  
HETATM   25  O   UNL     1     -12.863  14.619  70.190  1.00  0.00    -0.282 OA 
HETATM   26  C   UNL     1     -11.981  13.756  68.201  1.00  0.00    -0.394 A  
HETATM   27  C   UNL     1     -11.539  12.638  67.511  1.00  0.00    -0.418 A  
HETATM   28  C   UNL     1     -11.491  11.327  68.173  1.00  0.00    -0.306 C  
HETATM   29  C   UNL     1     -11.145  12.752  66.172  1.00  0.00    -0.322 A  
HETATM   30  C   UNL     1     -11.188  13.992  65.531  1.00  0.00    -0.311 A  
HETATM   31  O   UNL     1     -11.196  10.332  67.520  1.00  0.00    -0.295 OA 
HETATM   32  C   UNL     1     -11.628  15.117  66.226  1.00  0.00    -0.080 A  
HETATM   33  C   UNL     1     -12.026  15.002  67.559  1.00  0.00    -0.078 A  
ENDBRANCH  20  21
ENDBRANCH  18  20
ENDBRANCH  16  17
ENDBRANCH  15  16
ENDBRANCH  13  15
ENDBRANCH  10  11
ENDBRANCH   9  10
ENDBRANCH   5   6
ENDBRANCH   4   5
TORSDOF 9
ENDMDL
MODEL      157
REMARK 921   NORMALIZED FREE ENERGY PREDICTED BY IDOCK:   -4.99 KCAL/MOL
REMARK 922        TOTAL FREE ENERGY PREDICTED BY IDOCK:  -10.82 KCAL/MOL
REMARK 923 INTER-LIGAND FREE ENERGY PREDICTED BY IDOCK:   -7.89 KCAL/MOL
REMARK 924 INTRA-LIGAND FREE ENERGY PREDICTED BY IDOCK:   -2.93 KCAL/MOL
REMARK 927      BINDING AFFINITY PREDICTED BY RF-SCORE:    0.00 PKD
ROOT
HETATM    1  C   UNL     1      -9.633  17.022  66.762  1.00  0.00    -0.274 C  
HETATM    2  C   UNL     1      -8.135  16.726  66.761  1.00  0.00    -0.273 C  
HETATM    3  C   UNL     1      -7.368  17.925  67.328  1.00  0.00    -0.209 C  
HETATM    4  C   UNL     1      -7.863  15.423  67.536  1.00  0.00    -0.193 C  
ENDROOT
BRANCH   4   5
HETATM    5  C   UNL     1      -6.380  15.076  67.557  1.00  0.00    -0.089 C  
BRANCH   5   6
HETATM    6  C   UNL     1      -6.034  14.015  68.597  1.00  0.00    -0.088 C  
HETATM    7  C   UNL     1      -6.946  12.779  68.468  1.00  0.00    -0.095 C  
HETATM    8  C   UNL     1      -6.834  12.121  67.084  1.00  0.00    -0.119 C  
HETATM    9  C   UNL     1      -6.613  11.788  69.597  1.00  0.00    -0.081 C  
BRANCH   9  10
HETATM   10  C   UNL     1      -7.485  10.539  69.520  1.00  0.00    -0.146 C  
BRANCH  10  11
HETATM   11  C   UNL     1      -7.488   9.758  70.825  1.00  0.00     0.045 C  
HETATM   12  C   UNL     1      -7.518   8.238  70.581  1.00  0.00    -0.062 C  
HETATM   13  C   UNL     1      -7.660   7.470  71.910  1.00  0.00    -0.085 C  
HETATM   14  C   UNL     1      -6.281   7.741  69.822  1.00  0.00    -0.030 C  
BRANCH  13  15
HETATM   15  C   UNL     1      -8.923   7.803  72.714  1.00  0.00    -0.236 C  
BRANCH  15  16
HETATM   16  C   UNL     1     -10.043   6.782  72.506  1.00  0.00    -0.190 C  
BRANCH  16  17
HETATM   17  C   UNL     1     -11.199   7.363  71.732  1.00  0.00    -0.277 C  
HETATM   18  C   UNL     1     -11.644   8.599  72.030  1.00  0.00    -0.440 C  
HETATM   19  C   UNL     1     -11.754   6.528  70.616  1.00  0.00    -0.436 C  
BRANCH  18  20
HETATM   20  C   UNL     1     -12.722   9.367  71.311  1.00  0.00    -0.391 C  
BRANCH  20  21
HETATM   21  C   UNL     1     -12.184  10.652  70.714  1.00  0.00    -0.474 C  
HETATM   22  C   UNL     1     -11.372  10.717  69.637  1.00  0.00    -0.362 C  
HETATM   23  C   UNL     1     -10.823   9.537  68.882  1.00  0.00    -0.177 C  
HETATM   24  C   UNL     1     -10.954  12.033  69.069  1.00  0.00    -0.210 C  
HETATM   25  O   UNL     1     -10.183  12.096  68.121  1.00  0.00    -0.192 OA 
HETATM   26  C   UNL     1     -11.506  13.260  69.661  1.00  0.00    -0.267 A  
HETATM   27  C   UNL     1     -12.316  13.196  70.785  1.00  0.00    -0.404 A  
HETATM   28  C   UNL     1     -12.631  11.900  71.400  1.00  0.00    -0.240 C  
HETATM   29  C   UNL     1     -12.830  14.372  71.346  1.00  0.00    -0.410 A  
HETATM   30  C   UNL     1     -12.535  15.611  70.772  1.00  0.00    -0.484 A  
HETATM   31  O   UNL     1     -13.262  11.869  72.451  1.00  0.00    -0.329 OA 
HETATM   32  C   UNL     1     -11.724  15.675  69.639  1.00  0.00    -0.373 A  
HETATM   33  C   UNL     1     -11.209  14.503  69.083  1.00  0.00    -0.294 A  
ENDBRANCH  20  21
ENDBRANCH  18  20
ENDBRANCH  16  17
ENDBRANCH  15  16
ENDBRANCH  13  15
ENDBRANCH  10  11
ENDBRANCH   9  10
ENDBRANCH   5   6
ENDBRANCH   4   5
TORSDOF 9
ENDMDL
MODEL      158
REMARK 921   NORMALIZED FREE ENERGY PREDICTED BY IDOCK:   -4.96 KCAL/MOL
REMARK 922        TOTAL FREE ENERGY PREDICTED BY IDOCK:  -10.78 KCAL/MOL
REMARK 923 INTER-LIGAND FREE ENERGY PREDICTED BY IDOCK:   -8.05 KCAL/MOL
REMARK 924 INTRA-LIGAND FREE ENERGY PREDICTED BY IDOCK:   -2.72 KCAL/MOL
REMARK 927      BINDING AFFINITY PREDICTED BY RF-SCORE:    0.00 PKD
ROOT
HETATM    1  C   UNL     1      -8.220   8.605  63.828  1.00  0.00    -0.145 C  
HETATM    2  C   UNL     1      -7.133   7.870  64.609  1.00  0.00    -0.076 C  
HETATM    3  C   UNL     1      -6.045   7.380  63.647  1.00  0.00    -0.049 C  
HETATM    4  C   UNL     1      -6.581   8.787  65.717  1.00  0.00    -0.060 C  
ENDROOT
BRANCH   4   5
HETATM    5  C   UNL     1      -5.496   8.098  66.534  1.00  0.00    -0.028 C  
BRANCH   5   6
HETATM    6  C   UNL     1      -5.998   7.605  67.888  1.00  0.00    -0.040 C  
HETATM    7  C   UNL     1      -6.942   6.397  67.736  1.00  0.00    -0.075 C  
HETATM    8  C   UNL     1      -6.256   5.212  67.039  1.00  0.00    -0.032 C  
HETATM    9  C   UNL     1      -7.487   6.006  69.120  1.00  0.00    -0.086 C  
BRANCH   9  10
HETATM   10  C   UNL     1      -8.430   4.810  69.034  1.00  0.00    -0.087 C  
BRANCH  10  11
HETATM   11  C   UNL     1      -9.722   5.040  69.801  1.00  0.00    -0.266 C  
HETATM   12  C   UNL     1     -10.531   6.214  69.219  1.00  0.00    -0.314 C  
HETATM   13  C   UNL     1     -11.765   6.518  70.092  1.00  0.00    -0.419 C  
HETATM   14  C   UNL     1     -10.967   5.965  67.769  1.00  0.00    -0.245 C  
BRANCH  13  15
HETATM   15  C   UNL     1     -11.448   6.891  71.546  1.00  0.00    -0.315 C  
BRANCH  15  16
HETATM   16  C   UNL     1     -11.531   8.397  71.801  1.00  0.00    -0.365 C  
BRANCH  16  17
HETATM   17  C   UNL     1     -10.450   9.152  71.070  1.00  0.00    -0.368 C  
HETATM   18  C   UNL     1     -10.789  10.044  70.118  1.00  0.00    -0.365 C  
HETATM   19  C   UNL     1      -9.036   8.896  71.500  1.00  0.00    -0.275 C  
BRANCH  18  20
HETATM   20  C   UNL     1      -9.856  10.944  69.352  1.00  0.00    -0.055 C  
BRANCH  20  21
HETATM   21  C   UNL     1     -10.583  11.689  68.250  1.00  0.00    -0.232 C  
HETATM   22  C   UNL     1     -11.251  12.850  68.419  1.00  0.00    -0.305 C  
HETATM   23  C   UNL     1     -11.432  13.574  69.727  1.00  0.00    -0.246 C  
HETATM   24  C   UNL     1     -11.872  13.555  67.259  1.00  0.00    -0.385 C  
HETATM   25  O   UNL     1     -12.515  14.584  67.415  1.00  0.00    -0.129 OA 
HETATM   26  C   UNL     1     -11.676  12.998  65.913  1.00  0.00    -0.442 A  
HETATM   27  C   UNL     1     -11.017  11.790  65.741  1.00  0.00    -0.353 A  
HETATM   28  C   UNL     1     -10.506  11.050  66.903  1.00  0.00    -0.246 C  
HETATM   29  C   UNL     1     -10.845  11.263  64.455  1.00  0.00    -0.373 A  
HETATM   30  C   UNL     1     -11.328  11.955  63.342  1.00  0.00    -0.465 A  
HETATM   31  O   UNL     1     -10.017   9.938  66.743  1.00  0.00    -0.192 OA 
HETATM   32  C   UNL     1     -11.987  13.172  63.514  1.00  0.00    -0.580 A  
HETATM   33  C   UNL     1     -12.163  13.694  64.797  1.00  0.00    -0.440 A  
ENDBRANCH  20  21
ENDBRANCH  18  20
ENDBRANCH  16  17
ENDBRANCH  15  16
ENDBRANCH  13  15
ENDBRANCH  10  11
ENDBRANCH   9  10
ENDBRANCH   5   6
ENDBRANCH   4   5
TORSDOF 9
ENDMDL
MODEL      159
REMARK 921   NORMALIZED FREE ENERGY PREDICTED BY IDOCK:   -4.95 KCAL/MOL
REMARK 922        TOTAL FREE ENERGY PREDICTED BY IDOCK:  -10.76 KCAL/MOL
REMARK 923 INTER-LIGAND FREE ENERGY PREDICTED BY IDOCK:   -8.87 KCAL/MOL
REMARK 924 INTRA-LIGAND FREE ENERGY PREDICTED BY IDOCK:   -1.89 KCAL/MOL
REMARK 927      BINDING AFFINITY PREDICTED BY RF-SCORE:    0.00 PKD
ROOT
HETATM    1  C   UNL     1     -13.879   8.703  71.905  1.00  0.00    -0.481 C  
HETATM    2  C   UNL     1     -12.989   9.933  72.067  1.00  0.00    -0.518 C  
HETATM    3  C   UNL     1     -11.785   9.830  71.124  1.00  0.00    -0.465 C  
HETATM    4  C   UNL     1     -13.820  11.209  71.838  1.00  0.00     0.318 C  
ENDROOT
BRANCH   4   5
HETATM    5  C   UNL     1     -12.979  12.469  71.997  1.00  0.00    -0.379 C  
BRANCH   5   6
HETATM    6  C   UNL     1     -12.322  12.912  70.694  1.00  0.00    -0.385 C  
HETATM    7  C   UNL     1     -12.362  14.444  70.534  1.00  0.00    -0.413 C  
HETATM    8  C   UNL     1     -11.638  15.163  71.682  1.00  0.00    -0.463 C  
HETATM    9  C   UNL     1     -11.772  14.823  69.164  1.00  0.00    -0.344 C  
BRANCH   9  10
HETATM   10  C   UNL     1     -11.782  16.332  68.948  1.00  0.00    -0.160 C  
BRANCH  10  11
HETATM   11  C   UNL     1     -10.433  16.965  69.247  1.00  0.00    -0.319 C  
HETATM   12  C   UNL     1      -9.814  17.611  67.993  1.00  0.00    -0.310 C  
HETATM   13  C   UNL     1      -8.390  18.124  68.284  1.00  0.00    -0.301 C  
HETATM   14  C   UNL     1     -10.675  18.752  67.435  1.00  0.00    -0.487 C  
BRANCH  13  15
HETATM   15  C   UNL     1      -7.401  17.047  68.747  1.00  0.00    -0.236 C  
BRANCH  15  16
HETATM   16  C   UNL     1      -7.122  15.997  67.670  1.00  0.00    -0.178 C  
BRANCH  16  17
HETATM   17  C   UNL     1      -7.621  14.633  68.072  1.00  0.00    -0.132 C  
HETATM   18  C   UNL     1      -8.763  14.158  67.537  1.00  0.00    -0.208 C  
HETATM   19  C   UNL     1      -6.764  13.851  69.023  1.00  0.00    -0.110 C  
BRANCH  18  20
HETATM   20  C   UNL     1      -9.362  12.793  67.754  1.00  0.00    -0.199 C  
BRANCH  20  21
HETATM   21  C   UNL     1      -9.532  12.047  66.445  1.00  0.00    -0.238 C  
HETATM   22  C   UNL     1     -10.530  12.263  65.562  1.00  0.00    -0.296 C  
HETATM   23  C   UNL     1     -11.665  13.235  65.744  1.00  0.00    -0.395 C  
HETATM   24  C   UNL     1     -10.573  11.536  64.259  1.00  0.00    -0.347 C  
HETATM   25  O   UNL     1     -11.499  11.697  63.476  1.00  0.00    -0.422 OA 
HETATM   26  C   UNL     1      -9.464  10.632  63.923  1.00  0.00    -0.325 A  
HETATM   27  C   UNL     1      -8.454  10.386  64.841  1.00  0.00    -0.179 A  
HETATM   28  C   UNL     1      -8.481  11.025  66.164  1.00  0.00    -0.168 C  
HETATM   29  C   UNL     1      -7.407   9.515  64.514  1.00  0.00    -0.114 A  
HETATM   30  C   UNL     1      -7.372   8.900  63.261  1.00  0.00    -0.098 A  
HETATM   31  O   UNL     1      -7.639  10.717  66.999  1.00  0.00    -0.104 OA 
HETATM   32  C   UNL     1      -8.384   9.151  62.335  1.00  0.00    -0.183 A  
HETATM   33  C   UNL     1      -9.430  10.014  62.664  1.00  0.00    -0.232 A  
ENDBRANCH  20  21
ENDBRANCH  18  20
ENDBRANCH  16  17
ENDBRANCH  15  16
ENDBRANCH  13  15
ENDBRANCH  10  11
ENDBRANCH   9  10
ENDBRANCH   5   6
ENDBRANCH   4   5
TORSDOF 9
ENDMDL
MODEL      160
REMARK 921   NORMALIZED FREE ENERGY PREDICTED BY IDOCK:   -4.93 KCAL/MOL
REMARK 922        TOTAL FREE ENERGY PREDICTED BY IDOCK:  -10.72 KCAL/MOL
REMARK 923 INTER-LIGAND FREE ENERGY PREDICTED BY IDOCK:   -9.39 KCAL/MOL
REMARK 924 INTRA-LIGAND FREE ENERGY PREDICTED BY IDOCK:   -1.33 KCAL/MOL
REMARK 927      BINDING AFFINITY PREDICTED BY RF-SCORE:    0.00 PKD
ROOT
HETATM    1  C   UNL     1      -8.558  17.541  66.315  1.00  0.00    -0.234 C  
HETATM    2  C   UNL     1      -9.960  17.093  66.720  1.00  0.00    -0.291 C  
HETATM    3  C   UNL     1     -10.402  15.916  65.844  1.00  0.00    -0.383 C  
HETATM    4  C   UNL     1      -9.983  16.759  68.224  1.00  0.00    -0.273 C  
ENDROOT
BRANCH   4   5
HETATM    5  C   UNL     1     -11.365  16.315  68.684  1.00  0.00    -0.333 C  
BRANCH   5   6
HETATM    6  C   UNL     1     -11.321  15.429  69.925  1.00  0.00    -0.318 C  
HETATM    7  C   UNL     1     -12.179  14.162  69.745  1.00  0.00    -0.397 C  
HETATM    8  C   UNL     1     -11.711  13.311  68.555  1.00  0.00    -0.388 C  
HETATM    9  C   UNL     1     -12.171  13.359  71.057  1.00  0.00    -0.312 C  
BRANCH   9  10
HETATM   10  C   UNL     1     -13.005  12.087  70.941  1.00  0.00    -0.087 C  
BRANCH  10  11
HETATM   11  C   UNL     1     -12.150  10.863  70.657  1.00  0.00    -0.468 C  
HETATM   12  C   UNL     1     -12.214   9.842  71.809  1.00  0.00    -0.449 C  
HETATM   13  C   UNL     1     -11.236   8.675  71.565  1.00  0.00    -0.360 C  
HETATM   14  C   UNL     1     -13.631   9.296  72.032  1.00  0.00    -0.519 C  
BRANCH  13  15
HETATM   15  C   UNL     1      -9.764   9.086  71.434  1.00  0.00    -0.369 C  
BRANCH  15  16
HETATM   16  C   UNL     1      -8.849   7.908  71.098  1.00  0.00    -0.150 C  
BRANCH  16  17
HETATM   17  C   UNL     1      -9.217   7.268  69.783  1.00  0.00    -0.140 C  
HETATM   18  C   UNL     1      -8.925   7.902  68.630  1.00  0.00    -0.134 C  
HETATM   19  C   UNL     1      -9.848   5.908  69.845  1.00  0.00    -0.223 C  
BRANCH  18  20
HETATM   20  C   UNL     1      -9.138   7.377  67.234  1.00  0.00    -0.135 C  
BRANCH  20  21
HETATM   21  C   UNL     1      -9.202   8.504  66.222  1.00  0.00    -0.262 C  
HETATM   22  C   UNL     1      -8.442   8.581  65.109  1.00  0.00    -0.193 C  
HETATM   23  C   UNL     1      -7.372   7.600  64.710  1.00  0.00    -0.076 C  
HETATM   24  C   UNL     1      -8.629   9.689  64.126  1.00  0.00    -0.194 C  
HETATM   25  O   UNL     1      -7.912   9.786  63.139  1.00  0.00    -0.131 OA 
HETATM   26  C   UNL     1      -9.712  10.656  64.356  1.00  0.00    -0.368 A  
HETATM   27  C   UNL     1     -10.474  10.596  65.514  1.00  0.00    -0.246 A  
HETATM   28  C   UNL     1     -10.207   9.565  66.526  1.00  0.00    -0.237 C  
HETATM   29  C   UNL     1     -11.498  11.528  65.727  1.00  0.00    -0.076 A  
HETATM   30  C   UNL     1     -11.759  12.514  64.773  1.00  0.00    -0.411 A  
HETATM   31  O   UNL     1     -10.820   9.589  67.587  1.00  0.00    -0.279 OA 
HETATM   32  C   UNL     1     -10.996  12.571  63.607  1.00  0.00    -0.507 A  
HETATM   33  C   UNL     1      -9.973  11.645  63.397  1.00  0.00    -0.447 A  
ENDBRANCH  20  21
ENDBRANCH  18  20
ENDBRANCH  16  17
ENDBRANCH  15  16
ENDBRANCH  13  15
ENDBRANCH  10  11
ENDBRANCH   9  10
ENDBRANCH   5   6
ENDBRANCH   4   5
TORSDOF 9
ENDMDL
MODEL      161
REMARK 921   NORMALIZED FREE ENERGY PREDICTED BY IDOCK:   -4.91 KCAL/MOL
REMARK 922        TOTAL FREE ENERGY PREDICTED BY IDOCK:  -10.70 KCAL/MOL
REMARK 923 INTER-LIGAND FREE ENERGY PREDICTED BY IDOCK:   -8.42 KCAL/MOL
REMARK 924 INTRA-LIGAND FREE ENERGY PREDICTED BY IDOCK:   -2.28 KCAL/MOL
REMARK 927      BINDING AFFINITY PREDICTED BY RF-SCORE:    0.00 PKD
ROOT
HETATM    1  C   UNL     1      -8.138  14.133  67.331  1.00  0.00    -0.205 C  
HETATM    2  C   UNL     1      -7.030  13.100  67.527  1.00  0.00    -0.155 C  
HETATM    3  C   UNL     1      -5.739  13.802  67.965  1.00  0.00    -0.132 C  
HETATM    4  C   UNL     1      -7.494  12.024  68.527  1.00  0.00    -0.117 C  
ENDROOT
BRANCH   4   5
HETATM    5  C   UNL     1      -6.426  10.963  68.752  1.00  0.00    -0.053 C  
BRANCH   5   6
HETATM    6  C   UNL     1      -6.618  10.194  70.055  1.00  0.00    -0.117 C  
HETATM    7  C   UNL     1      -7.878   9.307  70.008  1.00  0.00    -0.117 C  
HETATM    8  C   UNL     1      -7.815   8.276  68.871  1.00  0.00    -0.111 C  
HETATM    9  C   UNL     1      -8.070   8.633  71.377  1.00  0.00    -0.192 C  
BRANCH   9  10
HETATM   10  C   UNL     1      -9.304   7.737  71.391  1.00  0.00    -0.165 C  
BRANCH  10  11
HETATM   11  C   UNL     1     -10.530   8.455  71.932  1.00  0.00    -0.366 C  
HETATM   12  C   UNL     1     -11.780   7.555  71.902  1.00  0.00    -0.320 C  
HETATM   13  C   UNL     1     -13.036   8.342  72.323  1.00  0.00    -0.338 C  
HETATM   14  C   UNL     1     -11.626   6.309  72.784  1.00  0.00    -0.141 C  
BRANCH  13  15
HETATM   15  C   UNL     1     -13.359   9.557  71.444  1.00  0.00    -0.435 C  
BRANCH  15  16
HETATM   16  C   UNL     1     -13.769  10.784  72.259  1.00  0.00     0.148 C  
BRANCH  16  17
HETATM   17  C   UNL     1     -13.125  12.045  71.741  1.00  0.00    -0.460 C  
HETATM   18  C   UNL     1     -12.326  11.987  70.657  1.00  0.00    -0.394 C  
HETATM   19  C   UNL     1     -13.468  13.322  72.451  1.00  0.00    -0.670 C  
BRANCH  18  20
HETATM   20  C   UNL     1     -11.673  13.149  69.954  1.00  0.00    -0.327 C  
BRANCH  20  21
HETATM   21  C   UNL     1     -11.446  12.852  68.485  1.00  0.00    -0.345 C  
HETATM   22  C   UNL     1     -11.547  13.763  67.493  1.00  0.00    -0.387 C  
HETATM   23  C   UNL     1     -11.948  15.203  67.665  1.00  0.00    -0.018 C  
HETATM   24  C   UNL     1     -11.227  13.399  66.082  1.00  0.00    -0.295 C  
HETATM   25  O   UNL     1     -11.359  14.209  65.174  1.00  0.00    -0.313 OA 
HETATM   26  C   UNL     1     -10.726  12.045  65.802  1.00  0.00    -0.319 A  
HETATM   27  C   UNL     1     -10.651  11.100  66.814  1.00  0.00    -0.311 A  
HETATM   28  C   UNL     1     -11.073  11.440  68.180  1.00  0.00    -0.248 C  
HETATM   29  C   UNL     1     -10.181   9.810  66.535  1.00  0.00    -0.289 A  
HETATM   30  C   UNL     1      -9.780   9.475  65.240  1.00  0.00    -0.268 A  
HETATM   31  O   UNL     1     -11.097  10.565  69.038  1.00  0.00    -0.219 OA 
HETATM   32  C   UNL     1      -9.850  10.426  64.223  1.00  0.00    -0.388 A  
HETATM   33  C   UNL     1     -10.323  11.710  64.501  1.00  0.00    -0.349 A  
ENDBRANCH  20  21
ENDBRANCH  18  20
ENDBRANCH  16  17
ENDBRANCH  15  16
ENDBRANCH  13  15
ENDBRANCH  10  11
ENDBRANCH   9  10
ENDBRANCH   5   6
ENDBRANCH   4   5
TORSDOF 9
ENDMDL
MODEL      162
REMARK 921   NORMALIZED FREE ENERGY PREDICTED BY IDOCK:   -4.91 KCAL/MOL
REMARK 922        TOTAL FREE ENERGY PREDICTED BY IDOCK:  -10.69 KCAL/MOL
REMARK 923 INTER-LIGAND FREE ENERGY PREDICTED BY IDOCK:   -9.03 KCAL/MOL
REMARK 924 INTRA-LIGAND FREE ENERGY PREDICTED BY IDOCK:   -1.65 KCAL/MOL
REMARK 927      BINDING AFFINITY PREDICTED BY RF-SCORE:    0.00 PKD
ROOT
HETATM    1  C   UNL     1      -5.393   7.693  73.798  1.00  0.00    -0.045 C  
HETATM    2  C   UNL     1      -6.457   7.407  72.740  1.00  0.00    -0.059 C  
HETATM    3  C   UNL     1      -6.756   8.684  71.948  1.00  0.00    -0.078 C  
HETATM    4  C   UNL     1      -5.996   6.242  71.843  1.00  0.00    -0.037 C  
ENDROOT
BRANCH   4   5
HETATM    5  C   UNL     1      -7.028   5.910  70.774  1.00  0.00    -0.063 C  
BRANCH   5   6
HETATM    6  C   UNL     1      -8.411   5.628  71.352  1.00  0.00    -0.128 C  
HETATM    7  C   UNL     1      -9.487   6.522  70.705  1.00  0.00    -0.180 C  
HETATM    8  C   UNL     1      -9.572   6.315  69.185  1.00  0.00    -0.148 C  
HETATM    9  C   UNL     1     -10.838   6.260  71.392  1.00  0.00    -0.312 C  
BRANCH   9  10
HETATM   10  C   UNL     1     -11.947   7.117  70.791  1.00  0.00    -0.352 C  
BRANCH  10  11
HETATM   11  C   UNL     1     -11.934   8.537  71.334  1.00  0.00    -0.345 C  
HETATM   12  C   UNL     1     -13.334   9.178  71.292  1.00  0.00    -0.286 C  
HETATM   13  C   UNL     1     -13.274  10.659  71.716  1.00  0.00    -0.526 C  
HETATM   14  C   UNL     1     -14.349   8.428  72.163  1.00  0.00    -0.520 C  
BRANCH  13  15
HETATM   15  C   UNL     1     -12.370  11.541  70.846  1.00  0.00    -0.460 C  
BRANCH  15  16
HETATM   16  C   UNL     1     -12.650  13.034  71.026  1.00  0.00    -0.386 C  
BRANCH  16  17
HETATM   17  C   UNL     1     -12.000  13.862  69.947  1.00  0.00    -0.405 C  
HETATM   18  C   UNL     1     -11.291  13.253  68.977  1.00  0.00    -0.334 C  
HETATM   19  C   UNL     1     -12.238  15.343  69.995  1.00  0.00    -0.392 C  
BRANCH  18  20
HETATM   20  C   UNL     1     -10.651  13.908  67.781  1.00  0.00    -0.248 C  
BRANCH  20  21
HETATM   21  C   UNL     1     -10.649  12.985  66.578  1.00  0.00    -0.292 C  
HETATM   22  C   UNL     1     -11.560  13.020  65.582  1.00  0.00    -0.391 C  
HETATM   23  C   UNL     1     -12.754  13.936  65.519  1.00  0.00    -0.536 C  
HETATM   24  C   UNL     1     -11.435  12.124  64.395  1.00  0.00    -0.350 C  
HETATM   25  O   UNL     1     -12.282  12.122  63.512  1.00  0.00    -0.519 OA 
HETATM   26  C   UNL     1     -10.254  11.254  64.294  1.00  0.00    -0.383 A  
HETATM   27  C   UNL     1      -9.334  11.195  65.329  1.00  0.00    -0.243 A  
HETATM   28  C   UNL     1      -9.527  12.002  66.542  1.00  0.00    -0.228 C  
HETATM   29  C   UNL     1      -8.217  10.355  65.227  1.00  0.00    -0.162 A  
HETATM   30  C   UNL     1      -8.024   9.582  64.080  1.00  0.00    -0.137 A  
HETATM   31  O   UNL     1      -8.761  11.861  67.488  1.00  0.00    -0.151 OA 
HETATM   32  C   UNL     1      -8.947   9.644  63.037  1.00  0.00    -0.257 A  
HETATM   33  C   UNL     1     -10.062  10.478  63.142  1.00  0.00    -0.081 A  
ENDBRANCH  20  21
ENDBRANCH  18  20
ENDBRANCH  16  17
ENDBRANCH  15  16
ENDBRANCH  13  15
ENDBRANCH  10  11
ENDBRANCH   9  10
ENDBRANCH   5   6
ENDBRANCH   4   5
TORSDOF 9
ENDMDL
MODEL      163
REMARK 921   NORMALIZED FREE ENERGY PREDICTED BY IDOCK:   -4.90 KCAL/MOL
REMARK 922        TOTAL FREE ENERGY PREDICTED BY IDOCK:  -10.69 KCAL/MOL
REMARK 923 INTER-LIGAND FREE ENERGY PREDICTED BY IDOCK:   -7.94 KCAL/MOL
REMARK 924 INTRA-LIGAND FREE ENERGY PREDICTED BY IDOCK:   -2.75 KCAL/MOL
REMARK 927      BINDING AFFINITY PREDICTED BY RF-SCORE:    0.00 PKD
ROOT
HETATM    1  C   UNL     1     -10.097  10.638  64.072  1.00  0.00    -0.378 C  
HETATM    2  C   UNL     1      -9.004   9.599  64.309  1.00  0.00    -0.269 C  
HETATM    3  C   UNL     1      -8.391   9.175  62.970  1.00  0.00    -0.196 C  
HETATM    4  C   UNL     1      -7.960  10.160  65.293  1.00  0.00    -0.145 C  
ENDROOT
BRANCH   4   5
HETATM    5  C   UNL     1      -6.848   9.157  65.572  1.00  0.00    -0.073 C  
BRANCH   5   6
HETATM    6  C   UNL     1      -6.881   8.619  66.999  1.00  0.00    -0.067 C  
HETATM    7  C   UNL     1      -7.585   7.250  67.070  1.00  0.00    -0.106 C  
HETATM    8  C   UNL     1      -6.888   6.196  66.196  1.00  0.00    -0.061 C  
HETATM    9  C   UNL     1      -7.670   6.803  68.540  1.00  0.00    -0.113 C  
BRANCH   9  10
HETATM   10  C   UNL     1      -8.358   5.449  68.674  1.00  0.00    -0.093 C  
BRANCH  10  11
HETATM   11  C   UNL     1      -9.571   5.508  69.589  1.00  0.00    -0.210 C  
HETATM   12  C   UNL     1     -10.596   6.553  69.111  1.00  0.00    -0.286 C  
HETATM   13  C   UNL     1     -11.750   6.696  70.123  1.00  0.00    -0.412 C  
HETATM   14  C   UNL     1     -11.160   6.230  67.721  1.00  0.00    -0.361 C  
BRANCH  13  15
HETATM   15  C   UNL     1     -11.321   7.125  71.532  1.00  0.00    -0.285 C  
BRANCH  15  16
HETATM   16  C   UNL     1     -11.098   8.634  71.648  1.00  0.00    -0.375 C  
BRANCH  16  17
HETATM   17  C   UNL     1      -9.799   9.062  71.013  1.00  0.00    -0.352 C  
HETATM   18  C   UNL     1      -9.819   9.914  69.969  1.00  0.00    -0.291 C  
HETATM   19  C   UNL     1      -8.538   8.542  71.635  1.00  0.00    -0.247 C  
BRANCH  18  20
HETATM   20  C   UNL     1      -8.625  10.512  69.271  1.00  0.00    -0.136 C  
BRANCH  20  21
HETATM   21  C   UNL     1      -9.021  11.695  68.409  1.00  0.00    -0.176 C  
HETATM   22  C   UNL     1      -8.219  12.743  68.127  1.00  0.00    -0.167 C  
HETATM   23  C   UNL     1      -6.823  12.945  68.656  1.00  0.00    -0.099 C  
HETATM   24  C   UNL     1      -8.666  13.826  67.203  1.00  0.00    -0.221 C  
HETATM   25  O   UNL     1      -7.959  14.799  66.980  1.00  0.00    -0.200 OA 
HETATM   26  C   UNL     1      -9.973  13.691  66.544  1.00  0.00    -0.288 A  
HETATM   27  C   UNL     1     -10.811  12.631  66.855  1.00  0.00    -0.282 A  
HETATM   28  C   UNL     1     -10.404  11.629  67.850  1.00  0.00    -0.188 C  
HETATM   29  C   UNL     1     -12.059  12.517  66.228  1.00  0.00    -0.315 A  
HETATM   30  C   UNL     1     -12.458  13.464  65.283  1.00  0.00    -0.532 A  
HETATM   31  O   UNL     1     -11.197  10.758  68.188  1.00  0.00    -0.260 OA 
HETATM   32  C   UNL     1     -11.614  14.527  64.967  1.00  0.00    -0.382 A  
HETATM   33  C   UNL     1     -10.373  14.644  65.595  1.00  0.00    -0.370 A  
ENDBRANCH  20  21
ENDBRANCH  18  20
ENDBRANCH  16  17
ENDBRANCH  15  16
ENDBRANCH  13  15
ENDBRANCH  10  11
ENDBRANCH   9  10
ENDBRANCH   5   6
ENDBRANCH   4   5
TORSDOF 9
ENDMDL
MODEL      164
REMARK 921   NORMALIZED FREE ENERGY PREDICTED BY IDOCK:   -4.90 KCAL/MOL
REMARK 922        TOTAL FREE ENERGY PREDICTED BY IDOCK:  -10.68 KCAL/MOL
REMARK 923 INTER-LIGAND FREE ENERGY PREDICTED BY IDOCK:   -9.16 KCAL/MOL
REMARK 924 INTRA-LIGAND FREE ENERGY PREDICTED BY IDOCK:   -1.53 KCAL/MOL
REMARK 927      BINDING AFFINITY PREDICTED BY RF-SCORE:    0.00 PKD
ROOT
HETATM    1  C   UNL     1      -8.106   3.732  64.547  1.00  0.00    -0.086 C  
HETATM    2  C   UNL     1      -8.084   4.127  66.022  1.00  0.00    -0.098 C  
HETATM    3  C   UNL     1      -7.694   5.602  66.159  1.00  0.00    -0.095 C  
HETATM    4  C   UNL     1      -9.448   3.808  66.664  1.00  0.00    -0.212 C  
ENDROOT
BRANCH   4   5
HETATM    5  C   UNL     1      -9.477   4.175  68.142  1.00  0.00    -0.215 C  
BRANCH   5   6
HETATM    6  C   UNL     1     -10.408   5.345  68.444  1.00  0.00    -0.216 C  
HETATM    7  C   UNL     1     -10.538   5.587  69.960  1.00  0.00    -0.384 C  
HETATM    8  C   UNL     1      -9.182   5.896  70.614  1.00  0.00    -0.167 C  
HETATM    9  C   UNL     1     -11.557   6.713  70.205  1.00  0.00    -0.454 C  
BRANCH   9  10
HETATM   10  C   UNL     1     -11.727   7.000  71.693  1.00  0.00    -0.332 C  
BRANCH  10  11
HETATM   11  C   UNL     1     -11.785   8.490  71.988  1.00  0.00    -0.431 C  
HETATM   12  C   UNL     1     -13.101   9.120  71.495  1.00  0.00    -0.409 C  
HETATM   13  C   UNL     1     -13.082  10.650  71.678  1.00  0.00    -0.555 C  
HETATM   14  C   UNL     1     -14.333   8.527  72.192  1.00  0.00    -0.529 C  
BRANCH  13  15
HETATM   15  C   UNL     1     -11.952  11.373  70.934  1.00  0.00    -0.271 C  
BRANCH  15  16
HETATM   16  C   UNL     1     -12.199  11.463  69.427  1.00  0.00    -0.288 C  
BRANCH  16  17
HETATM   17  C   UNL     1     -10.934  11.768  68.666  1.00  0.00    -0.269 C  
HETATM   18  C   UNL     1     -10.947  12.712  67.705  1.00  0.00    -0.275 C  
HETATM   19  C   UNL     1      -9.700  11.021  69.078  1.00  0.00    -0.151 C  
BRANCH  18  20
HETATM   20  C   UNL     1      -9.767  13.206  66.909  1.00  0.00    -0.243 C  
BRANCH  20  21
HETATM   21  C   UNL     1      -9.474  14.665  67.197  1.00  0.00    -0.234 C  
HETATM   22  C   UNL     1      -8.500  15.104  68.023  1.00  0.00    -0.148 C  
HETATM   23  C   UNL     1      -7.578  14.231  68.832  1.00  0.00    -0.113 C  
HETATM   24  C   UNL     1      -8.231  16.563  68.186  1.00  0.00    -0.181 C  
HETATM   25  O   UNL     1      -7.379  16.966  68.966  1.00  0.00    -0.232 OA 
HETATM   26  C   UNL     1      -9.001  17.514  67.370  1.00  0.00    -0.230 A  
HETATM   27  C   UNL     1     -10.022  17.066  66.545  1.00  0.00    -0.318 A  
HETATM   28  C   UNL     1     -10.349  15.635  66.477  1.00  0.00    -0.291 C  
HETATM   29  C   UNL     1     -10.756  17.982  65.779  1.00  0.00    -0.091 A  
HETATM   30  C   UNL     1     -10.456  19.344  65.838  1.00  0.00    -0.561 A  
HETATM   31  O   UNL     1     -11.319  15.269  65.823  1.00  0.00    -0.293 OA 
HETATM   32  C   UNL     1      -9.427  19.794  66.664  1.00  0.00    -0.491 A  
HETATM   33  C   UNL     1      -8.699  18.882  67.430  1.00  0.00    -0.293 A  
ENDBRANCH  20  21
ENDBRANCH  18  20
ENDBRANCH  16  17
ENDBRANCH  15  16
ENDBRANCH  13  15
ENDBRANCH  10  11
ENDBRANCH   9  10
ENDBRANCH   5   6
ENDBRANCH   4   5
TORSDOF 9
ENDMDL
MODEL      165
REMARK 921   NORMALIZED FREE ENERGY PREDICTED BY IDOCK:   -4.89 KCAL/MOL
REMARK 922        TOTAL FREE ENERGY PREDICTED BY IDOCK:  -10.67 KCAL/MOL
REMARK 923 INTER-LIGAND FREE ENERGY PREDICTED BY IDOCK:   -8.35 KCAL/MOL
REMARK 924 INTRA-LIGAND FREE ENERGY PREDICTED BY IDOCK:   -2.32 KCAL/MOL
REMARK 927      BINDING AFFINITY PREDICTED BY RF-SCORE:    0.00 PKD
ROOT
HETATM    1  C   UNL     1      -6.015   9.396  70.412  1.00  0.00    -0.051 C  
HETATM    2  C   UNL     1      -6.565  10.696  69.829  1.00  0.00    -0.121 C  
HETATM    3  C   UNL     1      -5.881  11.894  70.495  1.00  0.00    -0.125 C  
HETATM    4  C   UNL     1      -6.397  10.688  68.297  1.00  0.00    -0.054 C  
ENDROOT
BRANCH   4   5
HETATM    5  C   UNL     1      -6.940  11.962  67.663  1.00  0.00    -0.112 C  
BRANCH   5   6
HETATM    6  C   UNL     1      -5.948  13.120  67.717  1.00  0.00    -0.148 C  
HETATM    7  C   UNL     1      -6.668  14.472  67.883  1.00  0.00    -0.176 C  
HETATM    8  C   UNL     1      -7.508  14.524  69.169  1.00  0.00    -0.118 C  
HETATM    9  C   UNL     1      -5.628  15.605  67.837  1.00  0.00    -0.152 C  
BRANCH   9  10
HETATM   10  C   UNL     1      -6.282  16.973  68.000  1.00  0.00    -0.142 C  
BRANCH  10  11
HETATM   11  C   UNL     1      -7.559  17.100  67.184  1.00  0.00    -0.203 C  
HETATM   12  C   UNL     1      -8.690  17.763  67.993  1.00  0.00    -0.251 C  
HETATM   13  C   UNL     1     -10.011  17.758  67.199  1.00  0.00    -0.322 C  
HETATM   14  C   UNL     1      -8.344  19.196  68.420  1.00  0.00    -0.384 C  
BRANCH  13  15
HETATM   15  C   UNL     1     -10.520  16.365  66.807  1.00  0.00    -0.273 C  
BRANCH  15  16
HETATM   16  C   UNL     1     -10.320  16.058  65.323  1.00  0.00    -0.319 C  
BRANCH  16  17
HETATM   17  C   UNL     1     -10.986  14.767  64.919  1.00  0.00    -0.425 C  
HETATM   18  C   UNL     1     -10.320  13.604  65.056  1.00  0.00    -0.393 C  
HETATM   19  C   UNL     1     -12.402  14.859  64.433  1.00  0.00    -0.342 C  
BRANCH  18  20
HETATM   20  C   UNL     1     -10.854  12.221  64.788  1.00  0.00    -0.345 C  
BRANCH  20  21
HETATM   21  C   UNL     1     -10.681  11.317  65.992  1.00  0.00    -0.301 C  
HETATM   22  C   UNL     1      -9.824  10.276  66.053  1.00  0.00    -0.292 C  
HETATM   23  C   UNL     1      -8.937   9.804  64.931  1.00  0.00    -0.257 C  
HETATM   24  C   UNL     1      -9.662   9.487  67.310  1.00  0.00    -0.167 C  
HETATM   25  O   UNL     1      -8.918   8.516  67.356  1.00  0.00    -0.132 OA 
HETATM   26  C   UNL     1     -10.401   9.914  68.507  1.00  0.00    -0.221 A  
HETATM   27  C   UNL     1     -11.304  10.964  68.438  1.00  0.00    -0.370 A  
HETATM   28  C   UNL     1     -11.536  11.662  67.166  1.00  0.00    -0.271 C  
HETATM   29  C   UNL     1     -12.011  11.356  69.582  1.00  0.00    -0.416 A  
HETATM   30  C   UNL     1     -11.802  10.698  70.796  1.00  0.00    -0.459 A  
HETATM   31  O   UNL     1     -12.411  12.518  67.099  1.00  0.00    -0.376 OA 
HETATM   32  C   UNL     1     -10.890   9.646  70.867  1.00  0.00    -0.409 A  
HETATM   33  C   UNL     1     -10.190   9.251  69.725  1.00  0.00    -0.225 A  
ENDBRANCH  20  21
ENDBRANCH  18  20
ENDBRANCH  16  17
ENDBRANCH  15  16
ENDBRANCH  13  15
ENDBRANCH  10  11
ENDBRANCH   9  10
ENDBRANCH   5   6
ENDBRANCH   4   5
TORSDOF 9
ENDMDL
MODEL      166
REMARK 921   NORMALIZED FREE ENERGY PREDICTED BY IDOCK:   -4.89 KCAL/MOL
REMARK 922        TOTAL FREE ENERGY PREDICTED BY IDOCK:  -10.67 KCAL/MOL
REMARK 923 INTER-LIGAND FREE ENERGY PREDICTED BY IDOCK:   -7.61 KCAL/MOL
REMARK 924 INTRA-LIGAND FREE ENERGY PREDICTED BY IDOCK:   -3.06 KCAL/MOL
REMARK 927      BINDING AFFINITY PREDICTED BY RF-SCORE:    0.00 PKD
ROOT
HETATM    1  C   UNL     1     -10.760   3.079  62.335  1.00  0.00    -0.162 C  
HETATM    2  C   UNL     1     -10.165   2.717  63.695  1.00  0.00    -0.173 C  
HETATM    3  C   UNL     1      -8.781   2.088  63.504  1.00  0.00    -0.084 C  
HETATM    4  C   UNL     1     -10.134   3.966  64.596  1.00  0.00    -0.219 C  
ENDROOT
BRANCH   4   5
HETATM    5  C   UNL     1      -9.557   3.658  65.970  1.00  0.00    -0.143 C  
BRANCH   5   6
HETATM    6  C   UNL     1      -8.777   4.828  66.562  1.00  0.00    -0.111 C  
HETATM    7  C   UNL     1      -9.598   6.132  66.522  1.00  0.00    -0.183 C  
HETATM    8  C   UNL     1     -10.913   6.010  67.307  1.00  0.00    -0.356 C  
HETATM    9  C   UNL     1      -8.729   7.290  67.043  1.00  0.00    -0.123 C  
BRANCH   9  10
HETATM   10  C   UNL     1      -9.491   8.611  67.029  1.00  0.00    -0.221 C  
BRANCH  10  11
HETATM   11  C   UNL     1      -9.863   9.046  65.620  1.00  0.00    -0.086 C  
HETATM   12  C   UNL     1      -9.042  10.267  65.164  1.00  0.00    -0.234 C  
HETATM   13  C   UNL     1      -9.529  10.776  63.793  1.00  0.00    -0.320 C  
HETATM   14  C   UNL     1      -7.537   9.974  65.107  1.00  0.00    -0.138 C  
BRANCH  13  15
HETATM   15  C   UNL     1     -11.001  11.206  63.751  1.00  0.00    -0.256 C  
BRANCH  15  16
HETATM   16  C   UNL     1     -11.174  12.725  63.770  1.00  0.00    -0.496 C  
BRANCH  16  17
HETATM   17  C   UNL     1     -10.973  13.298  65.150  1.00  0.00    -0.314 C  
HETATM   18  C   UNL     1     -11.371  12.592  66.227  1.00  0.00    -0.386 C  
HETATM   19  C   UNL     1     -10.277  14.623  65.238  1.00  0.00    -0.421 C  
BRANCH  18  20
HETATM   20  C   UNL     1     -11.174  12.965  67.673  1.00  0.00    -0.317 C  
BRANCH  20  21
HETATM   21  C   UNL     1     -10.283  11.968  68.387  1.00  0.00    -0.211 C  
HETATM   22  C   UNL     1      -8.935  11.948  68.308  1.00  0.00    -0.178 C  
HETATM   23  C   UNL     1      -8.094  12.869  67.465  1.00  0.00    -0.181 C  
HETATM   24  C   UNL     1      -8.133  10.977  69.109  1.00  0.00    -0.061 C  
HETATM   25  O   UNL     1      -6.915  10.927  69.007  1.00  0.00    -0.072 OA 
HETATM   26  C   UNL     1      -8.837  10.091  70.048  1.00  0.00    -0.117 A  
HETATM   27  C   UNL     1     -10.223  10.090  70.108  1.00  0.00    -0.297 A  
HETATM   28  C   UNL     1     -11.005  10.974  69.234  1.00  0.00    -0.252 C  
HETATM   29  C   UNL     1     -10.883   9.234  70.999  1.00  0.00    -0.385 A  
HETATM   30  C   UNL     1     -10.151   8.388  71.833  1.00  0.00    -0.337 A  
HETATM   31  O   UNL     1     -12.228  10.886  69.227  1.00  0.00    -0.364 OA 
HETATM   32  C   UNL     1      -8.757   8.392  71.776  1.00  0.00    -0.241 A  
HETATM   33  C   UNL     1      -8.099   9.241  70.885  1.00  0.00    -0.168 A  
ENDBRANCH  20  21
ENDBRANCH  18  20
ENDBRANCH  16  17
ENDBRANCH  15  16
ENDBRANCH  13  15
ENDBRANCH  10  11
ENDBRANCH   9  10
ENDBRANCH   5   6
ENDBRANCH   4   5
TORSDOF 9
ENDMDL
MODEL      167
REMARK 921   NORMALIZED FREE ENERGY PREDICTED BY IDOCK:   -4.89 KCAL/MOL
REMARK 922        TOTAL FREE ENERGY PREDICTED BY IDOCK:  -10.67 KCAL/MOL
REMARK 923 INTER-LIGAND FREE ENERGY PREDICTED BY IDOCK:   -8.16 KCAL/MOL
REMARK 924 INTRA-LIGAND FREE ENERGY PREDICTED BY IDOCK:   -2.51 KCAL/MOL
REMARK 927      BINDING AFFINITY PREDICTED BY RF-SCORE:    0.00 PKD
ROOT
HETATM    1  C   UNL     1      -9.232  16.238  67.427  1.00  0.00    -0.217 C  
HETATM    2  C   UNL     1      -8.199  15.125  67.265  1.00  0.00    -0.234 C  
HETATM    3  C   UNL     1      -6.786  15.713  67.351  1.00  0.00    -0.231 C  
HETATM    4  C   UNL     1      -8.452  14.025  68.314  1.00  0.00    -0.171 C  
ENDROOT
BRANCH   4   5
HETATM    5  C   UNL     1      -7.452  12.884  68.190  1.00  0.00    -0.126 C  
BRANCH   5   6
HETATM    6  C   UNL     1      -8.102  11.569  67.769  1.00  0.00    -0.133 C  
HETATM    7  C   UNL     1      -7.280  10.355  68.244  1.00  0.00    -0.083 C  
HETATM    8  C   UNL     1      -7.127  10.325  69.772  1.00  0.00    -0.140 C  
HETATM    9  C   UNL     1      -7.931   9.067  67.711  1.00  0.00    -0.101 C  
BRANCH   9  10
HETATM   10  C   UNL     1      -7.161   7.827  68.153  1.00  0.00    -0.085 C  
BRANCH  10  11
HETATM   11  C   UNL     1      -8.073   6.761  68.737  1.00  0.00    -0.120 C  
HETATM   12  C   UNL     1      -9.423   6.695  67.997  1.00  0.00    -0.118 C  
HETATM   13  C   UNL     1     -10.383   5.708  68.689  1.00  0.00    -0.277 C  
HETATM   14  C   UNL     1      -9.264   6.318  66.519  1.00  0.00    -0.169 C  
BRANCH  13  15
HETATM   15  C   UNL     1     -10.707   6.044  70.150  1.00  0.00    -0.379 C  
BRANCH  15  16
HETATM   16  C   UNL     1     -11.877   7.020  70.287  1.00  0.00    -0.243 C  
BRANCH  16  17
HETATM   17  C   UNL     1     -11.434   8.357  70.825  1.00  0.00    -0.277 C  
HETATM   18  C   UNL     1     -11.625   9.467  70.086  1.00  0.00    -0.156 C  
HETATM   19  C   UNL     1     -10.845   8.370  72.205  1.00  0.00    -0.422 C  
BRANCH  18  20
HETATM   20  C   UNL     1     -11.327  10.886  70.497  1.00  0.00    -0.212 C  
BRANCH  20  21
HETATM   21  C   UNL     1     -11.608  11.860  69.370  1.00  0.00    -0.388 C  
HETATM   22  C   UNL     1     -11.962  13.152  69.542  1.00  0.00    -0.354 C  
HETATM   23  C   UNL     1     -12.188  13.829  70.867  1.00  0.00    -0.427 C  
HETATM   24  C   UNL     1     -12.142  14.061  68.372  1.00  0.00    -0.283 C  
HETATM   25  O   UNL     1     -12.506  15.220  68.522  1.00  0.00     0.093 OA 
HETATM   26  C   UNL     1     -11.852  13.541  67.027  1.00  0.00    -0.447 A  
HETATM   27  C   UNL     1     -11.518  12.207  66.847  1.00  0.00    -0.414 A  
HETATM   28  C   UNL     1     -11.451  11.295  67.997  1.00  0.00    -0.298 C  
HETATM   29  C   UNL     1     -11.252  11.720  65.561  1.00  0.00    -0.316 A  
HETATM   30  C   UNL     1     -11.315  12.576  64.459  1.00  0.00    -0.379 A  
HETATM   31  O   UNL     1     -11.255  10.100  67.809  1.00  0.00    -0.289 OA 
HETATM   32  C   UNL     1     -11.647  13.918  64.641  1.00  0.00    -0.398 A  
HETATM   33  C   UNL     1     -11.916  14.402  65.922  1.00  0.00    -0.367 A  
ENDBRANCH  20  21
ENDBRANCH  18  20
ENDBRANCH  16  17
ENDBRANCH  15  16
ENDBRANCH  13  15
ENDBRANCH  10  11
ENDBRANCH   9  10
ENDBRANCH   5   6
ENDBRANCH   4   5
TORSDOF 9
ENDMDL
MODEL      168
REMARK 921   NORMALIZED FREE ENERGY PREDICTED BY IDOCK:   -4.88 KCAL/MOL
REMARK 922        TOTAL FREE ENERGY PREDICTED BY IDOCK:  -10.64 KCAL/MOL
REMARK 923 INTER-LIGAND FREE ENERGY PREDICTED BY IDOCK:   -7.16 KCAL/MOL
REMARK 924 INTRA-LIGAND FREE ENERGY PREDICTED BY IDOCK:   -3.49 KCAL/MOL
REMARK 927      BINDING AFFINITY PREDICTED BY RF-SCORE:    0.00 PKD
ROOT
HETATM    1  C   UNL     1      -9.174   2.673  70.786  1.00  0.00    -0.203 C  
HETATM    2  C   UNL     1      -8.885   3.481  69.523  1.00  0.00    -0.148 C  
HETATM    3  C   UNL     1      -7.387   3.795  69.439  1.00  0.00    -0.052 C  
HETATM    4  C   UNL     1      -9.405   2.717  68.289  1.00  0.00    -0.258 C  
ENDROOT
BRANCH   4   5
HETATM    5  C   UNL     1      -9.149   3.485  66.999  1.00  0.00    -0.188 C  
BRANCH   5   6
HETATM    6  C   UNL     1     -10.157   4.607  66.768  1.00  0.00    -0.246 C  
HETATM    7  C   UNL     1      -9.504   5.994  66.924  1.00  0.00    -0.146 C  
HETATM    8  C   UNL     1      -8.348   6.202  65.934  1.00  0.00    -0.140 C  
HETATM    9  C   UNL     1     -10.585   7.078  66.772  1.00  0.00    -0.297 C  
BRANCH   9  10
HETATM   10  C   UNL     1      -9.997   8.478  66.915  1.00  0.00    -0.335 C  
BRANCH  10  11
HETATM   11  C   UNL     1     -10.532   9.437  65.863  1.00  0.00     0.231 C  
HETATM   12  C   UNL     1      -9.680  10.717  65.770  1.00  0.00    -0.272 C  
HETATM   13  C   UNL     1     -10.316  11.732  64.800  1.00  0.00    -0.333 C  
HETATM   14  C   UNL     1      -8.234  10.429  65.348  1.00  0.00    -0.159 C  
BRANCH  13  15
HETATM   15  C   UNL     1     -11.733  12.183  65.179  1.00  0.00    -0.366 C  
BRANCH  15  16
HETATM   16  C   UNL     1     -11.793  13.653  65.597  1.00  0.00    -0.387 C  
BRANCH  16  17
HETATM   17  C   UNL     1     -11.695  13.818  67.092  1.00  0.00    -0.417 C  
HETATM   18  C   UNL     1     -11.887  12.751  67.893  1.00  0.00    -0.392 C  
HETATM   19  C   UNL     1     -11.327  15.181  67.601  1.00  0.00    -0.327 C  
BRANCH  18  20
HETATM   20  C   UNL     1     -11.744  12.711  69.392  1.00  0.00    -0.387 C  
BRANCH  20  21
HETATM   21  C   UNL     1     -11.124  11.408  69.855  1.00  0.00    -0.134 C  
HETATM   22  C   UNL     1     -11.753  10.487  70.617  1.00  0.00    -0.453 C  
HETATM   23  C   UNL     1     -13.145  10.615  71.176  1.00  0.00    -0.415 C  
HETATM   24  C   UNL     1     -11.091   9.193  70.960  1.00  0.00    -0.305 C  
HETATM   25  O   UNL     1     -11.641   8.376  71.686  1.00  0.00    -0.260 OA 
HETATM   26  C   UNL     1      -9.767   8.909  70.389  1.00  0.00    -0.226 A  
HETATM   27  C   UNL     1      -9.108   9.866  69.632  1.00  0.00    -0.245 A  
HETATM   28  C   UNL     1      -9.724  11.178  69.392  1.00  0.00     0.175 C  
HETATM   29  C   UNL     1      -7.842   9.588  69.100  1.00  0.00    -0.082 A  
HETATM   30  C   UNL     1      -7.244   8.346  69.323  1.00  0.00    -0.063 A  
HETATM   31  O   UNL     1      -9.086  12.047  68.810  1.00  0.00    -0.068 OA 
HETATM   32  C   UNL     1      -7.909   7.382  70.080  1.00  0.00    -0.099 A  
HETATM   33  C   UNL     1      -9.168   7.661  70.614  1.00  0.00    -0.162 A  
ENDBRANCH  20  21
ENDBRANCH  18  20
ENDBRANCH  16  17
ENDBRANCH  15  16
ENDBRANCH  13  15
ENDBRANCH  10  11
ENDBRANCH   9  10
ENDBRANCH   5   6
ENDBRANCH   4   5
TORSDOF 9
ENDMDL
MODEL      169
REMARK 921   NORMALIZED FREE ENERGY PREDICTED BY IDOCK:   -4.87 KCAL/MOL
REMARK 922        TOTAL FREE ENERGY PREDICTED BY IDOCK:  -10.64 KCAL/MOL
REMARK 923 INTER-LIGAND FREE ENERGY PREDICTED BY IDOCK:   -8.09 KCAL/MOL
REMARK 924 INTRA-LIGAND FREE ENERGY PREDICTED BY IDOCK:   -2.55 KCAL/MOL
REMARK 927      BINDING AFFINITY PREDICTED BY RF-SCORE:    0.00 PKD
ROOT
HETATM    1  C   UNL     1     -14.268  15.456  72.319  1.00  0.00    -0.639 C  
HETATM    2  C   UNL     1     -13.082  15.602  71.369  1.00  0.00    -0.559 C  
HETATM    3  C   UNL     1     -11.840  16.038  72.153  1.00  0.00    -0.623 C  
HETATM    4  C   UNL     1     -12.870  14.284  70.599  1.00  0.00    -0.378 C  
ENDROOT
BRANCH   4   5
HETATM    5  C   UNL     1     -11.700  14.378  69.628  1.00  0.00    -0.362 C  
BRANCH   5   6
HETATM    6  C   UNL     1     -11.819  13.403  68.461  1.00  0.00    -0.401 C  
HETATM    7  C   UNL     1     -11.168  12.046  68.790  1.00  0.00    -0.316 C  
HETATM    8  C   UNL     1     -11.811  11.378  70.015  1.00  0.00    -0.440 C  
HETATM    9  C   UNL     1     -11.235  11.141  67.547  1.00  0.00    -0.369 C  
BRANCH   9  10
HETATM   10  C   UNL     1     -10.606   9.777  67.813  1.00  0.00    -0.320 C  
BRANCH  10  11
HETATM   11  C   UNL     1     -10.077   9.131  66.542  1.00  0.00    -0.357 C  
HETATM   12  C   UNL     1      -9.678   7.661  66.773  1.00  0.00    -0.290 C  
HETATM   13  C   UNL     1      -9.018   7.066  65.513  1.00  0.00     0.097 C  
HETATM   14  C   UNL     1     -10.867   6.790  67.199  1.00  0.00    -0.462 C  
BRANCH  13  15
HETATM   15  C   UNL     1      -7.748   7.790  65.049  1.00  0.00    -0.107 C  
BRANCH  15  16
HETATM   16  C   UNL     1      -6.517   6.883  65.049  1.00  0.00    -0.043 C  
BRANCH  16  17
HETATM   17  C   UNL     1      -6.381   6.118  66.341  1.00  0.00    -0.045 C  
HETATM   18  C   UNL     1      -6.296   6.791  67.506  1.00  0.00    -0.044 C  
HETATM   19  C   UNL     1      -6.405   4.621  66.248  1.00  0.00    -0.036 C  
BRANCH  18  20
HETATM   20  C   UNL     1      -6.244   6.196  68.889  1.00  0.00    -0.036 C  
BRANCH  20  21
HETATM   21  C   UNL     1      -7.622   6.125  69.515  1.00  0.00    -0.094 C  
HETATM   22  C   UNL     1      -8.338   4.990  69.670  1.00  0.00    -0.088 C  
HETATM   23  C   UNL     1      -7.919   3.620  69.207  1.00  0.00    -0.060 C  
HETATM   24  C   UNL     1      -9.656   5.004  70.371  1.00  0.00    -0.193 C  
HETATM   25  O   UNL     1     -10.327   3.985  70.475  1.00  0.00     0.099 OA 
HETATM   26  C   UNL     1     -10.126   6.267  70.957  1.00  0.00    -0.221 A  
HETATM   27  C   UNL     1      -9.407   7.438  70.773  1.00  0.00    -0.159 A  
HETATM   28  C   UNL     1      -8.166   7.432  69.987  1.00  0.00    -0.131 C  
HETATM   29  C   UNL     1      -9.870   8.639  71.328  1.00  0.00    -0.307 A  
HETATM   30  C   UNL     1     -11.050   8.658  72.075  1.00  0.00    -0.437 A  
HETATM   31  O   UNL     1      -7.599   8.492  69.747  1.00  0.00    -0.079 OA 
HETATM   32  C   UNL     1     -11.770   7.479  72.265  1.00  0.00    -0.348 A  
HETATM   33  C   UNL     1     -11.312   6.284  71.707  1.00  0.00    -0.346 A  
ENDBRANCH  20  21
ENDBRANCH  18  20
ENDBRANCH  16  17
ENDBRANCH  15  16
ENDBRANCH  13  15
ENDBRANCH  10  11
ENDBRANCH   9  10
ENDBRANCH   5   6
ENDBRANCH   4   5
TORSDOF 9
ENDMDL
MODEL      170
REMARK 921   NORMALIZED FREE ENERGY PREDICTED BY IDOCK:   -4.86 KCAL/MOL
REMARK 922        TOTAL FREE ENERGY PREDICTED BY IDOCK:  -10.62 KCAL/MOL
REMARK 923 INTER-LIGAND FREE ENERGY PREDICTED BY IDOCK:   -7.63 KCAL/MOL
REMARK 924 INTRA-LIGAND FREE ENERGY PREDICTED BY IDOCK:   -2.99 KCAL/MOL
REMARK 927      BINDING AFFINITY PREDICTED BY RF-SCORE:    0.00 PKD
ROOT
HETATM    1  C   UNL     1     -11.520  15.893  71.206  1.00  0.00    -0.489 C  
HETATM    2  C   UNL     1     -11.635  15.217  69.841  1.00  0.00    -0.329 C  
HETATM    3  C   UNL     1     -10.327  15.396  69.062  1.00  0.00    -0.243 C  
HETATM    4  C   UNL     1     -12.021  13.737  70.027  1.00  0.00    -0.407 C  
ENDROOT
BRANCH   4   5
HETATM    5  C   UNL     1     -12.158  13.016  68.693  1.00  0.00    -0.189 C  
BRANCH   5   6
HETATM    6  C   UNL     1     -11.786  11.539  68.776  1.00  0.00    -0.394 C  
HETATM    7  C   UNL     1     -11.545  11.099  70.233  1.00  0.00    -0.388 C  
HETATM    8  C   UNL     1     -12.785  11.312  71.114  1.00  0.00    -0.492 C  
HETATM    9  C   UNL     1     -11.084   9.631  70.245  1.00  0.00    -0.327 C  
BRANCH   9  10
HETATM   10  C   UNL     1     -10.830   9.136  71.665  1.00  0.00    -0.442 C  
BRANCH  10  11
HETATM   11  C   UNL     1     -10.706   7.622  71.732  1.00  0.00    -0.252 C  
HETATM   12  C   UNL     1     -11.974   6.970  72.315  1.00  0.00    -0.250 C  
HETATM   13  C   UNL     1     -11.777   5.453  72.504  1.00  0.00    -0.176 C  
HETATM   14  C   UNL     1     -13.217   7.230  71.454  1.00  0.00    -0.404 C  
BRANCH  13  15
HETATM   15  C   UNL     1     -10.624   5.066  73.439  1.00  0.00    -0.298 C  
BRANCH  15  16
HETATM   16  C   UNL     1      -9.818   3.873  72.922  1.00  0.00    -0.191 C  
BRANCH  16  17
HETATM   17  C   UNL     1      -9.115   4.188  71.626  1.00  0.00    -0.172 C  
HETATM   18  C   UNL     1      -8.165   5.144  71.600  1.00  0.00    -0.116 C  
HETATM   19  C   UNL     1      -9.489   3.358  70.433  1.00  0.00    -0.245 C  
BRANCH  18  20
HETATM   20  C   UNL     1      -7.305   5.530  70.424  1.00  0.00    -0.071 C  
BRANCH  20  21
HETATM   21  C   UNL     1      -7.556   6.963  70.000  1.00  0.00    -0.099 C  
HETATM   22  C   UNL     1      -7.061   8.049  70.632  1.00  0.00    -0.045 C  
HETATM   23  C   UNL     1      -6.226   8.028  71.885  1.00  0.00    -0.043 C  
HETATM   24  C   UNL     1      -7.295   9.422  70.096  1.00  0.00    -0.110 C  
HETATM   25  O   UNL     1      -6.885  10.410  70.690  1.00  0.00    -0.328 OA 
HETATM   26  C   UNL     1      -8.012   9.565  68.821  1.00  0.00    -0.088 A  
HETATM   27  C   UNL     1      -8.547   8.454  68.186  1.00  0.00    -0.139 A  
HETATM   28  C   UNL     1      -8.404   7.118  68.782  1.00  0.00    -0.126 C  
HETATM   29  C   UNL     1      -9.237   8.603  66.977  1.00  0.00    -0.186 A  
HETATM   30  C   UNL     1      -9.382   9.868  66.402  1.00  0.00    -0.213 A  
HETATM   31  O   UNL     1      -8.970   6.163  68.262  1.00  0.00    -0.116 OA 
HETATM   32  C   UNL     1      -8.840  10.985  67.038  1.00  0.00    -0.143 A  
HETATM   33  C   UNL     1      -8.157  10.836  68.246  1.00  0.00    -0.121 A  
ENDBRANCH  20  21
ENDBRANCH  18  20
ENDBRANCH  16  17
ENDBRANCH  15  16
ENDBRANCH  13  15
ENDBRANCH  10  11
ENDBRANCH   9  10
ENDBRANCH   5   6
ENDBRANCH   4   5
TORSDOF 9
ENDMDL
MODEL      171
REMARK 921   NORMALIZED FREE ENERGY PREDICTED BY IDOCK:   -4.86 KCAL/MOL
REMARK 922        TOTAL FREE ENERGY PREDICTED BY IDOCK:  -10.61 KCAL/MOL
REMARK 923 INTER-LIGAND FREE ENERGY PREDICTED BY IDOCK:   -7.78 KCAL/MOL
REMARK 924 INTRA-LIGAND FREE ENERGY PREDICTED BY IDOCK:   -2.84 KCAL/MOL
REMARK 927      BINDING AFFINITY PREDICTED BY RF-SCORE:    0.00 PKD
ROOT
HETATM    1  C   UNL     1      -6.619   9.024  69.605  1.00  0.00    -0.043 C  
HETATM    2  C   UNL     1      -6.827  10.511  69.882  1.00  0.00    -0.149 C  
HETATM    3  C   UNL     1      -5.756  11.011  70.857  1.00  0.00    -0.051 C  
HETATM    4  C   UNL     1      -6.834  11.290  68.553  1.00  0.00    -0.071 C  
ENDROOT
BRANCH   4   5
HETATM    5  C   UNL     1      -7.048  12.781  68.772  1.00  0.00    -0.089 C  
BRANCH   5   6
HETATM    6  C   UNL     1      -6.064  13.643  67.987  1.00  0.00    -0.138 C  
HETATM    7  C   UNL     1      -6.500  15.121  67.964  1.00  0.00    -0.156 C  
HETATM    8  C   UNL     1      -6.606  15.713  69.378  1.00  0.00    -0.166 C  
HETATM    9  C   UNL     1      -5.525  15.920  67.084  1.00  0.00     0.164 C  
BRANCH   9  10
HETATM   10  C   UNL     1      -5.905  17.396  67.024  1.00  0.00    -0.186 C  
BRANCH  10  11
HETATM   11  C   UNL     1      -7.282  17.611  66.416  1.00  0.00    -0.319 C  
HETATM   12  C   UNL     1      -8.101  18.646  67.209  1.00  0.00    -0.249 C  
HETATM   13  C   UNL     1      -9.538  18.748  66.662  1.00  0.00    -0.357 C  
HETATM   14  C   UNL     1      -7.446  20.034  67.214  1.00  0.00    -0.312 C  
BRANCH  13  15
HETATM   15  C   UNL     1     -10.338  17.440  66.706  1.00  0.00    -0.305 C  
BRANCH  15  16
HETATM   16  C   UNL     1     -10.315  16.780  68.086  1.00  0.00    -0.318 C  
BRANCH  16  17
HETATM   17  C   UNL     1     -11.233  15.585  68.154  1.00  0.00    -0.343 C  
HETATM   18  C   UNL     1     -11.420  14.828  67.055  1.00  0.00    -0.362 C  
HETATM   19  C   UNL     1     -11.848  15.279  69.487  1.00  0.00    -0.368 C  
BRANCH  18  20
HETATM   20  C   UNL     1     -12.227  13.558  66.962  1.00  0.00    -0.351 C  
BRANCH  20  21
HETATM   21  C   UNL     1     -11.333  12.344  66.803  1.00  0.00    -0.391 C  
HETATM   22  C   UNL     1     -11.092  11.436  67.772  1.00  0.00    -0.323 C  
HETATM   23  C   UNL     1     -11.621  11.497  69.180  1.00  0.00    -0.382 C  
HETATM   24  C   UNL     1     -10.261  10.226  67.501  1.00  0.00    -0.210 C  
HETATM   25  O   UNL     1     -10.005   9.424  68.389  1.00  0.00    -0.160 OA 
HETATM   26  C   UNL     1      -9.770  10.004  66.133  1.00  0.00    -0.286 A  
HETATM   27  C   UNL     1      -9.991  10.951  65.144  1.00  0.00    -0.341 A  
HETATM   28  C   UNL     1     -10.718  12.190  65.452  1.00  0.00    -0.284 C  
HETATM   29  C   UNL     1      -9.510  10.733  63.847  1.00  0.00    -0.312 A  
HETATM   30  C   UNL     1      -8.816   9.560  63.543  1.00  0.00    -0.235 A  
HETATM   31  O   UNL     1     -10.814  13.060  64.594  1.00  0.00    -0.315 OA 
HETATM   32  C   UNL     1      -8.598   8.606  64.536  1.00  0.00    -0.097 A  
HETATM   33  C   UNL     1      -9.072   8.825  65.830  1.00  0.00    -0.271 A  
ENDBRANCH  20  21
ENDBRANCH  18  20
ENDBRANCH  16  17
ENDBRANCH  15  16
ENDBRANCH  13  15
ENDBRANCH  10  11
ENDBRANCH   9  10
ENDBRANCH   5   6
ENDBRANCH   4   5
TORSDOF 9
ENDMDL
MODEL      172
REMARK 921   NORMALIZED FREE ENERGY PREDICTED BY IDOCK:   -4.85 KCAL/MOL
REMARK 922        TOTAL FREE ENERGY PREDICTED BY IDOCK:  -10.60 KCAL/MOL
REMARK 923 INTER-LIGAND FREE ENERGY PREDICTED BY IDOCK:   -8.34 KCAL/MOL
REMARK 924 INTRA-LIGAND FREE ENERGY PREDICTED BY IDOCK:   -2.27 KCAL/MOL
REMARK 927      BINDING AFFINITY PREDICTED BY RF-SCORE:    0.00 PKD
ROOT
HETATM    1  C   UNL     1     -14.252  15.559  72.086  1.00  0.00    -0.617 C  
HETATM    2  C   UNL     1     -12.937  15.299  71.356  1.00  0.00    -0.503 C  
HETATM    3  C   UNL     1     -11.837  14.968  72.370  1.00  0.00    -0.432 C  
HETATM    4  C   UNL     1     -13.137  14.187  70.308  1.00  0.00     0.081 C  
ENDROOT
BRANCH   4   5
HETATM    5  C   UNL     1     -11.853  13.894  69.542  1.00  0.00    -0.383 C  
BRANCH   5   6
HETATM    6  C   UNL     1     -11.977  12.688  68.617  1.00  0.00    -0.264 C  
HETATM    7  C   UNL     1     -11.315  11.437  69.228  1.00  0.00    -0.355 C  
HETATM    8  C   UNL     1     -11.944  11.051  70.575  1.00  0.00    -0.474 C  
HETATM    9  C   UNL     1     -11.389  10.283  68.214  1.00  0.00    -0.245 C  
BRANCH   9  10
HETATM   10  C   UNL     1     -10.749   9.012  68.764  1.00  0.00    -0.140 C  
BRANCH  10  11
HETATM   11  C   UNL     1      -9.316   8.837  68.288  1.00  0.00    -0.143 C  
HETATM   12  C   UNL     1      -8.494   7.968  69.258  1.00  0.00    -0.136 C  
HETATM   13  C   UNL     1      -7.014   7.917  68.832  1.00  0.00    -0.066 C  
HETATM   14  C   UNL     1      -9.050   6.543  69.383  1.00  0.00    -0.141 C  
BRANCH  13  15
HETATM   15  C   UNL     1      -6.313   9.280  68.776  1.00  0.00    -0.048 C  
BRANCH  15  16
HETATM   16  C   UNL     1      -6.628  10.157  69.989  1.00  0.00    -0.117 C  
BRANCH  16  17
HETATM   17  C   UNL     1      -6.585  11.625  69.649  1.00  0.00    -0.096 C  
HETATM   18  C   UNL     1      -7.301  12.087  68.604  1.00  0.00    -0.111 C  
HETATM   19  C   UNL     1      -5.772  12.506  70.551  1.00  0.00    -0.170 C  
BRANCH  18  20
HETATM   20  C   UNL     1      -7.445  13.524  68.175  1.00  0.00    -0.132 C  
BRANCH  20  21
HETATM   21  C   UNL     1      -8.655  13.717  67.282  1.00  0.00    -0.220 C  
HETATM   22  C   UNL     1      -9.365  14.861  67.188  1.00  0.00    -0.227 C  
HETATM   23  C   UNL     1      -9.114  16.115  67.982  1.00  0.00    -0.190 C  
HETATM   24  C   UNL     1     -10.496  14.986  66.221  1.00  0.00    -0.304 C  
HETATM   25  O   UNL     1     -11.169  16.007  66.165  1.00  0.00    -0.056 OA 
HETATM   26  C   UNL     1     -10.774  13.861  65.318  1.00  0.00    -0.352 A  
HETATM   27  C   UNL     1     -10.066  12.674  65.434  1.00  0.00    -0.277 A  
HETATM   28  C   UNL     1      -9.028  12.526  66.464  1.00  0.00    -0.132 C  
HETATM   29  C   UNL     1     -10.346  11.604  64.574  1.00  0.00    -0.349 A  
HETATM   30  C   UNL     1     -11.332  11.732  63.593  1.00  0.00    -0.525 A  
HETATM   31  O   UNL     1      -8.485  11.438  66.619  1.00  0.00    -0.163 OA 
HETATM   32  C   UNL     1     -12.041  12.927  63.473  1.00  0.00    -0.633 A  
HETATM   33  C   UNL     1     -11.765  13.991  64.334  1.00  0.00    -0.415 A  
ENDBRANCH  20  21
ENDBRANCH  18  20
ENDBRANCH  16  17
ENDBRANCH  15  16
ENDBRANCH  13  15
ENDBRANCH  10  11
ENDBRANCH   9  10
ENDBRANCH   5   6
ENDBRANCH   4   5
TORSDOF 9
ENDMDL
MODEL      173
REMARK 921   NORMALIZED FREE ENERGY PREDICTED BY IDOCK:   -4.85 KCAL/MOL
REMARK 922        TOTAL FREE ENERGY PREDICTED BY IDOCK:  -10.60 KCAL/MOL
REMARK 923 INTER-LIGAND FREE ENERGY PREDICTED BY IDOCK:   -8.93 KCAL/MOL
REMARK 924 INTRA-LIGAND FREE ENERGY PREDICTED BY IDOCK:   -1.67 KCAL/MOL
REMARK 927      BINDING AFFINITY PREDICTED BY RF-SCORE:    0.00 PKD
ROOT
HETATM    1  C   UNL     1      -5.128  17.657  67.897  1.00  0.00    -0.132 C  
HETATM    2  C   UNL     1      -6.351  18.101  67.098  1.00  0.00    -0.187 C  
HETATM    3  C   UNL     1      -5.904  18.853  65.840  1.00  0.00    -0.198 C  
HETATM    4  C   UNL     1      -7.235  16.879  66.781  1.00  0.00    -0.278 C  
ENDROOT
BRANCH   4   5
HETATM    5  C   UNL     1      -8.477  17.270  65.991  1.00  0.00    -0.136 C  
BRANCH   5   6
HETATM    6  C   UNL     1      -9.694  16.420  66.342  1.00  0.00    -0.308 C  
HETATM    7  C   UNL     1     -10.113  16.612  67.813  1.00  0.00    -0.275 C  
HETATM    8  C   UNL     1     -10.466  18.074  68.126  1.00  0.00    -0.373 C  
HETATM    9  C   UNL     1     -11.281  15.663  68.131  1.00  0.00    -0.345 C  
BRANCH   9  10
HETATM   10  C   UNL     1     -11.743  15.810  69.578  1.00  0.00    -0.369 C  
BRANCH  10  11
HETATM   11  C   UNL     1     -12.585  14.629  70.035  1.00  0.00    -0.276 C  
HETATM   12  C   UNL     1     -12.423  14.362  71.543  1.00  0.00    -0.430 C  
HETATM   13  C   UNL     1     -13.173  13.082  71.959  1.00  0.00    -0.543 C  
HETATM   14  C   UNL     1     -12.892  15.544  72.402  1.00  0.00    -0.495 C  
BRANCH  13  15
HETATM   15  C   UNL     1     -12.714  11.805  71.243  1.00  0.00    -0.420 C  
BRANCH  15  16
HETATM   16  C   UNL     1     -13.232  10.533  71.914  1.00  0.00    -0.526 C  
BRANCH  16  17
HETATM   17  C   UNL     1     -12.261   9.388  71.775  1.00  0.00    -0.465 C  
HETATM   18  C   UNL     1     -11.041   9.611  71.248  1.00  0.00    -0.426 C  
HETATM   19  C   UNL     1     -12.707   8.054  72.296  1.00  0.00    -0.242 C  
BRANCH  18  20
HETATM   20  C   UNL     1      -9.920   8.613  71.114  1.00  0.00    -0.289 C  
BRANCH  20  21
HETATM   21  C   UNL     1      -9.577   8.356  69.660  1.00  0.00    -0.163 C  
HETATM   22  C   UNL     1     -10.120   7.377  68.904  1.00  0.00    -0.188 C  
HETATM   23  C   UNL     1     -11.111   6.350  69.383  1.00  0.00    -0.450 C  
HETATM   24  C   UNL     1      -9.782   7.248  67.456  1.00  0.00    -0.145 C  
HETATM   25  O   UNL     1     -10.238   6.336  66.780  1.00  0.00    -0.186 OA 
HETATM   26  C   UNL     1      -8.901   8.255  66.848  1.00  0.00    -0.155 A  
HETATM   27  C   UNL     1      -8.319   9.243  67.629  1.00  0.00    -0.116 A  
HETATM   28  C   UNL     1      -8.574   9.293  69.075  1.00  0.00    -0.134 C  
HETATM   29  C   UNL     1      -7.473  10.192  67.041  1.00  0.00    -0.092 A  
HETATM   30  C   UNL     1      -7.221  10.153  65.668  1.00  0.00    -0.137 A  
HETATM   31  O   UNL     1      -7.971  10.108  69.765  1.00  0.00    -0.162 OA 
HETATM   32  C   UNL     1      -7.810   9.163  64.882  1.00  0.00    -0.117 A  
HETATM   33  C   UNL     1      -8.649   8.214  65.469  1.00  0.00    -0.173 A  
ENDBRANCH  20  21
ENDBRANCH  18  20
ENDBRANCH  16  17
ENDBRANCH  15  16
ENDBRANCH  13  15
ENDBRANCH  10  11
ENDBRANCH   9  10
ENDBRANCH   5   6
ENDBRANCH   4   5
TORSDOF 9
ENDMDL
MODEL      174
REMARK 921   NORMALIZED FREE ENERGY PREDICTED BY IDOCK:   -4.85 KCAL/MOL
REMARK 922        TOTAL FREE ENERGY PREDICTED BY IDOCK:  -10.60 KCAL/MOL
REMARK 923 INTER-LIGAND FREE ENERGY PREDICTED BY IDOCK:   -8.59 KCAL/MOL
REMARK 924 INTRA-LIGAND FREE ENERGY PREDICTED BY IDOCK:   -2.00 KCAL/MOL
REMARK 927      BINDING AFFINITY PREDICTED BY RF-SCORE:    0.00 PKD
ROOT
HETATM    1  C   UNL     1     -12.289  15.632  72.140  1.00  0.00    -0.517 C  
HETATM    2  C   UNL     1     -12.768  14.183  72.120  1.00  0.00    -0.379 C  
HETATM    3  C   UNL     1     -14.282  14.134  72.355  1.00  0.00    -0.498 C  
HETATM    4  C   UNL     1     -12.348  13.515  70.797  1.00  0.00    -0.440 C  
ENDROOT
BRANCH   4   5
HETATM    5  C   UNL     1     -12.795  12.061  70.729  1.00  0.00    -0.118 C  
BRANCH   5   6
HETATM    6  C   UNL     1     -11.644  11.099  70.452  1.00  0.00    -0.355 C  
HETATM    7  C   UNL     1     -11.658  10.608  68.991  1.00  0.00    -0.332 C  
HETATM    8  C   UNL     1     -11.539  11.769  67.991  1.00  0.00    -0.386 C  
HETATM    9  C   UNL     1     -10.536   9.574  68.797  1.00  0.00    -0.243 C  
BRANCH   9  10
HETATM   10  C   UNL     1     -10.497   9.051  67.365  1.00  0.00    -0.338 C  
BRANCH  10  11
HETATM   11  C   UNL     1      -9.272   9.537  66.608  1.00  0.00    -0.190 C  
HETATM   12  C   UNL     1      -8.197   8.439  66.496  1.00  0.00    -0.105 C  
HETATM   13  C   UNL     1      -6.912   8.991  65.849  1.00  0.00    -0.088 C  
HETATM   14  C   UNL     1      -8.689   7.214  65.714  1.00  0.00    -0.125 C  
BRANCH  13  15
HETATM   15  C   UNL     1      -6.261  10.156  66.604  1.00  0.00    -0.070 C  
BRANCH  15  16
HETATM   16  C   UNL     1      -6.951  11.494  66.336  1.00  0.00     0.068 C  
BRANCH  16  17
HETATM   17  C   UNL     1      -7.457  12.131  67.606  1.00  0.00    -0.129 C  
HETATM   18  C   UNL     1      -8.350  13.138  67.535  1.00  0.00    -0.185 C  
HETATM   19  C   UNL     1      -6.964  11.550  68.898  1.00  0.00    -0.100 C  
BRANCH  18  20
HETATM   20  C   UNL     1      -9.025  13.828  68.691  1.00  0.00    -0.050 C  
BRANCH  20  21
HETATM   21  C   UNL     1      -8.797  15.326  68.652  1.00  0.00    -0.188 C  
HETATM   22  C   UNL     1      -7.681  15.946  69.091  1.00  0.00    -0.220 C  
HETATM   23  C   UNL     1      -6.502  15.270  69.738  1.00  0.00    -0.169 C  
HETATM   24  C   UNL     1      -7.511  17.421  68.940  1.00  0.00    -0.235 C  
HETATM   25  O   UNL     1      -6.520  17.991  69.377  1.00  0.00    -0.254 OA 
HETATM   26  C   UNL     1      -8.553  18.179  68.232  1.00  0.00    -0.298 A  
HETATM   27  C   UNL     1      -9.714  17.549  67.807  1.00  0.00    -0.274 A  
HETATM   28  C   UNL     1      -9.917  16.116  68.060  1.00  0.00    -0.238 C  
HETATM   29  C   UNL     1     -10.704  18.283  67.142  1.00  0.00    -0.334 A  
HETATM   30  C   UNL     1     -10.524  19.646  66.898  1.00  0.00    -0.606 A  
HETATM   31  O   UNL     1     -10.990  15.600  67.770  1.00  0.00    -0.304 OA 
HETATM   32  C   UNL     1      -9.355  20.278  67.322  1.00  0.00    -0.538 A  
HETATM   33  C   UNL     1      -8.370  19.548  67.989  1.00  0.00    -0.355 A  
ENDBRANCH  20  21
ENDBRANCH  18  20
ENDBRANCH  16  17
ENDBRANCH  15  16
ENDBRANCH  13  15
ENDBRANCH  10  11
ENDBRANCH   9  10
ENDBRANCH   5   6
ENDBRANCH   4   5
TORSDOF 9
ENDMDL
MODEL      175
REMARK 921   NORMALIZED FREE ENERGY PREDICTED BY IDOCK:   -4.84 KCAL/MOL
REMARK 922        TOTAL FREE ENERGY PREDICTED BY IDOCK:  -10.59 KCAL/MOL
REMARK 923 INTER-LIGAND FREE ENERGY PREDICTED BY IDOCK:   -7.22 KCAL/MOL
REMARK 924 INTRA-LIGAND FREE ENERGY PREDICTED BY IDOCK:   -3.37 KCAL/MOL
REMARK 927      BINDING AFFINITY PREDICTED BY RF-SCORE:    0.00 PKD
ROOT
HETATM    1  C   UNL     1     -10.201   6.345  74.363  1.00  0.00    -0.343 C  
HETATM    2  C   UNL     1      -9.420   7.250  73.415  1.00  0.00    -0.252 C  
HETATM    3  C   UNL     1      -8.408   6.418  72.620  1.00  0.00    -0.122 C  
HETATM    4  C   UNL     1     -10.400   8.022  72.510  1.00  0.00    -0.374 C  
ENDROOT
BRANCH   4   5
HETATM    5  C   UNL     1      -9.670   8.950  71.548  1.00  0.00    -0.372 C  
BRANCH   5   6
HETATM    6  C   UNL     1     -10.458   9.217  70.269  1.00  0.00    -0.257 C  
HETATM    7  C   UNL     1      -9.885   8.426  69.077  1.00  0.00    -0.184 C  
HETATM    8  C   UNL     1      -9.909   6.910  69.325  1.00  0.00    -0.159 C  
HETATM    9  C   UNL     1     -10.659   8.806  67.803  1.00  0.00    -0.256 C  
BRANCH   9  10
HETATM   10  C   UNL     1     -10.136   8.052  66.585  1.00  0.00    -0.329 C  
BRANCH  10  11
HETATM   11  C   UNL     1      -8.945   8.746  65.945  1.00  0.00    -0.240 C  
HETATM   12  C   UNL     1      -7.646   7.939  66.130  1.00  0.00    -0.083 C  
HETATM   13  C   UNL     1      -6.430   8.722  65.598  1.00  0.00    -0.059 C  
HETATM   14  C   UNL     1      -7.711   6.560  65.460  1.00  0.00    -0.097 C  
BRANCH  13  15
HETATM   15  C   UNL     1      -6.194  10.080  66.272  1.00  0.00    -0.070 C  
BRANCH  15  16
HETATM   16  C   UNL     1      -6.036   9.967  67.789  1.00  0.00    -0.054 C  
BRANCH  16  17
HETATM   17  C   UNL     1      -7.066  10.786  68.525  1.00  0.00    -0.070 C  
HETATM   18  C   UNL     1      -8.012  11.446  67.829  1.00  0.00    -0.119 C  
HETATM   19  C   UNL     1      -7.000  10.768  70.024  1.00  0.00    -0.091 C  
BRANCH  18  20
HETATM   20  C   UNL     1      -9.163  12.236  68.396  1.00  0.00    -0.145 C  
BRANCH  20  21
HETATM   21  C   UNL     1      -9.467  13.457  67.551  1.00  0.00    -0.219 C  
HETATM   22  C   UNL     1     -10.112  13.430  66.365  1.00  0.00    -0.292 C  
HETATM   23  C   UNL     1     -10.590  12.190  65.657  1.00  0.00    -0.297 C  
HETATM   24  C   UNL     1     -10.438  14.692  65.639  1.00  0.00    -0.342 C  
HETATM   25  O   UNL     1     -10.983  14.669  64.544  1.00  0.00    -0.339 OA 
HETATM   26  C   UNL     1     -10.110  15.975  66.278  1.00  0.00    -0.329 A  
HETATM   27  C   UNL     1      -9.421  16.004  67.481  1.00  0.00    -0.223 A  
HETATM   28  C   UNL     1      -9.008  14.753  68.132  1.00  0.00    -0.179 C  
HETATM   29  C   UNL     1      -9.105  17.232  68.077  1.00  0.00    -0.249 A  
HETATM   30  C   UNL     1      -9.489  18.428  67.467  1.00  0.00    -0.277 A  
HETATM   31  O   UNL     1      -8.312  14.799  69.140  1.00  0.00    -0.160 OA 
HETATM   32  C   UNL     1     -10.186  18.398  66.260  1.00  0.00    -0.427 A  
HETATM   33  C   UNL     1     -10.497  17.175  65.664  1.00  0.00    -0.208 A  
ENDBRANCH  20  21
ENDBRANCH  18  20
ENDBRANCH  16  17
ENDBRANCH  15  16
ENDBRANCH  13  15
ENDBRANCH  10  11
ENDBRANCH   9  10
ENDBRANCH   5   6
ENDBRANCH   4   5
TORSDOF 9
ENDMDL
MODEL      176
REMARK 921   NORMALIZED FREE ENERGY PREDICTED BY IDOCK:   -4.83 KCAL/MOL
REMARK 922        TOTAL FREE ENERGY PREDICTED BY IDOCK:  -10.58 KCAL/MOL
REMARK 923 INTER-LIGAND FREE ENERGY PREDICTED BY IDOCK:   -7.42 KCAL/MOL
REMARK 924 INTRA-LIGAND FREE ENERGY PREDICTED BY IDOCK:   -3.16 KCAL/MOL
REMARK 927      BINDING AFFINITY PREDICTED BY RF-SCORE:    0.00 PKD
ROOT
HETATM    1  C   UNL     1      -9.709  17.225  67.483  1.00  0.00    -0.264 C  
HETATM    2  C   UNL     1      -8.508  16.452  66.942  1.00  0.00    -0.254 C  
HETATM    3  C   UNL     1      -7.638  17.379  66.087  1.00  0.00    -0.321 C  
HETATM    4  C   UNL     1      -7.733  15.816  68.112  1.00  0.00    -0.131 C  
ENDROOT
BRANCH   4   5
HETATM    5  C   UNL     1      -6.526  15.023  67.625  1.00  0.00    -0.175 C  
BRANCH   5   6
HETATM    6  C   UNL     1      -6.057  13.980  68.634  1.00  0.00    -0.088 C  
HETATM    7  C   UNL     1      -6.951  12.725  68.606  1.00  0.00    -0.101 C  
HETATM    8  C   UNL     1      -6.963  12.056  67.222  1.00  0.00    -0.146 C  
HETATM    9  C   UNL     1      -6.487  11.752  69.704  1.00  0.00    -0.113 C  
BRANCH   9  10
HETATM   10  C   UNL     1      -7.335  10.485  69.724  1.00  0.00    -0.139 C  
BRANCH  10  11
HETATM   11  C   UNL     1      -7.051   9.621  70.942  1.00  0.00    -0.028 C  
HETATM   12  C   UNL     1      -7.051   8.121  70.592  1.00  0.00    -0.045 C  
HETATM   13  C   UNL     1      -6.899   7.260  71.861  1.00  0.00    -0.059 C  
HETATM   14  C   UNL     1      -5.958   7.755  69.580  1.00  0.00    -0.030 C  
BRANCH  13  15
HETATM   15  C   UNL     1      -8.001   7.458  72.910  1.00  0.00    -0.120 C  
BRANCH  15  16
HETATM   16  C   UNL     1      -8.908   6.236  73.052  1.00  0.00    -0.123 C  
BRANCH  16  17
HETATM   17  C   UNL     1     -10.260   6.462  72.422  1.00  0.00    -0.204 C  
HETATM   18  C   UNL     1     -10.404   7.417  71.483  1.00  0.00    -0.216 C  
HETATM   19  C   UNL     1     -11.369   5.548  72.853  1.00  0.00    -0.348 C  
BRANCH  18  20
HETATM   20  C   UNL     1     -11.649   7.722  70.690  1.00  0.00    -0.233 C  
BRANCH  20  21
HETATM   21  C   UNL     1     -11.944   9.208  70.671  1.00  0.00    -0.171 C  
HETATM   22  C   UNL     1     -12.729   9.847  71.565  1.00  0.00    -0.515 C  
HETATM   23  C   UNL     1     -13.482   9.194  72.694  1.00  0.00    -0.395 C  
HETATM   24  C   UNL     1     -12.901  11.329  71.516  1.00  0.00    -0.414 C  
HETATM   25  O   UNL     1     -13.646  11.905  72.297  1.00  0.00    -0.364 OA 
HETATM   26  C   UNL     1     -12.136  12.091  70.518  1.00  0.00    -0.402 A  
HETATM   27  C   UNL     1     -11.353  11.434  69.580  1.00  0.00    -0.347 A  
HETATM   28  C   UNL     1     -11.279   9.966  69.571  1.00  0.00    -0.177 C  
HETATM   29  C   UNL     1     -10.636  12.169  68.628  1.00  0.00    -0.248 A  
HETATM   30  C   UNL     1     -10.700  13.564  68.625  1.00  0.00    -0.271 A  
HETATM   31  O   UNL     1     -10.667   9.399  68.674  1.00  0.00    -0.213 OA 
HETATM   32  C   UNL     1     -11.483  14.225  69.570  1.00  0.00    -0.336 A  
HETATM   33  C   UNL     1     -12.202  13.492  70.516  1.00  0.00    -0.433 A  
ENDBRANCH  20  21
ENDBRANCH  18  20
ENDBRANCH  16  17
ENDBRANCH  15  16
ENDBRANCH  13  15
ENDBRANCH  10  11
ENDBRANCH   9  10
ENDBRANCH   5   6
ENDBRANCH   4   5
TORSDOF 9
ENDMDL
MODEL      177
REMARK 921   NORMALIZED FREE ENERGY PREDICTED BY IDOCK:   -4.82 KCAL/MOL
REMARK 922        TOTAL FREE ENERGY PREDICTED BY IDOCK:  -10.56 KCAL/MOL
REMARK 923 INTER-LIGAND FREE ENERGY PREDICTED BY IDOCK:   -8.40 KCAL/MOL
REMARK 924 INTRA-LIGAND FREE ENERGY PREDICTED BY IDOCK:   -2.16 KCAL/MOL
REMARK 927      BINDING AFFINITY PREDICTED BY RF-SCORE:    0.00 PKD
ROOT
HETATM    1  C   UNL     1     -10.128  19.980  67.742  1.00  0.00    -0.563 C  
HETATM    2  C   UNL     1      -9.503  18.699  67.193  1.00  0.00    -0.308 C  
HETATM    3  C   UNL     1      -8.430  18.190  68.161  1.00  0.00    -0.282 C  
HETATM    4  C   UNL     1     -10.607  17.659  66.924  1.00  0.00    -0.235 C  
ENDROOT
BRANCH   4   5
HETATM    5  C   UNL     1     -10.038  16.361  66.365  1.00  0.00    -0.328 C  
BRANCH   5   6
HETATM    6  C   UNL     1     -10.977  15.174  66.549  1.00  0.00    -0.318 C  
HETATM    7  C   UNL     1     -10.445  14.191  67.609  1.00  0.00    -0.245 C  
HETATM    8  C   UNL     1     -10.274  14.859  68.982  1.00  0.00    -0.243 C  
HETATM    9  C   UNL     1     -11.382  12.973  67.682  1.00  0.00    -0.342 C  
BRANCH   9  10
HETATM   10  C   UNL     1     -10.906  11.962  68.720  1.00  0.00    -0.270 C  
BRANCH  10  11
HETATM   11  C   UNL     1     -12.057  11.173  69.324  1.00  0.00    -0.377 C  
HETATM   12  C   UNL     1     -12.279  11.530  70.806  1.00  0.00    -0.463 C  
HETATM   13  C   UNL     1     -13.355  10.624  71.436  1.00  0.00    -0.299 C  
HETATM   14  C   UNL     1     -12.658  13.004  71.004  1.00  0.00    -0.386 C  
BRANCH  13  15
HETATM   15  C   UNL     1     -13.036   9.124  71.397  1.00  0.00    -0.366 C  
BRANCH  15  16
HETATM   16  C   UNL     1     -12.288   8.646  72.642  1.00  0.00    -0.282 C  
BRANCH  16  17
HETATM   17  C   UNL     1     -10.920   8.107  72.305  1.00  0.00    -0.399 C  
HETATM   18  C   UNL     1     -10.362   8.405  71.116  1.00  0.00    -0.264 C  
HETATM   19  C   UNL     1     -10.232   7.299  73.365  1.00  0.00    -0.394 C  
BRANCH  18  20
HETATM   20  C   UNL     1      -8.981   8.029  70.648  1.00  0.00    -0.148 C  
BRANCH  20  21
HETATM   21  C   UNL     1      -9.021   7.328  69.305  1.00  0.00    -0.135 C  
HETATM   22  C   UNL     1      -8.807   7.931  68.116  1.00  0.00    -0.125 C  
HETATM   23  C   UNL     1      -8.545   9.400  67.915  1.00  0.00    -0.120 C  
HETATM   24  C   UNL     1      -8.789   7.145  66.848  1.00  0.00    -0.128 C  
HETATM   25  O   UNL     1      -8.638   7.695  65.765  1.00  0.00    -0.143 OA 
HETATM   26  C   UNL     1      -8.934   5.684  66.925  1.00  0.00    -0.112 A  
HETATM   27  C   UNL     1      -9.184   5.066  68.141  1.00  0.00    -0.143 A  
HETATM   28  C   UNL     1      -9.309   5.865  69.369  1.00  0.00    -0.130 C  
HETATM   29  C   UNL     1      -9.330   3.674  68.202  1.00  0.00    -0.236 A  
HETATM   30  C   UNL     1      -9.216   2.905  67.043  1.00  0.00    -0.176 A  
HETATM   31  O   UNL     1      -9.632   5.314  70.415  1.00  0.00    -0.159 OA 
HETATM   32  C   UNL     1      -8.960   3.526  65.820  1.00  0.00    -0.140 A  
HETATM   33  C   UNL     1      -8.819   4.913  65.759  1.00  0.00    -0.135 A  
ENDBRANCH  20  21
ENDBRANCH  18  20
ENDBRANCH  16  17
ENDBRANCH  15  16
ENDBRANCH  13  15
ENDBRANCH  10  11
ENDBRANCH   9  10
ENDBRANCH   5   6
ENDBRANCH   4   5
TORSDOF 9
ENDMDL
MODEL      178
REMARK 921   NORMALIZED FREE ENERGY PREDICTED BY IDOCK:   -4.79 KCAL/MOL
REMARK 922        TOTAL FREE ENERGY PREDICTED BY IDOCK:  -10.52 KCAL/MOL
REMARK 923 INTER-LIGAND FREE ENERGY PREDICTED BY IDOCK:   -8.04 KCAL/MOL
REMARK 924 INTRA-LIGAND FREE ENERGY PREDICTED BY IDOCK:   -2.47 KCAL/MOL
REMARK 927      BINDING AFFINITY PREDICTED BY RF-SCORE:    0.00 PKD
ROOT
HETATM    1  C   UNL     1     -10.447  19.554  65.860  1.00  0.00    -0.585 C  
HETATM    2  C   UNL     1      -9.930  18.286  66.535  1.00  0.00    -0.380 C  
HETATM    3  C   UNL     1     -10.204  18.352  68.041  1.00  0.00    -0.406 C  
HETATM    4  C   UNL     1     -10.561  17.049  65.867  1.00  0.00    -0.221 C  
ENDROOT
BRANCH   4   5
HETATM    5  C   UNL     1     -10.071  15.753  66.499  1.00  0.00    -0.292 C  
BRANCH   5   6
HETATM    6  C   UNL     1      -9.988  14.602  65.502  1.00  0.00    -0.384 C  
HETATM    7  C   UNL     1     -10.413  13.266  66.145  1.00  0.00    -0.296 C  
HETATM    8  C   UNL     1     -11.853  13.314  66.675  1.00  0.00    -0.447 C  
HETATM    9  C   UNL     1     -10.219  12.133  65.123  1.00  0.00    -0.308 C  
BRANCH   9  10
HETATM   10  C   UNL     1     -10.626  10.782  65.703  1.00  0.00    -0.199 C  
BRANCH  10  11
HETATM   11  C   UNL     1      -9.682   9.667  65.282  1.00  0.00    -0.330 C  
HETATM   12  C   UNL     1      -9.391   8.696  66.441  1.00  0.00    -0.271 C  
HETATM   13  C   UNL     1      -8.327   7.657  66.035  1.00  0.00    -0.135 C  
HETATM   14  C   UNL     1     -10.654   7.982  66.939  1.00  0.00    -0.324 C  
BRANCH  13  15
HETATM   15  C   UNL     1      -6.975   8.249  65.619  1.00  0.00    -0.067 C  
BRANCH  15  16
HETATM   16  C   UNL     1      -5.800   7.630  66.377  1.00  0.00    -0.037 C  
BRANCH  16  17
HETATM   17  C   UNL     1      -5.862   7.928  67.854  1.00  0.00    -0.041 C  
HETATM   18  C   UNL     1      -6.021   9.200  68.269  1.00  0.00    -0.045 C  
HETATM   19  C   UNL     1      -5.798   6.753  68.784  1.00  0.00    -0.018 C  
BRANCH  18  20
HETATM   20  C   UNL     1      -6.190   9.670  69.691  1.00  0.00    -0.044 C  
BRANCH  20  21
HETATM   21  C   UNL     1      -7.597   9.417  70.195  1.00  0.00    -0.132 C  
HETATM   22  C   UNL     1      -7.910   8.593  71.218  1.00  0.00    -0.156 C  
HETATM   23  C   UNL     1      -6.933   7.751  71.994  1.00  0.00    -0.067 C  
HETATM   24  C   UNL     1      -9.318   8.466  71.698  1.00  0.00    -0.214 C  
HETATM   25  O   UNL     1      -9.611   7.688  72.596  1.00  0.00    -0.153 OA 
HETATM   26  C   UNL     1     -10.349   9.315  71.084  1.00  0.00    -0.392 A  
HETATM   27  C   UNL     1     -10.034  10.138  70.013  1.00  0.00    -0.213 A  
HETATM   28  C   UNL     1      -8.666  10.172  69.478  1.00  0.00    -0.174 C  
HETATM   29  C   UNL     1     -11.027  10.936  69.429  1.00  0.00    -0.304 A  
HETATM   30  C   UNL     1     -12.331  10.910  69.927  1.00  0.00    -0.354 A  
HETATM   31  O   UNL     1      -8.430  10.827  68.469  1.00  0.00    -0.128 OA 
HETATM   32  C   UNL     1     -12.646  10.086  71.006  1.00  0.00    -0.463 A  
HETATM   33  C   UNL     1     -11.658   9.287  71.585  1.00  0.00    -0.463 A  
ENDBRANCH  20  21
ENDBRANCH  18  20
ENDBRANCH  16  17
ENDBRANCH  15  16
ENDBRANCH  13  15
ENDBRANCH  10  11
ENDBRANCH   9  10
ENDBRANCH   5   6
ENDBRANCH   4   5
TORSDOF 9
ENDMDL
MODEL      179
REMARK 921   NORMALIZED FREE ENERGY PREDICTED BY IDOCK:   -4.79 KCAL/MOL
REMARK 922        TOTAL FREE ENERGY PREDICTED BY IDOCK:  -10.51 KCAL/MOL
REMARK 923 INTER-LIGAND FREE ENERGY PREDICTED BY IDOCK:   -7.08 KCAL/MOL
REMARK 924 INTRA-LIGAND FREE ENERGY PREDICTED BY IDOCK:   -3.43 KCAL/MOL
REMARK 927      BINDING AFFINITY PREDICTED BY RF-SCORE:    0.00 PKD
ROOT
HETATM    1  C   UNL     1     -10.180  10.499  65.629  1.00  0.00    -0.315 C  
HETATM    2  C   UNL     1      -9.145   9.461  65.200  1.00  0.00    -0.280 C  
HETATM    3  C   UNL     1      -8.649   9.778  63.785  1.00  0.00    -0.208 C  
HETATM    4  C   UNL     1      -8.005   9.407  66.235  1.00  0.00    -0.111 C  
ENDROOT
BRANCH   4   5
HETATM    5  C   UNL     1      -6.948   8.379  65.858  1.00  0.00    -0.068 C  
BRANCH   5   6
HETATM    6  C   UNL     1      -6.895   7.201  66.826  1.00  0.00    -0.068 C  
HETATM    7  C   UNL     1      -8.155   6.322  66.715  1.00  0.00    -0.109 C  
HETATM    8  C   UNL     1      -8.336   5.748  65.301  1.00  0.00    -0.146 C  
HETATM    9  C   UNL     1      -8.088   5.210  67.776  1.00  0.00    -0.099 C  
BRANCH   9  10
HETATM   10  C   UNL     1      -9.312   4.302  67.714  1.00  0.00    -0.200 C  
BRANCH  10  11
HETATM   11  C   UNL     1      -9.637   3.682  69.063  1.00  0.00    -0.165 C  
HETATM   12  C   UNL     1      -9.692   4.741  70.181  1.00  0.00    -0.288 C  
HETATM   13  C   UNL     1      -9.885   4.077  71.558  1.00  0.00    -0.251 C  
HETATM   14  C   UNL     1     -10.791   5.785  69.946  1.00  0.00    -0.417 C  
BRANCH  13  15
HETATM   15  C   UNL     1      -8.784   3.087  71.956  1.00  0.00    -0.110 C  
BRANCH  15  16
HETATM   16  C   UNL     1      -7.386   3.706  71.909  1.00  0.00    -0.055 C  
BRANCH  16  17
HETATM   17  C   UNL     1      -7.333   5.030  72.627  1.00  0.00    -0.090 C  
HETATM   18  C   UNL     1      -7.205   6.168  71.916  1.00  0.00    -0.091 C  
HETATM   19  C   UNL     1      -7.485   4.998  74.119  1.00  0.00    -0.086 C  
BRANCH  18  20
HETATM   20  C   UNL     1      -7.221   7.575  72.454  1.00  0.00    -0.075 C  
BRANCH  20  21
HETATM   21  C   UNL     1      -8.373   8.375  71.880  1.00  0.00    -0.223 C  
HETATM   22  C   UNL     1      -8.302   9.130  70.763  1.00  0.00    -0.248 C  
HETATM   23  C   UNL     1      -7.067   9.348  69.930  1.00  0.00    -0.075 C  
HETATM   24  C   UNL     1      -9.511   9.822  70.225  1.00  0.00    -0.195 C  
HETATM   25  O   UNL     1      -9.440  10.542  69.238  1.00  0.00    -0.206 OA 
HETATM   26  C   UNL     1     -10.801   9.604  70.896  1.00  0.00    -0.409 A  
HETATM   27  C   UNL     1     -10.870   8.854  72.060  1.00  0.00    -0.404 A  
HETATM   28  C   UNL     1      -9.653   8.268  72.640  1.00  0.00    -0.282 C  
HETATM   29  C   UNL     1     -12.103   8.660  72.696  1.00  0.00    -0.267 A  
HETATM   30  C   UNL     1     -13.265   9.214  72.157  1.00  0.00    -0.524 A  
HETATM   31  O   UNL     1      -9.716   7.696  73.722  1.00  0.00    -0.285 OA 
HETATM   32  C   UNL     1     -13.197   9.964  70.983  1.00  0.00    -0.375 A  
HETATM   33  C   UNL     1     -11.967  10.161  70.352  1.00  0.00    -0.353 A  
ENDBRANCH  20  21
ENDBRANCH  18  20
ENDBRANCH  16  17
ENDBRANCH  15  16
ENDBRANCH  13  15
ENDBRANCH  10  11
ENDBRANCH   9  10
ENDBRANCH   5   6
ENDBRANCH   4   5
TORSDOF 9
ENDMDL
MODEL      180
REMARK 921   NORMALIZED FREE ENERGY PREDICTED BY IDOCK:   -4.77 KCAL/MOL
REMARK 922        TOTAL FREE ENERGY PREDICTED BY IDOCK:  -10.48 KCAL/MOL
REMARK 923 INTER-LIGAND FREE ENERGY PREDICTED BY IDOCK:   -6.81 KCAL/MOL
REMARK 924 INTRA-LIGAND FREE ENERGY PREDICTED BY IDOCK:   -3.67 KCAL/MOL
REMARK 927      BINDING AFFINITY PREDICTED BY RF-SCORE:    0.00 PKD
ROOT
HETATM    1  C   UNL     1     -10.493  17.529  65.948  1.00  0.00    -0.251 C  
HETATM    2  C   UNL     1      -9.858  16.155  65.747  1.00  0.00    -0.354 C  
HETATM    3  C   UNL     1      -8.767  15.929  66.798  1.00  0.00    -0.303 C  
HETATM    4  C   UNL     1     -10.951  15.069  65.777  1.00  0.00    -0.351 C  
ENDROOT
BRANCH   4   5
HETATM    5  C   UNL     1     -10.370  13.677  65.571  1.00  0.00    -0.319 C  
BRANCH   5   6
HETATM    6  C   UNL     1     -11.161  12.592  66.294  1.00  0.00    -0.359 C  
HETATM    7  C   UNL     1     -10.313  11.905  67.382  1.00  0.00    -0.228 C  
HETATM    8  C   UNL     1      -9.820  12.901  68.443  1.00  0.00    -0.197 C  
HETATM    9  C   UNL     1     -11.130  10.762  68.010  1.00  0.00    -0.359 C  
BRANCH   9  10
HETATM   10  C   UNL     1     -10.341  10.044  69.100  1.00  0.00    -0.233 C  
BRANCH  10  11
HETATM   11  C   UNL     1      -9.234   9.171  68.529  1.00  0.00    -0.136 C  
HETATM   12  C   UNL     1      -7.841   9.781  68.775  1.00  0.00    -0.082 C  
HETATM   13  C   UNL     1      -6.747   8.955  68.070  1.00  0.00    -0.069 C  
HETATM   14  C   UNL     1      -7.514   9.914  70.268  1.00  0.00    -0.173 C  
BRANCH  13  15
HETATM   15  C   UNL     1      -6.906   8.842  66.549  1.00  0.00    -0.072 C  
BRANCH  15  16
HETATM   16  C   UNL     1      -6.712   7.413  66.039  1.00  0.00    -0.053 C  
BRANCH  16  17
HETATM   17  C   UNL     1      -7.550   6.423  66.807  1.00  0.00    -0.098 C  
HETATM   18  C   UNL     1      -7.040   5.831  67.906  1.00  0.00    -0.071 C  
HETATM   19  C   UNL     1      -8.950   6.198  66.319  1.00  0.00    -0.162 C  
BRANCH  18  20
HETATM   20  C   UNL     1      -7.758   4.890  68.838  1.00  0.00    -0.073 C  
BRANCH  20  21
HETATM   21  C   UNL     1      -8.450   5.640  69.959  1.00  0.00    -0.122 C  
HETATM   22  C   UNL     1      -7.819   6.192  71.018  1.00  0.00    -0.114 C  
HETATM   23  C   UNL     1      -6.341   6.115  71.295  1.00  0.00    -0.048 C  
HETATM   24  C   UNL     1      -8.574   6.982  72.034  1.00  0.00    -0.119 C  
HETATM   25  O   UNL     1      -8.013   7.447  73.018  1.00  0.00    -0.097 OA 
HETATM   26  C   UNL     1     -10.010   7.213  71.820  1.00  0.00    -0.186 A  
HETATM   27  C   UNL     1     -10.665   6.622  70.750  1.00  0.00    -0.282 A  
HETATM   28  C   UNL     1      -9.931   5.756  69.817  1.00  0.00    -0.190 C  
HETATM   29  C   UNL     1     -12.035   6.840  70.560  1.00  0.00    -0.385 A  
HETATM   30  C   UNL     1     -12.744   7.659  71.442  1.00  0.00    -0.357 A  
HETATM   31  O   UNL     1     -10.544   5.160  68.938  1.00  0.00    -0.133 OA 
HETATM   32  C   UNL     1     -12.085   8.258  72.515  1.00  0.00    -0.400 A  
HETATM   33  C   UNL     1     -10.720   8.036  72.707  1.00  0.00    -0.431 A  
ENDBRANCH  20  21
ENDBRANCH  18  20
ENDBRANCH  16  17
ENDBRANCH  15  16
ENDBRANCH  13  15
ENDBRANCH  10  11
ENDBRANCH   9  10
ENDBRANCH   5   6
ENDBRANCH   4   5
TORSDOF 9
ENDMDL
MODEL      181
REMARK 921   NORMALIZED FREE ENERGY PREDICTED BY IDOCK:   -4.77 KCAL/MOL
REMARK 922        TOTAL FREE ENERGY PREDICTED BY IDOCK:  -10.48 KCAL/MOL
REMARK 923 INTER-LIGAND FREE ENERGY PREDICTED BY IDOCK:   -8.62 KCAL/MOL
REMARK 924 INTRA-LIGAND FREE ENERGY PREDICTED BY IDOCK:   -1.85 KCAL/MOL
REMARK 927      BINDING AFFINITY PREDICTED BY RF-SCORE:    0.00 PKD
ROOT
HETATM    1  C   UNL     1     -14.261   8.482  71.902  1.00  0.00    -0.536 C  
HETATM    2  C   UNL     1     -12.840   8.480  71.344  1.00  0.00    -0.277 C  
HETATM    3  C   UNL     1     -12.119   9.769  71.754  1.00  0.00    -0.425 C  
HETATM    4  C   UNL     1     -12.102   7.210  71.809  1.00  0.00    -0.363 C  
ENDROOT
BRANCH   4   5
HETATM    5  C   UNL     1     -10.678   7.153  71.271  1.00  0.00    -0.245 C  
BRANCH   5   6
HETATM    6  C   UNL     1     -10.624   6.997  69.755  1.00  0.00    -0.253 C  
HETATM    7  C   UNL     1      -9.918   8.194  69.088  1.00  0.00    -0.192 C  
HETATM    8  C   UNL     1      -8.475   8.363  69.586  1.00  0.00    -0.127 C  
HETATM    9  C   UNL     1      -9.977   8.026  67.560  1.00  0.00    -0.253 C  
BRANCH   9  10
HETATM   10  C   UNL     1      -9.290   9.183  66.843  1.00  0.00    -0.199 C  
BRANCH  10  11
HETATM   11  C   UNL     1     -10.006   9.571  65.559  1.00  0.00    -0.209 C  
HETATM   12  C   UNL     1      -9.289  10.722  64.830  1.00  0.00    -0.264 C  
HETATM   13  C   UNL     1     -10.104  11.192  63.608  1.00  0.00    -0.432 C  
HETATM   14  C   UNL     1      -7.867  10.346  64.395  1.00  0.00    -0.064 C  
BRANCH  13  15
HETATM   15  C   UNL     1     -11.515  11.698  63.932  1.00  0.00    -0.433 C  
BRANCH  15  16
HETATM   16  C   UNL     1     -11.752  13.132  63.456  1.00  0.00    -0.472 C  
BRANCH  16  17
HETATM   17  C   UNL     1     -11.780  14.109  64.605  1.00  0.00    -0.427 C  
HETATM   18  C   UNL     1     -12.035  13.662  65.851  1.00  0.00    -0.438 C  
HETATM   19  C   UNL     1     -11.461  15.539  64.285  1.00  0.00    -0.186 C  
BRANCH  18  20
HETATM   20  C   UNL     1     -12.018  14.473  67.120  1.00  0.00    -0.373 C  
BRANCH  20  21
HETATM   21  C   UNL     1     -10.606  14.659  67.641  1.00  0.00    -0.256 C  
HETATM   22  C   UNL     1     -10.065  15.847  67.985  1.00  0.00    -0.230 C  
HETATM   23  C   UNL     1     -10.742  17.186  67.864  1.00  0.00    -0.355 C  
HETATM   24  C   UNL     1      -8.692  15.926  68.565  1.00  0.00    -0.194 C  
HETATM   25  O   UNL     1      -8.181  17.004  68.837  1.00  0.00    -0.254 OA 
HETATM   26  C   UNL     1      -7.966  14.674  68.825  1.00  0.00    -0.151 A  
HETATM   27  C   UNL     1      -8.509  13.455  68.444  1.00  0.00    -0.135 A  
HETATM   28  C   UNL     1      -9.815  13.400  67.774  1.00  0.00    -0.234 C  
HETATM   29  C   UNL     1      -7.805  12.269  68.688  1.00  0.00    -0.063 A  
HETATM   30  C   UNL     1      -6.561  12.309  69.322  1.00  0.00    -0.099 A  
HETATM   31  O   UNL     1     -10.232  12.327  67.353  1.00  0.00    -0.202 OA 
HETATM   32  C   UNL     1      -6.018  13.533  69.709  1.00  0.00    -0.123 A  
HETATM   33  C   UNL     1      -6.717  14.716  69.461  1.00  0.00    -0.158 A  
ENDBRANCH  20  21
ENDBRANCH  18  20
ENDBRANCH  16  17
ENDBRANCH  15  16
ENDBRANCH  13  15
ENDBRANCH  10  11
ENDBRANCH   9  10
ENDBRANCH   5   6
ENDBRANCH   4   5
TORSDOF 9
ENDMDL
MODEL      182
REMARK 921   NORMALIZED FREE ENERGY PREDICTED BY IDOCK:   -4.75 KCAL/MOL
REMARK 922        TOTAL FREE ENERGY PREDICTED BY IDOCK:  -10.45 KCAL/MOL
REMARK 923 INTER-LIGAND FREE ENERGY PREDICTED BY IDOCK:   -8.77 KCAL/MOL
REMARK 924 INTRA-LIGAND FREE ENERGY PREDICTED BY IDOCK:   -1.68 KCAL/MOL
REMARK 927      BINDING AFFINITY PREDICTED BY RF-SCORE:    0.00 PKD
ROOT
HETATM    1  C   UNL     1      -7.013   7.868  68.649  1.00  0.00    -0.071 C  
HETATM    2  C   UNL     1      -7.542   9.295  68.529  1.00  0.00    -0.085 C  
HETATM    3  C   UNL     1      -7.592   9.948  69.915  1.00  0.00    -0.167 C  
HETATM    4  C   UNL     1      -6.679  10.086  67.527  1.00  0.00    -0.072 C  
ENDROOT
BRANCH   4   5
HETATM    5  C   UNL     1      -7.171  11.517  67.363  1.00  0.00    -0.119 C  
BRANCH   5   6
HETATM    6  C   UNL     1      -6.039  12.540  67.388  1.00  0.00    -0.155 C  
HETATM    7  C   UNL     1      -6.497  13.875  68.006  1.00  0.00    -0.147 C  
HETATM    8  C   UNL     1      -6.993  13.703  69.450  1.00  0.00     0.021 C  
HETATM    9  C   UNL     1      -5.345  14.892  67.918  1.00  0.00    -0.099 C  
BRANCH   9  10
HETATM   10  C   UNL     1      -5.740  16.237  68.518  1.00  0.00    -0.109 C  
BRANCH  10  11
HETATM   11  C   UNL     1      -6.801  16.946  67.693  1.00  0.00    -0.161 C  
HETATM   12  C   UNL     1      -7.584  17.975  68.530  1.00  0.00    -0.296 C  
HETATM   13  C   UNL     1      -8.742  18.582  67.715  1.00  0.00    -0.290 C  
HETATM   14  C   UNL     1      -6.686  19.095  69.073  1.00  0.00    -0.342 C  
BRANCH  13  15
HETATM   15  C   UNL     1      -9.773  17.566  67.207  1.00  0.00    -0.276 C  
BRANCH  15  16
HETATM   16  C   UNL     1      -9.220  16.665  66.102  1.00  0.00    -0.312 C  
BRANCH  16  17
HETATM   17  C   UNL     1     -10.048  15.417  65.925  1.00  0.00    -0.370 C  
HETATM   18  C   UNL     1      -9.940  14.415  66.820  1.00  0.00    -0.265 C  
HETATM   19  C   UNL     1     -11.003  15.396  64.768  1.00  0.00    -0.411 C  
BRANCH  18  20
HETATM   20  C   UNL     1     -10.746  13.143  66.851  1.00  0.00    -0.270 C  
BRANCH  20  21
HETATM   21  C   UNL     1     -11.414  12.942  68.197  1.00  0.00    -0.354 C  
HETATM   22  C   UNL     1     -11.432  11.776  68.878  1.00  0.00    -0.357 C  
HETATM   23  C   UNL     1     -10.844  10.474  68.403  1.00  0.00    -0.284 C  
HETATM   24  C   UNL     1     -12.047  11.690  70.236  1.00  0.00    -0.358 C  
HETATM   25  O   UNL     1     -12.104  10.626  70.838  1.00  0.00    -0.330 OA 
HETATM   26  C   UNL     1     -12.566  12.921  70.851  1.00  0.00    -0.355 A  
HETATM   27  C   UNL     1     -12.576  14.112  70.140  1.00  0.00    -0.325 A  
HETATM   28  C   UNL     1     -12.068  14.159  68.762  1.00  0.00    -0.291 C  
HETATM   29  C   UNL     1     -13.082  15.276  70.731  1.00  0.00    -0.468 A  
HETATM   30  C   UNL     1     -13.570  15.243  72.039  1.00  0.00    -0.571 A  
HETATM   31  O   UNL     1     -12.178  15.193  68.114  1.00  0.00    -0.102 OA 
HETATM   32  C   UNL     1     -13.556  14.047  72.756  1.00  0.00    -0.515 A  
HETATM   33  C   UNL     1     -13.057  12.886  72.164  1.00  0.00    -0.466 A  
ENDBRANCH  20  21
ENDBRANCH  18  20
ENDBRANCH  16  17
ENDBRANCH  15  16
ENDBRANCH  13  15
ENDBRANCH  10  11
ENDBRANCH   9  10
ENDBRANCH   5   6
ENDBRANCH   4   5
TORSDOF 9
ENDMDL
MODEL      183
REMARK 921   NORMALIZED FREE ENERGY PREDICTED BY IDOCK:   -4.75 KCAL/MOL
REMARK 922        TOTAL FREE ENERGY PREDICTED BY IDOCK:  -10.45 KCAL/MOL
REMARK 923 INTER-LIGAND FREE ENERGY PREDICTED BY IDOCK:   -7.65 KCAL/MOL
REMARK 924 INTRA-LIGAND FREE ENERGY PREDICTED BY IDOCK:   -2.79 KCAL/MOL
REMARK 927      BINDING AFFINITY PREDICTED BY RF-SCORE:    0.00 PKD
ROOT
HETATM    1  C   UNL     1      -9.139  16.007  67.145  1.00  0.00    -0.224 C  
HETATM    2  C   UNL     1      -8.006  14.983  67.113  1.00  0.00    -0.238 C  
HETATM    3  C   UNL     1      -6.666  15.685  67.356  1.00  0.00    -0.218 C  
HETATM    4  C   UNL     1      -8.289  13.865  68.135  1.00  0.00    -0.163 C  
ENDROOT
BRANCH   4   5
HETATM    5  C   UNL     1      -7.191  12.810  68.137  1.00  0.00    -0.115 C  
BRANCH   5   6
HETATM    6  C   UNL     1      -7.736  11.388  68.227  1.00  0.00    -0.124 C  
HETATM    7  C   UNL     1      -6.772  10.462  68.994  1.00  0.00    -0.061 C  
HETATM    8  C   UNL     1      -6.520  10.950  70.428  1.00  0.00    -0.040 C  
HETATM    9  C   UNL     1      -7.328   9.027  68.971  1.00  0.00    -0.073 C  
BRANCH   9  10
HETATM   10  C   UNL     1      -6.415   8.061  69.718  1.00  0.00    -0.037 C  
BRANCH  10  11
HETATM   11  C   UNL     1      -7.184   6.903  70.334  1.00  0.00    -0.076 C  
HETATM   12  C   UNL     1      -7.868   6.035  69.261  1.00  0.00    -0.103 C  
HETATM   13  C   UNL     1      -8.752   4.953  69.910  1.00  0.00    -0.117 C  
HETATM   14  C   UNL     1      -6.860   5.382  68.306  1.00  0.00    -0.060 C  
BRANCH  13  15
HETATM   15  C   UNL     1      -9.874   5.491  70.808  1.00  0.00    -0.247 C  
BRANCH  15  16
HETATM   16  C   UNL     1     -10.931   6.274  70.028  1.00  0.00    -0.422 C  
BRANCH  16  17
HETATM   17  C   UNL     1     -10.825   7.758  70.269  1.00  0.00    -0.252 C  
HETATM   18  C   UNL     1     -11.033   8.614  69.249  1.00  0.00     0.008 C  
HETATM   19  C   UNL     1     -10.542   8.197  71.675  1.00  0.00    -0.292 C  
BRANCH  18  20
HETATM   20  C   UNL     1     -11.054  10.119  69.324  1.00  0.00    -0.270 C  
BRANCH  20  21
HETATM   21  C   UNL     1     -10.997  10.744  67.945  1.00  0.00    -0.344 C  
HETATM   22  C   UNL     1     -10.507  10.134  66.845  1.00  0.00    -0.286 C  
HETATM   23  C   UNL     1      -9.890   8.760  66.806  1.00  0.00    -0.316 C  
HETATM   24  C   UNL     1     -10.564  10.797  65.509  1.00  0.00    -0.135 C  
HETATM   25  O   UNL     1     -10.081  10.265  64.518  1.00  0.00    -0.338 OA 
HETATM   26  C   UNL     1     -11.234  12.101  65.401  1.00  0.00    -0.381 A  
HETATM   27  C   UNL     1     -11.710  12.743  66.534  1.00  0.00    -0.463 A  
HETATM   28  C   UNL     1     -11.550  12.127  67.859  1.00  0.00    -0.347 C  
HETATM   29  C   UNL     1     -12.339  13.989  66.421  1.00  0.00    -0.468 A  
HETATM   30  C   UNL     1     -12.495  14.585  65.168  1.00  0.00    -0.286 A  
HETATM   31  O   UNL     1     -11.884  12.753  68.858  1.00  0.00    -0.305 OA 
HETATM   32  C   UNL     1     -12.020  13.938  64.027  1.00  0.00    -0.425 A  
HETATM   33  C   UNL     1     -11.389  12.698  64.141  1.00  0.00    -0.439 A  
ENDBRANCH  20  21
ENDBRANCH  18  20
ENDBRANCH  16  17
ENDBRANCH  15  16
ENDBRANCH  13  15
ENDBRANCH  10  11
ENDBRANCH   9  10
ENDBRANCH   5   6
ENDBRANCH   4   5
TORSDOF 9
ENDMDL
MODEL      184
REMARK 921   NORMALIZED FREE ENERGY PREDICTED BY IDOCK:   -4.74 KCAL/MOL
REMARK 922        TOTAL FREE ENERGY PREDICTED BY IDOCK:  -10.43 KCAL/MOL
REMARK 923 INTER-LIGAND FREE ENERGY PREDICTED BY IDOCK:   -8.67 KCAL/MOL
REMARK 924 INTRA-LIGAND FREE ENERGY PREDICTED BY IDOCK:   -1.76 KCAL/MOL
REMARK 927      BINDING AFFINITY PREDICTED BY RF-SCORE:    0.00 PKD
ROOT
HETATM    1  C   UNL     1      -8.413   8.047  73.470  1.00  0.00    -0.306 C  
HETATM    2  C   UNL     1      -9.632   7.772  72.592  1.00  0.00    -0.261 C  
HETATM    3  C   UNL     1     -10.782   7.240  73.453  1.00  0.00    -0.415 C  
HETATM    4  C   UNL     1     -10.009   9.048  71.814  1.00  0.00    -0.359 C  
ENDROOT
BRANCH   4   5
HETATM    5  C   UNL     1     -11.216   8.826  70.914  1.00  0.00    -0.320 C  
BRANCH   5   6
HETATM    6  C   UNL     1     -12.466   9.548  71.408  1.00  0.00    -0.450 C  
HETATM    7  C   UNL     1     -12.281  11.078  71.384  1.00  0.00    -0.292 C  
HETATM    8  C   UNL     1     -11.975  11.600  69.971  1.00  0.00    -0.429 C  
HETATM    9  C   UNL     1     -13.532  11.746  71.979  1.00  0.00    -0.319 C  
BRANCH   9  10
HETATM   10  C   UNL     1     -13.409  13.266  71.979  1.00  0.00    -0.582 C  
BRANCH  10  11
HETATM   11  C   UNL     1     -12.385  13.760  70.970  1.00  0.00    -0.452 C  
HETATM   12  C   UNL     1     -12.622  15.234  70.590  1.00  0.00    -0.471 C  
HETATM   13  C   UNL     1     -11.663  15.674  69.467  1.00  0.00    -0.382 C  
HETATM   14  C   UNL     1     -12.487  16.179  71.791  1.00  0.00    -0.321 C  
BRANCH  13  15
HETATM   15  C   UNL     1     -11.781  14.868  68.167  1.00  0.00    -0.344 C  
BRANCH  15  16
HETATM   16  C   UNL     1     -10.894  15.417  67.048  1.00  0.00    -0.320 C  
BRANCH  16  17
HETATM   17  C   UNL     1      -9.535  14.765  67.037  1.00  0.00    -0.241 C  
HETATM   18  C   UNL     1      -9.441  13.421  67.063  1.00  0.00    -0.247 C  
HETATM   19  C   UNL     1      -8.348  15.677  66.939  1.00  0.00    -0.287 C  
BRANCH  18  20
HETATM   20  C   UNL     1      -8.180  12.603  66.970  1.00  0.00    -0.110 C  
BRANCH  20  21
HETATM   21  C   UNL     1      -8.408  11.178  67.432  1.00  0.00    -0.135 C  
HETATM   22  C   UNL     1      -9.301  10.326  66.885  1.00  0.00    -0.183 C  
HETATM   23  C   UNL     1     -10.253  10.656  65.766  1.00  0.00    -0.317 C  
HETATM   24  C   UNL     1      -9.402   8.913  67.354  1.00  0.00    -0.136 C  
HETATM   25  O   UNL     1     -10.241   8.151  66.891  1.00  0.00    -0.266 OA 
HETATM   26  C   UNL     1      -8.455   8.443  68.376  1.00  0.00    -0.135 A  
HETATM   27  C   UNL     1      -7.557   9.324  68.960  1.00  0.00    -0.074 A  
HETATM   28  C   UNL     1      -7.543  10.739  68.567  1.00  0.00    -0.104 C  
HETATM   29  C   UNL     1      -6.666   8.867  69.939  1.00  0.00    -0.045 A  
HETATM   30  C   UNL     1      -6.672   7.525  70.323  1.00  0.00    -0.047 A  
HETATM   31  O   UNL     1      -6.815  11.523  69.165  1.00  0.00    -0.096 OA 
HETATM   32  C   UNL     1      -7.571   6.638  69.732  1.00  0.00    -0.104 A  
HETATM   33  C   UNL     1      -8.463   7.094  68.760  1.00  0.00    -0.126 A  
ENDBRANCH  20  21
ENDBRANCH  18  20
ENDBRANCH  16  17
ENDBRANCH  15  16
ENDBRANCH  13  15
ENDBRANCH  10  11
ENDBRANCH   9  10
ENDBRANCH   5   6
ENDBRANCH   4   5
TORSDOF 9
ENDMDL
MODEL      185
REMARK 921   NORMALIZED FREE ENERGY PREDICTED BY IDOCK:   -4.73 KCAL/MOL
REMARK 922        TOTAL FREE ENERGY PREDICTED BY IDOCK:  -10.43 KCAL/MOL
REMARK 923 INTER-LIGAND FREE ENERGY PREDICTED BY IDOCK:   -8.18 KCAL/MOL
REMARK 924 INTRA-LIGAND FREE ENERGY PREDICTED BY IDOCK:   -2.25 KCAL/MOL
REMARK 927      BINDING AFFINITY PREDICTED BY RF-SCORE:    0.00 PKD
ROOT
HETATM    1  C   UNL     1      -8.713   7.154  69.479  1.00  0.00    -0.134 C  
HETATM    2  C   UNL     1      -8.688   8.640  69.832  1.00  0.00    -0.133 C  
HETATM    3  C   UNL     1      -8.881   8.817  71.342  1.00  0.00    -0.292 C  
HETATM    4  C   UNL     1      -7.379   9.272  69.320  1.00  0.00    -0.070 C  
ENDROOT
BRANCH   4   5
HETATM    5  C   UNL     1      -7.307  10.759  69.639  1.00  0.00    -0.107 C  
BRANCH   5   6
HETATM    6  C   UNL     1      -6.643  11.572  68.532  1.00  0.00    -0.063 C  
HETATM    7  C   UNL     1      -6.675  13.081  68.842  1.00  0.00    -0.096 C  
HETATM    8  C   UNL     1      -5.952  13.416  70.156  1.00  0.00    -0.139 C  
HETATM    9  C   UNL     1      -6.078  13.852  67.652  1.00  0.00    -0.084 C  
BRANCH   9  10
HETATM   10  C   UNL     1      -6.081  15.356  67.902  1.00  0.00    -0.166 C  
BRANCH  10  11
HETATM   11  C   UNL     1      -7.446  15.978  67.656  1.00  0.00    -0.171 C  
HETATM   12  C   UNL     1      -7.364  17.513  67.550  1.00  0.00    -0.191 C  
HETATM   13  C   UNL     1      -8.771  18.133  67.439  1.00  0.00    -0.245 C  
HETATM   14  C   UNL     1      -6.497  17.975  66.372  1.00  0.00    -0.251 C  
BRANCH  13  15
HETATM   15  C   UNL     1      -9.703  17.830  68.620  1.00  0.00    -0.346 C  
BRANCH  15  16
HETATM   16  C   UNL     1     -11.004  17.154  68.188  1.00  0.00    -0.231 C  
BRANCH  16  17
HETATM   17  C   UNL     1     -11.041  15.699  68.583  1.00  0.00    -0.317 C  
HETATM   18  C   UNL     1     -11.778  14.832  67.860  1.00  0.00    -0.367 C  
HETATM   19  C   UNL     1     -10.189  15.292  69.749  1.00  0.00    -0.241 C  
BRANCH  18  20
HETATM   20  C   UNL     1     -11.863  13.341  68.054  1.00  0.00    -0.392 C  
BRANCH  20  21
HETATM   21  C   UNL     1     -11.462  12.594  66.797  1.00  0.00    -0.410 C  
HETATM   22  C   UNL     1     -11.810  12.957  65.544  1.00  0.00    -0.455 C  
HETATM   23  C   UNL     1     -12.692  14.123  65.184  1.00  0.00    -0.387 C  
HETATM   24  C   UNL     1     -11.303  12.206  64.358  1.00  0.00    -0.344 C  
HETATM   25  O   UNL     1     -11.652  12.505  63.224  1.00  0.00    -0.468 OA 
HETATM   26  C   UNL     1     -10.353  11.106  64.577  1.00  0.00    -0.400 A  
HETATM   27  C   UNL     1     -10.018  10.713  65.865  1.00  0.00    -0.312 A  
HETATM   28  C   UNL     1     -10.610  11.390  67.026  1.00  0.00    -0.248 C  
HETATM   29  C   UNL     1      -9.118   9.657  66.062  1.00  0.00    -0.212 A  
HETATM   30  C   UNL     1      -8.551   9.004  64.966  1.00  0.00    -0.207 A  
HETATM   31  O   UNL     1     -10.382  10.964  68.153  1.00  0.00    -0.167 OA 
HETATM   32  C   UNL     1      -8.885   9.402  63.672  1.00  0.00    -0.198 A  
HETATM   33  C   UNL     1      -9.785  10.451  63.475  1.00  0.00    -0.333 A  
ENDBRANCH  20  21
ENDBRANCH  18  20
ENDBRANCH  16  17
ENDBRANCH  15  16
ENDBRANCH  13  15
ENDBRANCH  10  11
ENDBRANCH   9  10
ENDBRANCH   5   6
ENDBRANCH   4   5
TORSDOF 9
ENDMDL
MODEL      186
REMARK 921   NORMALIZED FREE ENERGY PREDICTED BY IDOCK:   -4.73 KCAL/MOL
REMARK 922        TOTAL FREE ENERGY PREDICTED BY IDOCK:  -10.43 KCAL/MOL
REMARK 923 INTER-LIGAND FREE ENERGY PREDICTED BY IDOCK:   -9.08 KCAL/MOL
REMARK 924 INTRA-LIGAND FREE ENERGY PREDICTED BY IDOCK:   -1.35 KCAL/MOL
REMARK 927      BINDING AFFINITY PREDICTED BY RF-SCORE:    0.00 PKD
ROOT
HETATM    1  C   UNL     1      -7.140  11.838  67.738  1.00  0.00    -0.096 C  
HETATM    2  C   UNL     1      -7.523  11.104  66.455  1.00  0.00    -0.103 C  
HETATM    3  C   UNL     1      -6.260  10.583  65.760  1.00  0.00    -0.132 C  
HETATM    4  C   UNL     1      -8.531   9.986  66.778  1.00  0.00    -0.125 C  
ENDROOT
BRANCH   4   5
HETATM    5  C   UNL     1      -8.954   9.226  65.528  1.00  0.00    -0.251 C  
BRANCH   5   6
HETATM    6  C   UNL     1      -8.645   7.734  65.608  1.00  0.00    -0.147 C  
HETATM    7  C   UNL     1      -9.223   7.105  66.890  1.00  0.00    -0.174 C  
HETATM    8  C   UNL     1     -10.749   7.264  66.973  1.00  0.00    -0.406 C  
HETATM    9  C   UNL     1      -8.801   5.628  66.961  1.00  0.00    -0.111 C  
BRANCH   9  10
HETATM   10  C   UNL     1      -9.348   4.948  68.212  1.00  0.00    -0.168 C  
BRANCH  10  11
HETATM   11  C   UNL     1      -9.645   5.942  69.323  1.00  0.00    -0.172 C  
HETATM   12  C   UNL     1     -10.563   5.336  70.402  1.00  0.00    -0.278 C  
HETATM   13  C   UNL     1     -10.963   6.399  71.444  1.00  0.00    -0.316 C  
HETATM   14  C   UNL     1      -9.925   4.131  71.105  1.00  0.00    -0.211 C  
BRANCH  13  15
HETATM   15  C   UNL     1     -11.711   7.611  70.873  1.00  0.00    -0.291 C  
BRANCH  15  16
HETATM   16  C   UNL     1     -10.889   8.899  70.942  1.00  0.00    -0.308 C  
BRANCH  16  17
HETATM   17  C   UNL     1     -11.765  10.126  70.940  1.00  0.00    -0.468 C  
HETATM   18  C   UNL     1     -11.412  11.194  70.197  1.00  0.00    -0.361 C  
HETATM   19  C   UNL     1     -13.032  10.055  71.740  1.00  0.00    -0.560 C  
BRANCH  18  20
HETATM   20  C   UNL     1     -12.203  12.462  70.007  1.00  0.00    -0.264 C  
BRANCH  20  21
HETATM   21  C   UNL     1     -11.621  13.318  68.900  1.00  0.00    -0.357 C  
HETATM   22  C   UNL     1     -11.358  12.882  67.650  1.00  0.00    -0.349 C  
HETATM   23  C   UNL     1     -11.545  11.472  67.157  1.00  0.00    -0.249 C  
HETATM   24  C   UNL     1     -10.859  13.817  66.599  1.00  0.00    -0.288 C  
HETATM   25  O   UNL     1     -10.578  13.416  65.478  1.00  0.00    -0.277 OA 
HETATM   26  C   UNL     1     -10.730  15.243  66.933  1.00  0.00    -0.313 A  
HETATM   27  C   UNL     1     -10.971  15.687  68.225  1.00  0.00    -0.315 A  
HETATM   28  C   UNL     1     -11.356  14.738  69.277  1.00  0.00    -0.294 C  
HETATM   29  C   UNL     1     -10.836  17.047  68.534  1.00  0.00    -0.310 A  
HETATM   30  C   UNL     1     -10.468  17.959  67.543  1.00  0.00    -0.398 A  
HETATM   31  O   UNL     1     -11.464  15.130  70.433  1.00  0.00    -0.251 OA 
HETATM   32  C   UNL     1     -10.230  17.513  66.243  1.00  0.00    -0.356 A  
HETATM   33  C   UNL     1     -10.360  16.158  65.936  1.00  0.00    -0.384 A  
ENDBRANCH  20  21
ENDBRANCH  18  20
ENDBRANCH  16  17
ENDBRANCH  15  16
ENDBRANCH  13  15
ENDBRANCH  10  11
ENDBRANCH   9  10
ENDBRANCH   5   6
ENDBRANCH   4   5
TORSDOF 9
ENDMDL
MODEL      187
REMARK 921   NORMALIZED FREE ENERGY PREDICTED BY IDOCK:   -4.73 KCAL/MOL
REMARK 922        TOTAL FREE ENERGY PREDICTED BY IDOCK:  -10.42 KCAL/MOL
REMARK 923 INTER-LIGAND FREE ENERGY PREDICTED BY IDOCK:   -8.76 KCAL/MOL
REMARK 924 INTRA-LIGAND FREE ENERGY PREDICTED BY IDOCK:   -1.67 KCAL/MOL
REMARK 927      BINDING AFFINITY PREDICTED BY RF-SCORE:    0.00 PKD
ROOT
HETATM    1  C   UNL     1     -10.256   3.204  73.849  1.00  0.00    -0.207 C  
HETATM    2  C   UNL     1     -10.697   4.661  73.969  1.00  0.00    -0.352 C  
HETATM    3  C   UNL     1      -9.534   5.513  74.487  1.00  0.00    -0.153 C  
HETATM    4  C   UNL     1     -11.240   5.152  72.613  1.00  0.00    -0.277 C  
ENDROOT
BRANCH   4   5
HETATM    5  C   UNL     1     -11.703   6.601  72.681  1.00  0.00    -0.123 C  
BRANCH   5   6
HETATM    6  C   UNL     1     -10.776   7.555  71.934  1.00  0.00    -0.253 C  
HETATM    7  C   UNL     1     -10.121   6.871  70.718  1.00  0.00    -0.208 C  
HETATM    8  C   UNL     1     -11.164   6.361  69.712  1.00  0.00    -0.484 C  
HETATM    9  C   UNL     1      -9.130   7.849  70.064  1.00  0.00    -0.152 C  
BRANCH   9  10
HETATM   10  C   UNL     1      -8.449   7.227  68.849  1.00  0.00    -0.126 C  
BRANCH  10  11
HETATM   11  C   UNL     1      -8.524   8.126  67.625  1.00  0.00    -0.131 C  
HETATM   12  C   UNL     1      -8.812   7.323  66.343  1.00  0.00    -0.167 C  
HETATM   13  C   UNL     1      -8.746   8.230  65.099  1.00  0.00    -0.089 C  
HETATM   14  C   UNL     1     -10.166   6.604  66.392  1.00  0.00    -0.027 C  
BRANCH  13  15
HETATM   15  C   UNL     1      -7.396   8.924  64.879  1.00  0.00    -0.093 C  
BRANCH  15  16
HETATM   16  C   UNL     1      -7.544  10.380  64.437  1.00  0.00    -0.025 C  
BRANCH  16  17
HETATM   17  C   UNL     1      -8.990  10.806  64.377  1.00  0.00    -0.176 C  
HETATM   18  C   UNL     1      -9.588  11.287  65.485  1.00  0.00    -0.259 C  
HETATM   19  C   UNL     1      -9.667  10.714  63.042  1.00  0.00    -0.362 C  
BRANCH  18  20
HETATM   20  C   UNL     1     -10.987  11.836  65.588  1.00  0.00    -0.348 C  
BRANCH  20  21
HETATM   21  C   UNL     1     -11.300  12.294  66.999  1.00  0.00    -0.395 C  
HETATM   22  C   UNL     1     -11.418  13.584  67.379  1.00  0.00    -0.366 C  
HETATM   23  C   UNL     1     -11.210  14.782  66.490  1.00  0.00    -0.342 C  
HETATM   24  C   UNL     1     -11.808  13.941  68.775  1.00  0.00    -0.361 C  
HETATM   25  O   UNL     1     -11.873  15.109  69.134  1.00  0.00    -0.308 OA 
HETATM   26  C   UNL     1     -12.136  12.857  69.711  1.00  0.00    -0.312 A  
HETATM   27  C   UNL     1     -11.986  11.531  69.331  1.00  0.00    -0.392 A  
HETATM   28  C   UNL     1     -11.496  11.194  67.988  1.00  0.00    -0.293 C  
HETATM   29  C   UNL     1     -12.293  10.505  70.235  1.00  0.00    -0.377 A  
HETATM   30  C   UNL     1     -12.757  10.813  71.515  1.00  0.00    -0.536 A  
HETATM   31  O   UNL     1     -11.272  10.022  67.704  1.00  0.00    -0.248 OA 
HETATM   32  C   UNL     1     -12.912  12.146  71.896  1.00  0.00    -0.419 A  
HETATM   33  C   UNL     1     -12.601  13.168  70.997  1.00  0.00    -0.397 A  
ENDBRANCH  20  21
ENDBRANCH  18  20
ENDBRANCH  16  17
ENDBRANCH  15  16
ENDBRANCH  13  15
ENDBRANCH  10  11
ENDBRANCH   9  10
ENDBRANCH   5   6
ENDBRANCH   4   5
TORSDOF 9
ENDMDL
MODEL      188
REMARK 921   NORMALIZED FREE ENERGY PREDICTED BY IDOCK:   -4.73 KCAL/MOL
REMARK 922        TOTAL FREE ENERGY PREDICTED BY IDOCK:  -10.42 KCAL/MOL
REMARK 923 INTER-LIGAND FREE ENERGY PREDICTED BY IDOCK:   -8.49 KCAL/MOL
REMARK 924 INTRA-LIGAND FREE ENERGY PREDICTED BY IDOCK:   -1.93 KCAL/MOL
REMARK 927      BINDING AFFINITY PREDICTED BY RF-SCORE:    0.00 PKD
ROOT
HETATM    1  C   UNL     1      -6.602   9.514  69.071  1.00  0.00    -0.050 C  
HETATM    2  C   UNL     1      -6.710  10.951  69.576  1.00  0.00    -0.117 C  
HETATM    3  C   UNL     1      -5.579  11.238  70.570  1.00  0.00    -0.141 C  
HETATM    4  C   UNL     1      -6.715  11.922  68.380  1.00  0.00    -0.067 C  
ENDROOT
BRANCH   4   5
HETATM    5  C   UNL     1      -6.830  13.372  68.829  1.00  0.00    -0.101 C  
BRANCH   5   6
HETATM    6  C   UNL     1      -6.095  14.339  67.907  1.00  0.00    -0.157 C  
HETATM    7  C   UNL     1      -6.795  15.711  67.852  1.00  0.00    -0.159 C  
HETATM    8  C   UNL     1      -6.879  16.370  69.237  1.00  0.00    -0.218 C  
HETATM    9  C   UNL     1      -6.064  16.608  66.839  1.00  0.00    -0.169 C  
BRANCH   9  10
HETATM   10  C   UNL     1      -6.712  17.986  66.742  1.00  0.00    -0.222 C  
BRANCH  10  11
HETATM   11  C   UNL     1      -8.230  17.907  66.718  1.00  0.00    -0.273 C  
HETATM   12  C   UNL     1      -8.869  18.890  67.716  1.00  0.00    -0.318 C  
HETATM   13  C   UNL     1     -10.397  18.698  67.776  1.00  0.00    -0.454 C  
HETATM   14  C   UNL     1      -8.540  20.353  67.392  1.00  0.00    -0.403 C  
BRANCH  13  15
HETATM   15  C   UNL     1     -10.854  17.296  68.199  1.00  0.00    -0.294 C  
BRANCH  15  16
HETATM   16  C   UNL     1     -10.473  16.960  69.641  1.00  0.00    -0.158 C  
BRANCH  16  17
HETATM   17  C   UNL     1     -11.382  15.914  70.234  1.00  0.00    -0.381 C  
HETATM   18  C   UNL     1     -11.832  14.907  69.460  1.00  0.00    -0.360 C  
HETATM   19  C   UNL     1     -11.689  16.035  71.698  1.00  0.00    -0.583 C  
BRANCH  18  20
HETATM   20  C   UNL     1     -12.671  13.736  69.900  1.00  0.00     0.008 C  
BRANCH  20  21
HETATM   21  C   UNL     1     -11.951  12.421  69.674  1.00  0.00    -0.341 C  
HETATM   22  C   UNL     1     -11.158  12.153  68.615  1.00  0.00    -0.297 C  
HETATM   23  C   UNL     1     -10.894  13.082  67.460  1.00  0.00    -0.264 C  
HETATM   24  C   UNL     1     -10.424  10.857  68.514  1.00  0.00    -0.188 C  
HETATM   25  O   UNL     1      -9.740  10.592  67.535  1.00  0.00    -0.163 OA 
HETATM   26  C   UNL     1     -10.523   9.905  69.631  1.00  0.00    -0.273 A  
HETATM   27  C   UNL     1     -11.361  10.167  70.705  1.00  0.00    -0.433 A  
HETATM   28  C   UNL     1     -12.163  11.398  70.739  1.00  0.00    -0.376 C  
HETATM   29  C   UNL     1     -11.455   9.249  71.759  1.00  0.00    -0.448 A  
HETATM   30  C   UNL     1     -10.700   8.074  71.736  1.00  0.00    -0.296 A  
HETATM   31  O   UNL     1     -12.973  11.564  71.644  1.00  0.00    -0.437 OA 
HETATM   32  C   UNL     1      -9.854   7.814  70.658  1.00  0.00    -0.182 A  
HETATM   33  C   UNL     1      -9.765   8.726  69.606  1.00  0.00    -0.173 A  
ENDBRANCH  20  21
ENDBRANCH  18  20
ENDBRANCH  16  17
ENDBRANCH  15  16
ENDBRANCH  13  15
ENDBRANCH  10  11
ENDBRANCH   9  10
ENDBRANCH   5   6
ENDBRANCH   4   5
TORSDOF 9
ENDMDL
MODEL      189
REMARK 921   NORMALIZED FREE ENERGY PREDICTED BY IDOCK:   -4.67 KCAL/MOL
REMARK 922        TOTAL FREE ENERGY PREDICTED BY IDOCK:  -10.34 KCAL/MOL
REMARK 923 INTER-LIGAND FREE ENERGY PREDICTED BY IDOCK:   -8.57 KCAL/MOL
REMARK 924 INTRA-LIGAND FREE ENERGY PREDICTED BY IDOCK:   -1.77 KCAL/MOL
REMARK 927      BINDING AFFINITY PREDICTED BY RF-SCORE:    0.00 PKD
ROOT
HETATM    1  C   UNL     1     -12.202  15.865  72.717  1.00  0.00    -0.604 C  
HETATM    2  C   UNL     1     -12.205  14.596  71.868  1.00  0.00    -0.390 C  
HETATM    3  C   UNL     1     -13.427  13.739  72.220  1.00  0.00    -0.638 C  
HETATM    4  C   UNL     1     -12.149  14.971  70.375  1.00  0.00    -0.384 C  
ENDROOT
BRANCH   4   5
HETATM    5  C   UNL     1     -12.141  13.738  69.482  1.00  0.00    -0.386 C  
BRANCH   5   6
HETATM    6  C   UNL     1     -10.884  13.636  68.622  1.00  0.00    -0.283 C  
HETATM    7  C   UNL     1     -11.109  12.727  67.398  1.00  0.00    -0.312 C  
HETATM    8  C   UNL     1     -12.242  13.241  66.498  1.00  0.00    -0.389 C  
HETATM    9  C   UNL     1      -9.786  12.589  66.625  1.00  0.00    -0.245 C  
BRANCH   9  10
HETATM   10  C   UNL     1      -9.946  11.700  65.397  1.00  0.00    -0.287 C  
BRANCH  10  11
HETATM   11  C   UNL     1      -8.702  10.871  65.121  1.00  0.00    -0.130 C  
HETATM   12  C   UNL     1      -8.983   9.734  64.120  1.00  0.00    -0.276 C  
HETATM   13  C   UNL     1      -7.749   8.824  63.960  1.00  0.00    -0.131 C  
HETATM   14  C   UNL     1      -9.427  10.256  62.748  1.00  0.00    -0.323 C  
BRANCH  13  15
HETATM   15  C   UNL     1      -7.272   8.153  65.254  1.00  0.00    -0.068 C  
BRANCH  15  16
HETATM   16  C   UNL     1      -7.259   6.627  65.158  1.00  0.00    -0.074 C  
BRANCH  16  17
HETATM   17  C   UNL     1      -8.543   6.019  65.663  1.00  0.00    -0.154 C  
HETATM   18  C   UNL     1      -9.222   6.629  66.655  1.00  0.00    -0.179 C  
HETATM   19  C   UNL     1      -9.021   4.776  64.974  1.00  0.00    -0.153 C  
BRANCH  18  20
HETATM   20  C   UNL     1     -10.556   6.217  67.221  1.00  0.00    -0.362 C  
BRANCH  20  21
HETATM   21  C   UNL     1     -10.444   5.841  68.686  1.00  0.00    -0.298 C  
HETATM   22  C   UNL     1     -10.002   4.650  69.142  1.00  0.00    -0.208 C  
HETATM   23  C   UNL     1      -9.596   3.480  68.285  1.00  0.00    -0.161 C  
HETATM   24  C   UNL     1      -9.851   4.396  70.605  1.00  0.00    -0.210 C  
HETATM   25  O   UNL     1      -9.492   3.303  71.022  1.00  0.00    -0.136 OA 
HETATM   26  C   UNL     1     -10.122   5.497  71.540  1.00  0.00    -0.260 A  
HETATM   27  C   UNL     1     -10.605   6.711  71.076  1.00  0.00    -0.263 A  
HETATM   28  C   UNL     1     -10.854   6.912  69.642  1.00  0.00    -0.259 C  
HETATM   29  C   UNL     1     -10.869   7.750  71.977  1.00  0.00    -0.295 A  
HETATM   30  C   UNL     1     -10.639   7.571  73.342  1.00  0.00    -0.409 A  
HETATM   31  O   UNL     1     -11.377   7.953  69.261  1.00  0.00     0.158 OA 
HETATM   32  C   UNL     1     -10.148   6.351  73.809  1.00  0.00    -0.282 A  
HETATM   33  C   UNL     1      -9.890   5.314  72.911  1.00  0.00    -0.179 A  
ENDBRANCH  20  21
ENDBRANCH  18  20
ENDBRANCH  16  17
ENDBRANCH  15  16
ENDBRANCH  13  15
ENDBRANCH  10  11
ENDBRANCH   9  10
ENDBRANCH   5   6
ENDBRANCH   4   5
TORSDOF 9
ENDMDL
MODEL      190
REMARK 921   NORMALIZED FREE ENERGY PREDICTED BY IDOCK:   -4.67 KCAL/MOL
REMARK 922        TOTAL FREE ENERGY PREDICTED BY IDOCK:  -10.34 KCAL/MOL
REMARK 923 INTER-LIGAND FREE ENERGY PREDICTED BY IDOCK:   -6.50 KCAL/MOL
REMARK 924 INTRA-LIGAND FREE ENERGY PREDICTED BY IDOCK:   -3.83 KCAL/MOL
REMARK 927      BINDING AFFINITY PREDICTED BY RF-SCORE:    0.00 PKD
ROOT
HETATM    1  C   UNL     1     -11.450   1.803  73.618  1.00  0.00    -0.307 C  
HETATM    2  C   UNL     1     -10.386   2.715  73.011  1.00  0.00    -0.235 C  
HETATM    3  C   UNL     1      -9.798   2.063  71.755  1.00  0.00    -0.218 C  
HETATM    4  C   UNL     1     -10.991   4.105  72.734  1.00  0.00    -0.106 C  
ENDROOT
BRANCH   4   5
HETATM    5  C   UNL     1      -9.967   5.059  72.135  1.00  0.00    -0.236 C  
BRANCH   5   6
HETATM    6  C   UNL     1     -10.318   5.490  70.714  1.00  0.00    -0.321 C  
HETATM    7  C   UNL     1      -9.064   5.917  69.927  1.00  0.00    -0.156 C  
HETATM    8  C   UNL     1      -8.034   4.782  69.823  1.00  0.00    -0.066 C  
HETATM    9  C   UNL     1      -9.490   6.429  68.540  1.00  0.00    -0.120 C  
BRANCH   9  10
HETATM   10  C   UNL     1      -8.287   6.865  67.711  1.00  0.00    -0.120 C  
BRANCH  10  11
HETATM   11  C   UNL     1      -8.639   7.058  66.244  1.00  0.00    -0.142 C  
HETATM   12  C   UNL     1      -7.706   6.250  65.322  1.00  0.00    -0.096 C  
HETATM   13  C   UNL     1      -7.989   6.566  63.840  1.00  0.00    -0.080 C  
HETATM   14  C   UNL     1      -7.809   4.739  65.562  1.00  0.00    -0.094 C  
BRANCH  13  15
HETATM   15  C   UNL     1      -7.812   8.039  63.451  1.00  0.00    -0.147 C  
BRANCH  15  16
HETATM   16  C   UNL     1      -6.392   8.550  63.700  1.00  0.00    -0.077 C  
BRANCH  16  17
HETATM   17  C   UNL     1      -6.383   9.794  64.551  1.00  0.00    -0.111 C  
HETATM   18  C   UNL     1      -7.396  10.019  65.411  1.00  0.00    -0.139 C  
HETATM   19  C   UNL     1      -5.189  10.693  64.422  1.00  0.00    -0.140 C  
BRANCH  18  20
HETATM   20  C   UNL     1      -7.509  11.155  66.394  1.00  0.00    -0.103 C  
BRANCH  20  21
HETATM   21  C   UNL     1      -8.598  10.897  67.416  1.00  0.00    -0.127 C  
HETATM   22  C   UNL     1      -9.916  11.090  67.199  1.00  0.00    -0.218 C  
HETATM   23  C   UNL     1     -10.524  11.638  65.936  1.00  0.00    -0.300 C  
HETATM   24  C   UNL     1     -10.926  10.734  68.239  1.00  0.00    -0.255 C  
HETATM   25  O   UNL     1     -12.118  10.949  68.063  1.00  0.00    -0.563 OA 
HETATM   26  C   UNL     1     -10.461  10.097  69.480  1.00  0.00    -0.263 A  
HETATM   27  C   UNL     1      -9.105   9.926  69.717  1.00  0.00    -0.249 A  
HETATM   28  C   UNL     1      -8.115  10.381  68.731  1.00  0.00    -0.125 C  
HETATM   29  C   UNL     1      -8.673   9.326  70.907  1.00  0.00    -0.234 A  
HETATM   30  C   UNL     1      -9.604   8.892  71.852  1.00  0.00    -0.326 A  
HETATM   31  O   UNL     1      -6.922  10.316  69.002  1.00  0.00    -0.057 OA 
HETATM   32  C   UNL     1     -10.967   9.059  71.612  1.00  0.00    -0.435 A  
HETATM   33  C   UNL     1     -11.398   9.662  70.429  1.00  0.00    -0.337 A  
ENDBRANCH  20  21
ENDBRANCH  18  20
ENDBRANCH  16  17
ENDBRANCH  15  16
ENDBRANCH  13  15
ENDBRANCH  10  11
ENDBRANCH   9  10
ENDBRANCH   5   6
ENDBRANCH   4   5
TORSDOF 9
ENDMDL
MODEL      191
REMARK 921   NORMALIZED FREE ENERGY PREDICTED BY IDOCK:   -4.67 KCAL/MOL
REMARK 922        TOTAL FREE ENERGY PREDICTED BY IDOCK:  -10.32 KCAL/MOL
REMARK 923 INTER-LIGAND FREE ENERGY PREDICTED BY IDOCK:   -8.81 KCAL/MOL
REMARK 924 INTRA-LIGAND FREE ENERGY PREDICTED BY IDOCK:   -1.52 KCAL/MOL
REMARK 927      BINDING AFFINITY PREDICTED BY RF-SCORE:    0.00 PKD
ROOT
HETATM    1  C   UNL     1      -5.912   9.743  70.031  1.00  0.00    -0.046 C  
HETATM    2  C   UNL     1      -6.328  11.209  70.131  1.00  0.00    -0.137 C  
HETATM    3  C   UNL     1      -5.137  12.057  70.591  1.00  0.00    -0.119 C  
HETATM    4  C   UNL     1      -6.907  11.676  68.781  1.00  0.00    -0.090 C  
ENDROOT
BRANCH   4   5
HETATM    5  C   UNL     1      -7.348  13.133  68.829  1.00  0.00    -0.068 C  
BRANCH   5   6
HETATM    6  C   UNL     1      -6.635  14.002  67.797  1.00  0.00    -0.188 C  
HETATM    7  C   UNL     1      -6.741  15.498  68.148  1.00  0.00    -0.135 C  
HETATM    8  C   UNL     1      -6.126  15.814  69.520  1.00  0.00    -0.147 C  
HETATM    9  C   UNL     1      -6.088  16.326  67.028  1.00  0.00    -0.074 C  
BRANCH   9  10
HETATM   10  C   UNL     1      -6.161  17.821  67.321  1.00  0.00    -0.165 C  
BRANCH  10  11
HETATM   11  C   UNL     1      -7.569  18.371  67.164  1.00  0.00    -0.232 C  
HETATM   12  C   UNL     1      -8.207  18.707  68.525  1.00  0.00    -0.370 C  
HETATM   13  C   UNL     1      -9.679  19.131  68.354  1.00  0.00    -0.451 C  
HETATM   14  C   UNL     1      -7.436  19.797  69.281  1.00  0.00    -0.206 C  
BRANCH  13  15
HETATM   15  C   UNL     1     -10.581  18.074  67.704  1.00  0.00    -0.413 C  
BRANCH  15  16
HETATM   16  C   UNL     1     -10.051  17.593  66.353  1.00  0.00    -0.356 C  
BRANCH  16  17
HETATM   17  C   UNL     1     -10.428  16.160  66.077  1.00  0.00    -0.349 C  
HETATM   18  C   UNL     1     -10.237  15.227  67.031  1.00  0.00    -0.260 C  
HETATM   19  C   UNL     1     -11.057  15.869  64.747  1.00  0.00    -0.397 C  
BRANCH  18  20
HETATM   20  C   UNL     1     -10.632  13.775  66.964  1.00  0.00    -0.278 C  
BRANCH  20  21
HETATM   21  C   UNL     1     -11.198  13.292  68.285  1.00  0.00    -0.309 C  
HETATM   22  C   UNL     1     -11.895  14.061  69.148  1.00  0.00    -0.391 C  
HETATM   23  C   UNL     1     -12.185  15.528  68.977  1.00  0.00    -0.147 C  
HETATM   24  C   UNL     1     -12.484  13.480  70.391  1.00  0.00    -0.275 C  
HETATM   25  O   UNL     1     -13.078  14.182  71.197  1.00  0.00    -0.337 OA 
HETATM   26  C   UNL     1     -12.353  12.033  70.620  1.00  0.00    -0.394 A  
HETATM   27  C   UNL     1     -11.612  11.248  69.749  1.00  0.00    -0.408 A  
HETATM   28  C   UNL     1     -10.945  11.852  68.588  1.00  0.00    -0.228 C  
HETATM   29  C   UNL     1     -11.486   9.872  69.982  1.00  0.00    -0.274 A  
HETATM   30  C   UNL     1     -12.113   9.287  71.084  1.00  0.00    -0.389 A  
HETATM   31  O   UNL     1     -10.211  11.164  67.889  1.00  0.00    -0.173 OA 
HETATM   32  C   UNL     1     -12.863  10.075  71.956  1.00  0.00    -0.484 A  
HETATM   33  C   UNL     1     -12.983  11.447  71.727  1.00  0.00    -0.519 A  
ENDBRANCH  20  21
ENDBRANCH  18  20
ENDBRANCH  16  17
ENDBRANCH  15  16
ENDBRANCH  13  15
ENDBRANCH  10  11
ENDBRANCH   9  10
ENDBRANCH   5   6
ENDBRANCH   4   5
TORSDOF 9
ENDMDL
MODEL      192
REMARK 921   NORMALIZED FREE ENERGY PREDICTED BY IDOCK:   -4.66 KCAL/MOL
REMARK 922        TOTAL FREE ENERGY PREDICTED BY IDOCK:  -10.32 KCAL/MOL
REMARK 923 INTER-LIGAND FREE ENERGY PREDICTED BY IDOCK:   -8.93 KCAL/MOL
REMARK 924 INTRA-LIGAND FREE ENERGY PREDICTED BY IDOCK:   -1.39 KCAL/MOL
REMARK 927      BINDING AFFINITY PREDICTED BY RF-SCORE:    0.00 PKD
ROOT
HETATM    1  C   UNL     1      -7.449   3.881  72.605  1.00  0.00    -0.064 C  
HETATM    2  C   UNL     1      -7.573   3.761  71.088  1.00  0.00    -0.044 C  
HETATM    3  C   UNL     1      -7.038   2.401  70.629  1.00  0.00    -0.033 C  
HETATM    4  C   UNL     1      -9.036   4.000  70.666  1.00  0.00    -0.151 C  
ENDROOT
BRANCH   4   5
HETATM    5  C   UNL     1      -9.213   3.901  69.157  1.00  0.00    -0.222 C  
BRANCH   5   6
HETATM    6  C   UNL     1     -10.098   5.007  68.591  1.00  0.00    -0.191 C  
HETATM    7  C   UNL     1      -9.259   6.189  68.067  1.00  0.00    -0.116 C  
HETATM    8  C   UNL     1      -8.289   5.760  66.956  1.00  0.00    -0.108 C  
HETATM    9  C   UNL     1     -10.205   7.307  67.596  1.00  0.00    -0.257 C  
BRANCH   9  10
HETATM   10  C   UNL     1      -9.430   8.508  67.063  1.00  0.00    -0.223 C  
BRANCH  10  11
HETATM   11  C   UNL     1     -10.148   9.189  65.909  1.00  0.00    -0.118 C  
HETATM   12  C   UNL     1      -9.176   9.995  65.027  1.00  0.00    -0.277 C  
HETATM   13  C   UNL     1      -9.939  10.787  63.948  1.00  0.00    -0.404 C  
HETATM   14  C   UNL     1      -8.110   9.110  64.368  1.00  0.00    -0.145 C  
BRANCH  13  15
HETATM   15  C   UNL     1     -10.963  11.792  64.491  1.00  0.00    -0.382 C  
BRANCH  15  16
HETATM   16  C   UNL     1     -10.551  13.245  64.249  1.00  0.00    -0.402 C  
BRANCH  16  17
HETATM   17  C   UNL     1     -10.379  14.004  65.541  1.00  0.00    -0.354 C  
HETATM   18  C   UNL     1      -9.697  13.440  66.557  1.00  0.00    -0.284 C  
HETATM   19  C   UNL     1     -10.946  15.392  65.591  1.00  0.00    -0.330 C  
BRANCH  18  20
HETATM   20  C   UNL     1      -9.355  14.080  67.877  1.00  0.00    -0.206 C  
BRANCH  20  21
HETATM   21  C   UNL     1     -10.462  13.881  68.893  1.00  0.00    -0.199 C  
HETATM   22  C   UNL     1     -11.165  12.740  69.050  1.00  0.00    -0.317 C  
HETATM   23  C   UNL     1     -11.010  11.495  68.217  1.00  0.00    -0.272 C  
HETATM   24  C   UNL     1     -12.186  12.608  70.131  1.00  0.00    -0.238 C  
HETATM   25  O   UNL     1     -12.855  11.590  70.248  1.00  0.00    -0.054 OA 
HETATM   26  C   UNL     1     -12.357  13.723  71.074  1.00  0.00    -0.452 A  
HETATM   27  C   UNL     1     -11.658  14.907  70.896  1.00  0.00    -0.344 A  
HETATM   28  C   UNL     1     -10.736  15.063  69.762  1.00  0.00    -0.244 C  
HETATM   29  C   UNL     1     -11.836  15.967  71.795  1.00  0.00    -0.599 A  
HETATM   30  C   UNL     1     -12.711  15.832  72.875  1.00  0.00    -0.572 A  
HETATM   31  O   UNL     1     -10.206  16.150  69.562  1.00  0.00    -0.248 OA 
HETATM   32  C   UNL     1     -13.411  14.639  73.056  1.00  0.00    -0.527 A  
HETATM   33  C   UNL     1     -13.237  13.585  72.158  1.00  0.00    -0.551 A  
ENDBRANCH  20  21
ENDBRANCH  18  20
ENDBRANCH  16  17
ENDBRANCH  15  16
ENDBRANCH  13  15
ENDBRANCH  10  11
ENDBRANCH   9  10
ENDBRANCH   5   6
ENDBRANCH   4   5
TORSDOF 9
ENDMDL
MODEL      193
REMARK 921   NORMALIZED FREE ENERGY PREDICTED BY IDOCK:   -4.60 KCAL/MOL
REMARK 922        TOTAL FREE ENERGY PREDICTED BY IDOCK:  -10.23 KCAL/MOL
REMARK 923 INTER-LIGAND FREE ENERGY PREDICTED BY IDOCK:   -8.79 KCAL/MOL
REMARK 924 INTRA-LIGAND FREE ENERGY PREDICTED BY IDOCK:   -1.44 KCAL/MOL
REMARK 927      BINDING AFFINITY PREDICTED BY RF-SCORE:    0.00 PKD
ROOT
HETATM    1  C   UNL     1      -7.482   3.020  62.573  1.00  0.00    -0.052 C  
HETATM    2  C   UNL     1      -7.307   2.476  63.989  1.00  0.00    -0.058 C  
HETATM    3  C   UNL     1      -5.821   2.467  64.362  1.00  0.00    -0.013 C  
HETATM    4  C   UNL     1      -8.163   3.300  64.970  1.00  0.00    -0.094 C  
ENDROOT
BRANCH   4   5
HETATM    5  C   UNL     1      -8.032   2.793  66.400  1.00  0.00    -0.081 C  
BRANCH   5   6
HETATM    6  C   UNL     1      -7.645   3.891  67.386  1.00  0.00    -0.072 C  
HETATM    7  C   UNL     1      -8.870   4.406  68.167  1.00  0.00    -0.128 C  
HETATM    8  C   UNL     1      -9.555   3.288  68.968  1.00  0.00    -0.101 C  
HETATM    9  C   UNL     1      -8.435   5.571  69.073  1.00  0.00    -0.101 C  
BRANCH   9  10
HETATM   10  C   UNL     1      -9.608   6.123  69.876  1.00  0.00    -0.183 C  
BRANCH  10  11
HETATM   11  C   UNL     1      -9.914   7.571  69.527  1.00  0.00    -0.180 C  
HETATM   12  C   UNL     1      -9.733   8.502  70.741  1.00  0.00    -0.221 C  
HETATM   13  C   UNL     1     -10.179   9.938  70.404  1.00  0.00    -0.299 C  
HETATM   14  C   UNL     1      -8.290   8.513  71.262  1.00  0.00    -0.193 C  
BRANCH  13  15
HETATM   15  C   UNL     1     -11.645  10.072  69.972  1.00  0.00    -0.279 C  
BRANCH  15  16
HETATM   16  C   UNL     1     -11.965  11.447  69.385  1.00  0.00    -0.407 C  
BRANCH  16  17
HETATM   17  C   UNL     1     -10.992  11.838  68.302  1.00  0.00    -0.274 C  
HETATM   18  C   UNL     1     -10.297  12.987  68.415  1.00  0.00    -0.257 C  
HETATM   19  C   UNL     1     -10.815  10.870  67.169  1.00  0.00    -0.337 C  
BRANCH  18  20
HETATM   20  C   UNL     1      -9.227  13.490  67.481  1.00  0.00    -0.219 C  
BRANCH  20  21
HETATM   21  C   UNL     1      -9.542  14.884  66.977  1.00  0.00    -0.245 C  
HETATM   22  C   UNL     1     -10.203  15.155  65.831  1.00  0.00    -0.345 C  
HETATM   23  C   UNL     1     -10.693  14.134  64.840  1.00  0.00    -0.444 C  
HETATM   24  C   UNL     1     -10.539  16.560  65.453  1.00  0.00    -0.276 C  
HETATM   25  O   UNL     1     -11.099  16.812  64.394  1.00  0.00    -1.072 OA 
HETATM   26  C   UNL     1     -10.201  17.640  66.391  1.00  0.00    -0.364 A  
HETATM   27  C   UNL     1      -9.495  17.366  67.553  1.00  0.00    -0.250 A  
HETATM   28  C   UNL     1      -9.074  15.992  67.860  1.00  0.00    -0.187 C  
HETATM   29  C   UNL     1      -9.169  18.404  68.435  1.00  0.00    -0.341 A  
HETATM   30  C   UNL     1      -9.561  19.714  68.152  1.00  0.00    -0.474 A  
HETATM   31  O   UNL     1      -8.364  15.784  68.837  1.00  0.00    -0.180 OA 
HETATM   32  C   UNL     1     -10.275  19.989  66.987  1.00  0.00    -0.587 A  
HETATM   33  C   UNL     1     -10.595  18.955  66.105  1.00  0.00    -0.476 A  
ENDBRANCH  20  21
ENDBRANCH  18  20
ENDBRANCH  16  17
ENDBRANCH  15  16
ENDBRANCH  13  15
ENDBRANCH  10  11
ENDBRANCH   9  10
ENDBRANCH   5   6
ENDBRANCH   4   5
TORSDOF 9
ENDMDL
MODEL      194
REMARK 921   NORMALIZED FREE ENERGY PREDICTED BY IDOCK:   -4.60 KCAL/MOL
REMARK 922        TOTAL FREE ENERGY PREDICTED BY IDOCK:  -10.22 KCAL/MOL
REMARK 923 INTER-LIGAND FREE ENERGY PREDICTED BY IDOCK:   -6.93 KCAL/MOL
REMARK 924 INTRA-LIGAND FREE ENERGY PREDICTED BY IDOCK:   -3.29 KCAL/MOL
REMARK 927      BINDING AFFINITY PREDICTED BY RF-SCORE:    0.00 PKD
ROOT
HETATM    1  C   UNL     1     -13.843   9.514  71.719  1.00  0.00    -0.313 C  
HETATM    2  C   UNL     1     -13.033  10.549  70.944  1.00  0.00    -0.455 C  
HETATM    3  C   UNL     1     -12.962  11.856  71.741  1.00  0.00    -0.455 C  
HETATM    4  C   UNL     1     -11.641   9.977  70.612  1.00  0.00    -0.422 C  
ENDROOT
BRANCH   4   5
HETATM    5  C   UNL     1     -10.793  10.969  69.829  1.00  0.00    -0.205 C  
BRANCH   5   6
HETATM    6  C   UNL     1     -11.506  11.514  68.595  1.00  0.00    -0.354 C  
HETATM    7  C   UNL     1     -10.814  11.060  67.295  1.00  0.00    -0.335 C  
HETATM    8  C   UNL     1     -10.775   9.530  67.166  1.00  0.00    -0.252 C  
HETATM    9  C   UNL     1     -11.518  11.715  66.095  1.00  0.00    -0.198 C  
BRANCH   9  10
HETATM   10  C   UNL     1     -10.877  11.300  64.775  1.00  0.00    -0.314 C  
BRANCH  10  11
HETATM   11  C   UNL     1      -9.360  11.401  64.816  1.00  0.00    -0.118 C  
HETATM   12  C   UNL     1      -8.688  10.153  64.213  1.00  0.00    -0.218 C  
HETATM   13  C   UNL     1      -7.158  10.213  64.389  1.00  0.00    -0.111 C  
HETATM   14  C   UNL     1      -9.035   9.957  62.732  1.00  0.00    -0.272 C  
BRANCH  13  15
HETATM   15  C   UNL     1      -6.680  10.301  65.844  1.00  0.00    -0.117 C  
BRANCH  15  16
HETATM   16  C   UNL     1      -5.337   9.606  66.069  1.00  0.00    -0.036 C  
BRANCH  16  17
HETATM   17  C   UNL     1      -5.507   8.232  66.666  1.00  0.00    -0.032 C  
HETATM   18  C   UNL     1      -6.013   8.105  67.908  1.00  0.00    -0.043 C  
HETATM   19  C   UNL     1      -5.145   7.065  65.795  1.00  0.00    -0.023 C  
BRANCH  18  20
HETATM   20  C   UNL     1      -6.332   6.819  68.625  1.00  0.00    -0.031 C  
BRANCH  20  21
HETATM   21  C   UNL     1      -7.782   6.773  69.065  1.00  0.00    -0.110 C  
HETATM   22  C   UNL     1      -8.813   6.409  68.275  1.00  0.00    -0.115 C  
HETATM   23  C   UNL     1      -8.712   6.037  66.819  1.00  0.00    -0.119 C  
HETATM   24  C   UNL     1     -10.201   6.317  68.816  1.00  0.00    -0.178 C  
HETATM   25  O   UNL     1     -11.145   6.029  68.092  1.00  0.00    -0.306 OA 
HETATM   26  C   UNL     1     -10.412   6.559  70.251  1.00  0.00    -0.261 A  
HETATM   27  C   UNL     1      -9.359   6.963  71.058  1.00  0.00    -0.156 A  
HETATM   28  C   UNL     1      -8.018   7.156  70.489  1.00  0.00    -0.105 C  
HETATM   29  C   UNL     1      -9.573   7.200  72.422  1.00  0.00    -0.168 A  
HETATM   30  C   UNL     1     -10.844   7.022  72.974  1.00  0.00    -0.342 A  
HETATM   31  O   UNL     1      -7.125   7.611  71.193  1.00  0.00    -0.053 OA 
HETATM   32  C   UNL     1     -11.902   6.611  72.164  1.00  0.00    -0.337 A  
HETATM   33  C   UNL     1     -11.689   6.380  70.803  1.00  0.00    -0.378 A  
ENDBRANCH  20  21
ENDBRANCH  18  20
ENDBRANCH  16  17
ENDBRANCH  15  16
ENDBRANCH  13  15
ENDBRANCH  10  11
ENDBRANCH   9  10
ENDBRANCH   5   6
ENDBRANCH   4   5
TORSDOF 9
ENDMDL
MODEL      195
REMARK 921   NORMALIZED FREE ENERGY PREDICTED BY IDOCK:   -4.60 KCAL/MOL
REMARK 922        TOTAL FREE ENERGY PREDICTED BY IDOCK:  -10.22 KCAL/MOL
REMARK 923 INTER-LIGAND FREE ENERGY PREDICTED BY IDOCK:   -8.18 KCAL/MOL
REMARK 924 INTRA-LIGAND FREE ENERGY PREDICTED BY IDOCK:   -2.03 KCAL/MOL
REMARK 927      BINDING AFFINITY PREDICTED BY RF-SCORE:    0.00 PKD
ROOT
HETATM    1  C   UNL     1      -5.307   6.346  73.013  1.00  0.00    -0.037 C  
HETATM    2  C   UNL     1      -6.170   6.237  71.758  1.00  0.00    -0.042 C  
HETATM    3  C   UNL     1      -6.013   7.504  70.909  1.00  0.00    -0.035 C  
HETATM    4  C   UNL     1      -5.805   4.954  70.987  1.00  0.00    -0.017 C  
ENDROOT
BRANCH   4   5
HETATM    5  C   UNL     1      -6.645   4.792  69.728  1.00  0.00    -0.036 C  
BRANCH   5   6
HETATM    6  C   UNL     1      -8.108   4.483  70.027  1.00  0.00    -0.067 C  
HETATM    7  C   UNL     1      -9.030   5.642  69.601  1.00  0.00    -0.135 C  
HETATM    8  C   UNL     1      -8.920   5.945  68.099  1.00  0.00    -0.115 C  
HETATM    9  C   UNL     1     -10.475   5.314  70.012  1.00  0.00    -0.351 C  
BRANCH   9  10
HETATM   10  C   UNL     1     -11.437   6.428  69.614  1.00  0.00    -0.446 C  
BRANCH  10  11
HETATM   11  C   UNL     1     -11.168   7.719  70.371  1.00  0.00    -0.246 C  
HETATM   12  C   UNL     1     -12.473   8.454  70.730  1.00  0.00     0.126 C  
HETATM   13  C   UNL     1     -12.175   9.823  71.372  1.00  0.00    -0.486 C  
HETATM   14  C   UNL     1     -13.375   7.629  71.657  1.00  0.00    -0.400 C  
BRANCH  13  15
HETATM   15  C   UNL     1     -11.366  10.784  70.492  1.00  0.00    -0.289 C  
BRANCH  15  16
HETATM   16  C   UNL     1     -12.093  11.154  69.198  1.00  0.00    -0.352 C  
BRANCH  16  17
HETATM   17  C   UNL     1     -11.143  11.277  68.034  1.00  0.00    -0.325 C  
HETATM   18  C   UNL     1     -11.457  12.085  67.002  1.00  0.00    -0.402 C  
HETATM   19  C   UNL     1      -9.853  10.517  68.130  1.00  0.00    -0.169 C  
BRANCH  18  20
HETATM   20  C   UNL     1     -10.596  12.395  65.805  1.00  0.00    -0.288 C  
BRANCH  20  21
HETATM   21  C   UNL     1     -10.229  13.865  65.752  1.00  0.00    -0.331 C  
HETATM   22  C   UNL     1     -10.976  14.822  65.161  1.00  0.00    -0.403 C  
HETATM   23  C   UNL     1     -12.263  14.592  64.414  1.00  0.00    -0.480 C  
HETATM   24  C   UNL     1     -10.576  16.258  65.226  1.00  0.00    -0.336 C  
HETATM   25  O   UNL     1     -11.226  17.122  64.654  1.00  0.00    -1.003 OA 
HETATM   26  C   UNL     1      -9.388  16.621  66.013  1.00  0.00    -0.270 A  
HETATM   27  C   UNL     1      -8.603  15.636  66.595  1.00  0.00    -0.330 A  
HETATM   28  C   UNL     1      -8.948  14.218  66.431  1.00  0.00    -0.061 C  
HETATM   29  C   UNL     1      -7.469  15.993  67.336  1.00  0.00    -0.208 A  
HETATM   30  C   UNL     1      -7.129  17.338  67.496  1.00  0.00    -0.181 A  
HETATM   31  O   UNL     1      -8.188  13.359  66.865  1.00  0.00    -0.092 OA 
HETATM   32  C   UNL     1      -7.921  18.328  66.915  1.00  0.00    -0.251 A  
HETATM   33  C   UNL     1      -9.049  17.972  66.173  1.00  0.00    -0.124 A  
ENDBRANCH  20  21
ENDBRANCH  18  20
ENDBRANCH  16  17
ENDBRANCH  15  16
ENDBRANCH  13  15
ENDBRANCH  10  11
ENDBRANCH   9  10
ENDBRANCH   5   6
ENDBRANCH   4   5
TORSDOF 9
ENDMDL
MODEL      196
REMARK 921   NORMALIZED FREE ENERGY PREDICTED BY IDOCK:   -4.59 KCAL/MOL
REMARK 922        TOTAL FREE ENERGY PREDICTED BY IDOCK:  -10.21 KCAL/MOL
REMARK 923 INTER-LIGAND FREE ENERGY PREDICTED BY IDOCK:   -8.46 KCAL/MOL
REMARK 924 INTRA-LIGAND FREE ENERGY PREDICTED BY IDOCK:   -1.76 KCAL/MOL
REMARK 927      BINDING AFFINITY PREDICTED BY RF-SCORE:    0.00 PKD
ROOT
HETATM    1  C   UNL     1      -7.097  20.329  66.112  1.00  0.00    -0.295 C  
HETATM    2  C   UNL     1      -7.176  18.804  66.141  1.00  0.00    -0.294 C  
HETATM    3  C   UNL     1      -5.789  18.208  65.880  1.00  0.00    -0.243 C  
HETATM    4  C   UNL     1      -7.782  18.342  67.480  1.00  0.00    -0.231 C  
ENDROOT
BRANCH   4   5
HETATM    5  C   UNL     1      -7.892  16.825  67.557  1.00  0.00    -0.187 C  
BRANCH   5   6
HETATM    6  C   UNL     1      -8.760  16.237  66.450  1.00  0.00    -0.354 C  
HETATM    7  C   UNL     1     -10.018  15.554  67.020  1.00  0.00    -0.240 C  
HETATM    8  C   UNL     1     -10.893  16.531  67.820  1.00  0.00    -0.304 C  
HETATM    9  C   UNL     1     -10.802  14.900  65.869  1.00  0.00    -0.336 C  
BRANCH   9  10
HETATM   10  C   UNL     1     -12.064  14.207  66.373  1.00  0.00    -0.475 C  
BRANCH  10  11
HETATM   11  C   UNL     1     -11.987  12.696  66.227  1.00  0.00    -0.439 C  
HETATM   12  C   UNL     1     -11.212  12.048  67.390  1.00  0.00    -0.368 C  
HETATM   13  C   UNL     1     -11.027  10.537  67.154  1.00  0.00    -0.294 C  
HETATM   14  C   UNL     1     -11.885  12.285  68.748  1.00  0.00    -0.356 C  
BRANCH  13  15
HETATM   15  C   UNL     1     -10.265  10.174  65.872  1.00  0.00    -0.281 C  
BRANCH  15  16
HETATM   16  C   UNL     1      -9.477   8.870  66.002  1.00  0.00    -0.320 C  
BRANCH  16  17
HETATM   17  C   UNL     1      -8.592   8.867  67.222  1.00  0.00    -0.119 C  
HETATM   18  C   UNL     1      -8.755   7.912  68.160  1.00  0.00    -0.126 C  
HETATM   19  C   UNL     1      -7.524   9.919  67.287  1.00  0.00    -0.087 C  
BRANCH  18  20
HETATM   20  C   UNL     1      -7.912   7.703  69.390  1.00  0.00    -0.125 C  
BRANCH  20  21
HETATM   21  C   UNL     1      -8.712   7.067  70.510  1.00  0.00    -0.153 C  
HETATM   22  C   UNL     1      -9.535   7.739  71.343  1.00  0.00    -0.173 C  
HETATM   23  C   UNL     1      -9.760   9.227  71.341  1.00  0.00    -0.269 C  
HETATM   24  C   UNL     1     -10.346   7.017  72.368  1.00  0.00    -0.203 C  
HETATM   25  O   UNL     1     -11.059   7.626  73.153  1.00  0.00    -0.404 OA 
HETATM   26  C   UNL     1     -10.288   5.548  72.402  1.00  0.00    -0.251 A  
HETATM   27  C   UNL     1      -9.421   4.859  71.567  1.00  0.00    -0.208 A  
HETATM   28  C   UNL     1      -8.547   5.589  70.638  1.00  0.00    -0.129 C  
HETATM   29  C   UNL     1      -9.367   3.461  71.614  1.00  0.00    -0.206 A  
HETATM   30  C   UNL     1     -10.191   2.756  72.495  1.00  0.00    -0.226 A  
HETATM   31  O   UNL     1      -7.715   4.972  69.982  1.00  0.00    -0.061 OA 
HETATM   32  C   UNL     1     -11.066   3.448  73.331  1.00  0.00    -0.288 A  
HETATM   33  C   UNL     1     -11.116   4.842  73.287  1.00  0.00    -0.410 A  
ENDBRANCH  20  21
ENDBRANCH  18  20
ENDBRANCH  16  17
ENDBRANCH  15  16
ENDBRANCH  13  15
ENDBRANCH  10  11
ENDBRANCH   9  10
ENDBRANCH   5   6
ENDBRANCH   4   5
TORSDOF 9
ENDMDL
MODEL      197
REMARK 921   NORMALIZED FREE ENERGY PREDICTED BY IDOCK:   -4.57 KCAL/MOL
REMARK 922        TOTAL FREE ENERGY PREDICTED BY IDOCK:  -10.17 KCAL/MOL
REMARK 923 INTER-LIGAND FREE ENERGY PREDICTED BY IDOCK:   -8.49 KCAL/MOL
REMARK 924 INTRA-LIGAND FREE ENERGY PREDICTED BY IDOCK:   -1.69 KCAL/MOL
REMARK 927      BINDING AFFINITY PREDICTED BY RF-SCORE:    0.00 PKD
ROOT
HETATM    1  C   UNL     1     -12.303   6.219  72.205  1.00  0.00    -0.193 C  
HETATM    2  C   UNL     1     -11.071   6.922  71.640  1.00  0.00    -0.271 C  
HETATM    3  C   UNL     1     -10.183   7.413  72.789  1.00  0.00    -0.287 C  
HETATM    4  C   UNL     1     -10.331   5.976  70.676  1.00  0.00    -0.280 C  
ENDROOT
BRANCH   4   5
HETATM    5  C   UNL     1      -9.095   6.633  70.076  1.00  0.00    -0.151 C  
BRANCH   5   6
HETATM    6  C   UNL     1      -9.389   7.998  69.461  1.00  0.00    -0.156 C  
HETATM    7  C   UNL     1      -9.014   8.036  67.966  1.00  0.00    -0.130 C  
HETATM    8  C   UNL     1      -9.786   6.987  67.151  1.00  0.00    -0.206 C  
HETATM    9  C   UNL     1      -9.244   9.458  67.426  1.00  0.00    -0.145 C  
BRANCH   9  10
HETATM   10  C   UNL     1      -8.891   9.559  65.946  1.00  0.00    -0.193 C  
BRANCH  10  11
HETATM   11  C   UNL     1     -10.064  10.042  65.107  1.00  0.00    -0.268 C  
HETATM   12  C   UNL     1      -9.674  11.234  64.213  1.00  0.00    -0.295 C  
HETATM   13  C   UNL     1     -10.906  11.795  63.476  1.00  0.00    -0.496 C  
HETATM   14  C   UNL     1      -8.580  10.874  63.200  1.00  0.00    -0.095 C  
BRANCH  13  15
HETATM   15  C   UNL     1     -12.032  12.293  64.391  1.00  0.00    -0.473 C  
BRANCH  15  16
HETATM   16  C   UNL     1     -11.929  13.788  64.696  1.00  0.00    -0.445 C  
BRANCH  16  17
HETATM   17  C   UNL     1     -11.743  14.050  66.169  1.00  0.00    -0.395 C  
HETATM   18  C   UNL     1     -11.409  15.287  66.587  1.00  0.00    -0.170 C  
HETATM   19  C   UNL     1     -12.004  12.903  67.100  1.00  0.00    -0.374 C  
BRANCH  18  20
HETATM   20  C   UNL     1     -11.268  15.750  68.014  1.00  0.00    -0.338 C  
BRANCH  20  21
HETATM   21  C   UNL     1      -9.916  16.391  68.259  1.00  0.00    -0.243 C  
HETATM   22  C   UNL     1      -9.622  17.683  68.004  1.00  0.00    -0.289 C  
HETATM   23  C   UNL     1     -10.559  18.690  67.390  1.00  0.00    -0.490 C  
HETATM   24  C   UNL     1      -8.285  18.250  68.351  1.00  0.00    -0.311 C  
HETATM   25  O   UNL     1      -8.000  19.409  68.081  1.00  0.00    -0.296 OA 
HETATM   26  C   UNL     1      -7.317  17.389  69.046  1.00  0.00    -0.204 A  
HETATM   27  C   UNL     1      -7.606  16.053  69.282  1.00  0.00    -0.230 A  
HETATM   28  C   UNL     1      -8.884  15.480  68.837  1.00  0.00    -0.217 C  
HETATM   29  C   UNL     1      -6.673  15.240  69.937  1.00  0.00    -0.149 A  
HETATM   30  C   UNL     1      -5.454  15.772  70.362  1.00  0.00    -0.157 A  
HETATM   31  O   UNL     1      -9.080  14.277  68.960  1.00  0.00    -0.086 OA 
HETATM   32  C   UNL     1      -5.165  17.117  70.130  1.00  0.00    -0.208 A  
HETATM   33  C   UNL     1      -6.094  17.926  69.473  1.00  0.00    -0.249 A  
ENDBRANCH  20  21
ENDBRANCH  18  20
ENDBRANCH  16  17
ENDBRANCH  15  16
ENDBRANCH  13  15
ENDBRANCH  10  11
ENDBRANCH   9  10
ENDBRANCH   5   6
ENDBRANCH   4   5
TORSDOF 9
ENDMDL
MODEL      198
REMARK 921   NORMALIZED FREE ENERGY PREDICTED BY IDOCK:   -4.56 KCAL/MOL
REMARK 922        TOTAL FREE ENERGY PREDICTED BY IDOCK:  -10.16 KCAL/MOL
REMARK 923 INTER-LIGAND FREE ENERGY PREDICTED BY IDOCK:   -8.83 KCAL/MOL
REMARK 924 INTRA-LIGAND FREE ENERGY PREDICTED BY IDOCK:   -1.33 KCAL/MOL
REMARK 927      BINDING AFFINITY PREDICTED BY RF-SCORE:    0.00 PKD
ROOT
HETATM    1  C   UNL     1      -8.738   4.838  74.037  1.00  0.00    -0.108 C  
HETATM    2  C   UNL     1     -10.086   5.455  73.669  1.00  0.00    -0.213 C  
HETATM    3  C   UNL     1     -10.162   6.890  74.200  1.00  0.00    -0.331 C  
HETATM    4  C   UNL     1     -10.296   5.370  72.145  1.00  0.00    -0.265 C  
ENDROOT
BRANCH   4   5
HETATM    5  C   UNL     1     -11.633   5.964  71.724  1.00  0.00    -0.220 C  
BRANCH   5   6
HETATM    6  C   UNL     1     -11.482   7.214  70.864  1.00  0.00    -0.333 C  
HETATM    7  C   UNL     1     -10.282   7.097  69.904  1.00  0.00    -0.215 C  
HETATM    8  C   UNL     1     -10.417   5.898  68.954  1.00  0.00    -0.325 C  
HETATM    9  C   UNL     1     -10.124   8.419  69.132  1.00  0.00    -0.206 C  
BRANCH   9  10
HETATM   10  C   UNL     1      -8.950   8.364  68.161  1.00  0.00    -0.139 C  
BRANCH  10  11
HETATM   11  C   UNL     1      -9.330   8.844  66.770  1.00  0.00    -0.224 C  
HETATM   12  C   UNL     1      -8.552   8.093  65.673  1.00  0.00    -0.181 C  
HETATM   13  C   UNL     1      -8.849   8.687  64.282  1.00  0.00     0.127 C  
HETATM   14  C   UNL     1      -8.848   6.587  65.670  1.00  0.00    -0.057 C  
BRANCH  13  15
HETATM   15  C   UNL     1      -8.491  10.170  64.127  1.00  0.00    -0.182 C  
BRANCH  15  16
HETATM   16  C   UNL     1      -9.515  10.942  63.294  1.00  0.00    -0.347 C  
BRANCH  16  17
HETATM   17  C   UNL     1     -10.459  11.739  64.159  1.00  0.00    -0.394 C  
HETATM   18  C   UNL     1     -10.077  12.101  65.400  1.00  0.00    -0.282 C  
HETATM   19  C   UNL     1     -11.770  12.132  63.547  1.00  0.00    -0.579 C  
BRANCH  18  20
HETATM   20  C   UNL     1     -10.848  12.965  66.364  1.00  0.00    -0.293 C  
BRANCH  20  21
HETATM   21  C   UNL     1     -10.460  14.424  66.234  1.00  0.00    -0.292 C  
HETATM   22  C   UNL     1     -11.074  15.313  65.424  1.00  0.00    -0.351 C  
HETATM   23  C   UNL     1     -12.206  15.002  64.480  1.00  0.00    -0.344 C  
HETATM   24  C   UNL     1     -10.675  16.751  65.419  1.00  0.00    -0.189 C  
HETATM   25  O   UNL     1     -11.199  17.550  64.655  1.00  0.00    -0.934 OA 
HETATM   26  C   UNL     1      -9.647  17.198  66.371  1.00  0.00    -0.296 A  
HETATM   27  C   UNL     1      -8.995  16.281  67.182  1.00  0.00    -0.213 A  
HETATM   28  C   UNL     1      -9.321  14.851  67.099  1.00  0.00    -0.218 C  
HETATM   29  C   UNL     1      -8.011  16.716  68.079  1.00  0.00    -0.173 A  
HETATM   30  C   UNL     1      -7.690  18.073  68.165  1.00  0.00    -0.274 A  
HETATM   31  O   UNL     1      -8.664  14.044  67.747  1.00  0.00    -0.165 OA 
HETATM   32  C   UNL     1      -8.350  18.995  67.354  1.00  0.00    -0.299 A  
HETATM   33  C   UNL     1      -9.327  18.561  66.456  1.00  0.00    -0.313 A  
ENDBRANCH  20  21
ENDBRANCH  18  20
ENDBRANCH  16  17
ENDBRANCH  15  16
ENDBRANCH  13  15
ENDBRANCH  10  11
ENDBRANCH   9  10
ENDBRANCH   5   6
ENDBRANCH   4   5
TORSDOF 9
ENDMDL
MODEL      199
REMARK 921   NORMALIZED FREE ENERGY PREDICTED BY IDOCK:   -4.55 KCAL/MOL
REMARK 922        TOTAL FREE ENERGY PREDICTED BY IDOCK:  -10.15 KCAL/MOL
REMARK 923 INTER-LIGAND FREE ENERGY PREDICTED BY IDOCK:   -8.98 KCAL/MOL
REMARK 924 INTRA-LIGAND FREE ENERGY PREDICTED BY IDOCK:   -1.17 KCAL/MOL
REMARK 927      BINDING AFFINITY PREDICTED BY RF-SCORE:    0.00 PKD
ROOT
HETATM    1  C   UNL     1      -9.352   3.340  68.070  1.00  0.00    -0.245 C  
HETATM    2  C   UNL     1      -8.794   2.839  69.400  1.00  0.00    -0.152 C  
HETATM    3  C   UNL     1      -7.440   3.501  69.678  1.00  0.00    -0.045 C  
HETATM    4  C   UNL     1      -9.822   3.089  70.521  1.00  0.00     0.045 C  
ENDROOT
BRANCH   4   5
HETATM    5  C   UNL     1      -9.317   2.598  71.871  1.00  0.00    -0.183 C  
BRANCH   5   6
HETATM    6  C   UNL     1      -8.865   3.733  72.784  1.00  0.00    -0.104 C  
HETATM    7  C   UNL     1      -9.899   4.875  72.821  1.00  0.00    -0.192 C  
HETATM    8  C   UNL     1     -11.269   4.396  73.325  1.00  0.00    -0.364 C  
HETATM    9  C   UNL     1      -9.347   6.026  73.679  1.00  0.00    -0.135 C  
BRANCH   9  10
HETATM   10  C   UNL     1     -10.331   7.189  73.755  1.00  0.00    -0.390 C  
BRANCH  10  11
HETATM   11  C   UNL     1     -10.206   8.128  72.566  1.00  0.00    -0.383 C  
HETATM   12  C   UNL     1     -11.446   8.065  71.654  1.00  0.00    -0.310 C  
HETATM   13  C   UNL     1     -11.241   8.917  70.386  1.00  0.00    -0.259 C  
HETATM   14  C   UNL     1     -12.727   8.504  72.375  1.00  0.00    -0.394 C  
BRANCH  13  15
HETATM   15  C   UNL     1     -10.046   8.502  69.518  1.00  0.00    -0.200 C  
BRANCH  15  16
HETATM   16  C   UNL     1      -9.372   9.690  68.832  1.00  0.00    -0.151 C  
BRANCH  16  17
HETATM   17  C   UNL     1     -10.340  10.469  67.976  1.00  0.00    -0.212 C  
HETATM   18  C   UNL     1     -10.828  11.642  68.423  1.00  0.00    -0.257 C  
HETATM   19  C   UNL     1     -10.660   9.898  66.626  1.00  0.00    -0.186 C  
BRANCH  18  20
HETATM   20  C   UNL     1     -11.729  12.589  67.674  1.00  0.00    -0.423 C  
BRANCH  20  21
HETATM   21  C   UNL     1     -11.455  14.031  68.052  1.00  0.00    -0.342 C  
HETATM   22  C   UNL     1     -11.579  14.535  69.298  1.00  0.00    -0.339 C  
HETATM   23  C   UNL     1     -12.055  13.775  70.507  1.00  0.00    -0.416 C  
HETATM   24  C   UNL     1     -11.212  15.951  69.594  1.00  0.00    -0.331 C  
HETATM   25  O   UNL     1     -11.364  16.424  70.712  1.00  0.00    -0.373 OA 
HETATM   26  C   UNL     1     -10.639  16.768  68.514  1.00  0.00    -0.354 A  
HETATM   27  C   UNL     1     -10.539  16.261  67.226  1.00  0.00    -0.298 A  
HETATM   28  C   UNL     1     -11.007  14.901  66.925  1.00  0.00    -0.327 C  
HETATM   29  C   UNL     1     -10.001  17.052  66.203  1.00  0.00    -0.314 A  
HETATM   30  C   UNL     1      -9.556  18.347  66.476  1.00  0.00    -0.327 A  
HETATM   31  O   UNL     1     -11.007  14.507  65.764  1.00  0.00    -0.302 OA 
HETATM   32  C   UNL     1      -9.651  18.855  67.772  1.00  0.00    -0.357 A  
HETATM   33  C   UNL     1     -10.193  18.069  68.790  1.00  0.00    -0.362 A  
ENDBRANCH  20  21
ENDBRANCH  18  20
ENDBRANCH  16  17
ENDBRANCH  15  16
ENDBRANCH  13  15
ENDBRANCH  10  11
ENDBRANCH   9  10
ENDBRANCH   5   6
ENDBRANCH   4   5
TORSDOF 9
ENDMDL
MODEL      200
REMARK 921   NORMALIZED FREE ENERGY PREDICTED BY IDOCK:   -4.55 KCAL/MOL
REMARK 922        TOTAL FREE ENERGY PREDICTED BY IDOCK:  -10.14 KCAL/MOL
REMARK 923 INTER-LIGAND FREE ENERGY PREDICTED BY IDOCK:   -7.60 KCAL/MOL
REMARK 924 INTRA-LIGAND FREE ENERGY PREDICTED BY IDOCK:   -2.54 KCAL/MOL
REMARK 927      BINDING AFFINITY PREDICTED BY RF-SCORE:    0.00 PKD
ROOT
HETATM    1  C   UNL     1      -8.928  16.522  65.855  1.00  0.00    -0.165 C  
HETATM    2  C   UNL     1     -10.192  15.682  66.021  1.00  0.00    -0.354 C  
HETATM    3  C   UNL     1     -10.101  14.429  65.142  1.00  0.00    -0.359 C  
HETATM    4  C   UNL     1     -10.404  15.351  67.511  1.00  0.00    -0.264 C  
ENDROOT
BRANCH   4   5
HETATM    5  C   UNL     1     -11.660  14.519  67.733  1.00  0.00    -0.390 C  
BRANCH   5   6
HETATM    6  C   UNL     1     -11.705  13.872  69.113  1.00  0.00    -0.382 C  
HETATM    7  C   UNL     1     -11.855  12.341  69.015  1.00  0.00    -0.358 C  
HETATM    8  C   UNL     1     -10.694  11.697  68.242  1.00  0.00    -0.246 C  
HETATM    9  C   UNL     1     -11.989  11.756  70.431  1.00  0.00    -0.422 C  
BRANCH   9  10
HETATM   10  C   UNL     1     -12.138  10.239  70.398  1.00  0.00    -0.373 C  
BRANCH  10  11
HETATM   11  C   UNL     1     -11.620   9.582  71.668  1.00  0.00    -0.451 C  
HETATM   12  C   UNL     1     -10.412   8.669  71.388  1.00  0.00    -0.327 C  
HETATM   13  C   UNL     1      -9.990   7.909  72.660  1.00  0.00    -0.330 C  
HETATM   14  C   UNL     1      -9.213   9.441  70.820  1.00  0.00    -0.278 C  
BRANCH  13  15
HETATM   15  C   UNL     1     -11.077   7.011  73.264  1.00  0.00    -0.217 C  
BRANCH  15  16
HETATM   16  C   UNL     1     -11.695   6.059  72.238  1.00  0.00    -0.338 C  
BRANCH  16  17
HETATM   17  C   UNL     1     -10.642   5.344  71.429  1.00  0.00    -0.282 C  
HETATM   18  C   UNL     1     -10.528   5.600  70.111  1.00  0.00    -0.366 C  
HETATM   19  C   UNL     1      -9.733   4.412  72.175  1.00  0.00    -0.220 C  
BRANCH  18  20
HETATM   20  C   UNL     1      -9.488   5.048  69.172  1.00  0.00    -0.196 C  
BRANCH  20  21
HETATM   21  C   UNL     1      -8.818   6.151  68.376  1.00  0.00    -0.113 C  
HETATM   22  C   UNL     1      -9.296   6.663  67.221  1.00  0.00    -0.144 C  
HETATM   23  C   UNL     1     -10.534   6.197  66.503  1.00  0.00    -0.195 C  
HETATM   24  C   UNL     1      -8.611   7.804  66.546  1.00  0.00    -0.143 C  
HETATM   25  O   UNL     1      -9.015   8.241  65.477  1.00  0.00    -0.154 OA 
HETATM   26  C   UNL     1      -7.445   8.412  67.204  1.00  0.00    -0.089 A  
HETATM   27  C   UNL     1      -6.936   7.869  68.374  1.00  0.00    -0.075 A  
HETATM   28  C   UNL     1      -7.554   6.677  68.971  1.00  0.00    -0.101 C  
HETATM   29  C   UNL     1      -5.819   8.450  68.988  1.00  0.00    -0.039 A  
HETATM   30  C   UNL     1      -5.221   9.581  68.429  1.00  0.00    -0.033 A  
HETATM   31  O   UNL     1      -7.031   6.150  69.946  1.00  0.00    -0.065 OA 
HETATM   32  C   UNL     1      -5.735  10.131  67.256  1.00  0.00    -0.045 A  
HETATM   33  C   UNL     1      -6.845   9.548  66.641  1.00  0.00    -0.084 A  
ENDBRANCH  20  21
ENDBRANCH  18  20
ENDBRANCH  16  17
ENDBRANCH  15  16
ENDBRANCH  13  15
ENDBRANCH  10  11
ENDBRANCH   9  10
ENDBRANCH   5   6
ENDBRANCH   4   5
TORSDOF 9
ENDMDL
MODEL      201
REMARK 921   NORMALIZED FREE ENERGY PREDICTED BY IDOCK:   -4.54 KCAL/MOL
REMARK 922        TOTAL FREE ENERGY PREDICTED BY IDOCK:  -10.13 KCAL/MOL
REMARK 923 INTER-LIGAND FREE ENERGY PREDICTED BY IDOCK:   -7.27 KCAL/MOL
REMARK 924 INTRA-LIGAND FREE ENERGY PREDICTED BY IDOCK:   -2.86 KCAL/MOL
REMARK 927      BINDING AFFINITY PREDICTED BY RF-SCORE:    0.00 PKD
ROOT
HETATM    1  C   UNL     1      -8.621   6.418  72.788  1.00  0.00    -0.125 C  
HETATM    2  C   UNL     1      -9.100   5.530  71.641  1.00  0.00    -0.155 C  
HETATM    3  C   UNL     1      -9.563   4.177  72.192  1.00  0.00    -0.206 C  
HETATM    4  C   UNL     1     -10.200   6.259  70.846  1.00  0.00    -0.236 C  
ENDROOT
BRANCH   4   5
HETATM    5  C   UNL     1     -10.708   5.419  69.682  1.00  0.00    -0.267 C  
BRANCH   5   6
HETATM    6  C   UNL     1     -11.116   6.261  68.478  1.00  0.00    -0.397 C  
HETATM    7  C   UNL     1      -9.917   7.034  67.896  1.00  0.00    -0.183 C  
HETATM    8  C   UNL     1      -8.791   6.094  67.440  1.00  0.00    -0.106 C  
HETATM    9  C   UNL     1     -10.407   7.933  66.747  1.00  0.00    -0.357 C  
BRANCH   9  10
HETATM   10  C   UNL     1      -9.260   8.724  66.128  1.00  0.00    -0.273 C  
BRANCH  10  11
HETATM   11  C   UNL     1      -9.681   9.449  64.859  1.00  0.00     0.068 C  
HETATM   12  C   UNL     1      -9.454  10.969  64.968  1.00  0.00    -0.269 C  
HETATM   13  C   UNL     1     -10.013  11.699  63.731  1.00  0.00    -0.378 C  
HETATM   14  C   UNL     1      -7.975  11.329  65.161  1.00  0.00     0.527 C  
BRANCH  13  15
HETATM   15  C   UNL     1     -11.515  11.503  63.493  1.00  0.00    -0.334 C  
BRANCH  15  16
HETATM   16  C   UNL     1     -12.274  12.826  63.380  1.00  0.00    -0.594 C  
BRANCH  16  17
HETATM   17  C   UNL     1     -12.118  13.671  64.619  1.00  0.00    -0.449 C  
HETATM   18  C   UNL     1     -12.146  13.084  65.832  1.00  0.00    -0.503 C  
HETATM   19  C   UNL     1     -11.880  15.138  64.413  1.00  0.00    -0.314 C  
BRANCH  18  20
HETATM   20  C   UNL     1     -11.922  13.754  67.163  1.00  0.00    -0.442 C  
BRANCH  20  21
HETATM   21  C   UNL     1     -10.481  13.622  67.615  1.00  0.00    -0.238 C  
HETATM   22  C   UNL     1      -9.940  12.503  68.142  1.00  0.00    -0.224 C  
HETATM   23  C   UNL     1     -10.679  11.220  68.419  1.00  0.00    -0.238 C  
HETATM   24  C   UNL     1      -8.489  12.438  68.485  1.00  0.00    -0.069 C  
HETATM   25  O   UNL     1      -8.006  11.441  69.004  1.00  0.00    -0.115 OA 
HETATM   26  C   UNL     1      -7.641  13.596  68.168  1.00  0.00    -0.137 A  
HETATM   27  C   UNL     1      -8.200  14.757  67.654  1.00  0.00    -0.187 A  
HETATM   28  C   UNL     1      -9.648  14.846  67.423  1.00  0.00    -0.206 C  
HETATM   29  C   UNL     1      -7.383  15.858  67.364  1.00  0.00    -0.224 A  
HETATM   30  C   UNL     1      -6.006  15.787  67.582  1.00  0.00    -0.172 A  
HETATM   31  O   UNL     1     -10.138  15.911  67.067  1.00  0.00    -0.256 OA 
HETATM   32  C   UNL     1      -5.443  14.618  68.094  1.00  0.00    -0.123 A  
HETATM   33  C   UNL     1      -6.258  13.523  68.388  1.00  0.00    -0.093 A  
ENDBRANCH  20  21
ENDBRANCH  18  20
ENDBRANCH  16  17
ENDBRANCH  15  16
ENDBRANCH  13  15
ENDBRANCH  10  11
ENDBRANCH   9  10
ENDBRANCH   5   6
ENDBRANCH   4   5
TORSDOF 9
ENDMDL
MODEL      202
REMARK 921   NORMALIZED FREE ENERGY PREDICTED BY IDOCK:   -4.54 KCAL/MOL
REMARK 922        TOTAL FREE ENERGY PREDICTED BY IDOCK:  -10.13 KCAL/MOL
REMARK 923 INTER-LIGAND FREE ENERGY PREDICTED BY IDOCK:   -8.67 KCAL/MOL
REMARK 924 INTRA-LIGAND FREE ENERGY PREDICTED BY IDOCK:   -1.46 KCAL/MOL
REMARK 927      BINDING AFFINITY PREDICTED BY RF-SCORE:    0.00 PKD
ROOT
HETATM    1  C   UNL     1      -9.354  19.931  66.753  1.00  0.00    -0.494 C  
HETATM    2  C   UNL     1      -9.539  18.473  67.165  1.00  0.00    -0.302 C  
HETATM    3  C   UNL     1     -10.130  18.403  68.577  1.00  0.00    -0.413 C  
HETATM    4  C   UNL     1     -10.405  17.745  66.119  1.00  0.00    -0.340 C  
ENDROOT
BRANCH   4   5
HETATM    5  C   UNL     1     -10.614  16.280  66.478  1.00  0.00    -0.256 C  
BRANCH   5   6
HETATM    6  C   UNL     1     -10.170  15.329  65.371  1.00  0.00    -0.414 C  
HETATM    7  C   UNL     1     -10.970  14.012  65.402  1.00  0.00    -0.321 C  
HETATM    8  C   UNL     1     -12.478  14.249  65.228  1.00  0.00    -0.428 C  
HETATM    9  C   UNL     1     -10.415  13.061  64.328  1.00  0.00    -0.424 C  
BRANCH   9  10
HETATM   10  C   UNL     1     -11.172  11.737  64.308  1.00  0.00    -0.414 C  
BRANCH  10  11
HETATM   11  C   UNL     1     -10.262  10.550  64.583  1.00  0.00    -0.364 C  
HETATM   12  C   UNL     1      -9.625  10.631  65.983  1.00  0.00    -0.244 C  
HETATM   13  C   UNL     1      -8.602   9.496  66.189  1.00  0.00    -0.143 C  
HETATM   14  C   UNL     1     -10.670  10.600  67.106  1.00  0.00    -0.327 C  
BRANCH  13  15
HETATM   15  C   UNL     1      -7.441   9.487  65.187  1.00  0.00    -0.109 C  
BRANCH  15  16
HETATM   16  C   UNL     1      -6.669   8.167  65.188  1.00  0.00    -0.052 C  
BRANCH  16  17
HETATM   17  C   UNL     1      -7.590   6.976  65.118  1.00  0.00    -0.102 C  
HETATM   18  C   UNL     1      -8.013   6.394  66.258  1.00  0.00    -0.111 C  
HETATM   19  C   UNL     1      -8.032   6.541  63.752  1.00  0.00    -0.076 C  
BRANCH  18  20
HETATM   20  C   UNL     1      -8.996   5.259  66.380  1.00  0.00    -0.128 C  
BRANCH  20  21
HETATM   21  C   UNL     1      -9.371   5.004  67.827  1.00  0.00    -0.146 C  
HETATM   22  C   UNL     1      -8.759   4.111  68.633  1.00  0.00    -0.126 C  
HETATM   23  C   UNL     1      -7.642   3.186  68.227  1.00  0.00    -0.052 C  
HETATM   24  C   UNL     1      -9.144   3.983  70.070  1.00  0.00    -0.119 C  
HETATM   25  O   UNL     1      -8.621   3.145  70.792  1.00  0.00    -0.066 OA 
HETATM   26  C   UNL     1     -10.155   4.904  70.610  1.00  0.00    -0.306 A  
HETATM   27  C   UNL     1     -10.806   5.801  69.776  1.00  0.00    -0.419 A  
HETATM   28  C   UNL     1     -10.495   5.841  68.341  1.00  0.00    -0.222 C  
HETATM   29  C   UNL     1     -11.774   6.667  70.300  1.00  0.00    -0.432 A  
HETATM   30  C   UNL     1     -12.080   6.636  71.662  1.00  0.00    -0.404 A  
HETATM   31  O   UNL     1     -11.152   6.566  67.602  1.00  0.00    -0.325 OA 
HETATM   32  C   UNL     1     -11.422   5.738  72.501  1.00  0.00    -0.349 A  
HETATM   33  C   UNL     1     -10.461   4.871  71.978  1.00  0.00    -0.245 A  
ENDBRANCH  20  21
ENDBRANCH  18  20
ENDBRANCH  16  17
ENDBRANCH  15  16
ENDBRANCH  13  15
ENDBRANCH  10  11
ENDBRANCH   9  10
ENDBRANCH   5   6
ENDBRANCH   4   5
TORSDOF 9
ENDMDL
MODEL      203
REMARK 921   NORMALIZED FREE ENERGY PREDICTED BY IDOCK:   -4.53 KCAL/MOL
REMARK 922        TOTAL FREE ENERGY PREDICTED BY IDOCK:  -10.12 KCAL/MOL
REMARK 923 INTER-LIGAND FREE ENERGY PREDICTED BY IDOCK:   -8.96 KCAL/MOL
REMARK 924 INTRA-LIGAND FREE ENERGY PREDICTED BY IDOCK:   -1.16 KCAL/MOL
REMARK 927      BINDING AFFINITY PREDICTED BY RF-SCORE:    0.00 PKD
ROOT
HETATM    1  C   UNL     1      -5.196  17.401  68.456  1.00  0.00    -0.139 C  
HETATM    2  C   UNL     1      -6.228  17.775  67.395  1.00  0.00    -0.164 C  
HETATM    3  C   UNL     1      -5.536  17.956  66.039  1.00  0.00    -0.241 C  
HETATM    4  C   UNL     1      -7.343  16.713  67.359  1.00  0.00    -0.189 C  
ENDROOT
BRANCH   4   5
HETATM    5  C   UNL     1      -8.407  17.044  66.320  1.00  0.00    -0.308 C  
BRANCH   5   6
HETATM    6  C   UNL     1      -9.736  16.346  66.589  1.00  0.00    -0.272 C  
HETATM    7  C   UNL     1     -10.124  16.426  68.078  1.00  0.00    -0.248 C  
HETATM    8  C   UNL     1     -10.260  17.877  68.563  1.00  0.00    -0.393 C  
HETATM    9  C   UNL     1     -11.420  15.628  68.304  1.00  0.00    -0.353 C  
BRANCH   9  10
HETATM   10  C   UNL     1     -11.858  15.671  69.764  1.00  0.00    -0.376 C  
BRANCH  10  11
HETATM   11  C   UNL     1     -12.719  14.477  70.143  1.00  0.00    -0.264 C  
HETATM   12  C   UNL     1     -12.668  14.192  71.656  1.00  0.00    -0.430 C  
HETATM   13  C   UNL     1     -13.434  12.899  71.999  1.00  0.00    -0.568 C  
HETATM   14  C   UNL     1     -13.213  15.358  72.491  1.00  0.00    -0.543 C  
BRANCH  13  15
HETATM   15  C   UNL     1     -12.908  11.637  71.304  1.00  0.00    -0.430 C  
BRANCH  15  16
HETATM   16  C   UNL     1     -13.315  10.352  72.026  1.00  0.00    -0.440 C  
BRANCH  16  17
HETATM   17  C   UNL     1     -12.325   9.238  71.795  1.00  0.00    -0.454 C  
HETATM   18  C   UNL     1     -11.038   9.537  71.531  1.00  0.00    -0.406 C  
HETATM   19  C   UNL     1     -12.839   7.836  71.933  1.00  0.00    -0.317 C  
BRANCH  18  20
HETATM   20  C   UNL     1      -9.902   8.562  71.362  1.00  0.00    -0.296 C  
BRANCH  20  21
HETATM   21  C   UNL     1      -9.694   8.201  69.904  1.00  0.00    -0.176 C  
HETATM   22  C   UNL     1      -9.151   9.021  68.980  1.00  0.00    -0.143 C  
HETATM   23  C   UNL     1      -8.709  10.440  69.219  1.00  0.00    -0.160 C  
HETATM   24  C   UNL     1      -8.911   8.551  67.583  1.00  0.00    -0.135 C  
HETATM   25  O   UNL     1      -8.460   9.305  66.731  1.00  0.00    -0.124 OA 
HETATM   26  C   UNL     1      -9.210   7.150  67.252  1.00  0.00    -0.145 A  
HETATM   27  C   UNL     1      -9.796   6.316  68.192  1.00  0.00    -0.133 A  
HETATM   28  C   UNL     1     -10.128   6.822  69.531  1.00  0.00    -0.178 C  
HETATM   29  C   UNL     1     -10.085   4.985  67.864  1.00  0.00    -0.173 A  
HETATM   30  C   UNL     1      -9.777   4.493  66.594  1.00  0.00    -0.222 A  
HETATM   31  O   UNL     1     -10.738   6.102  70.314  1.00  0.00    -0.243 OA 
HETATM   32  C   UNL     1      -9.183   5.331  65.650  1.00  0.00    -0.145 A  
HETATM   33  C   UNL     1      -8.900   6.658  65.976  1.00  0.00    -0.151 A  
ENDBRANCH  20  21
ENDBRANCH  18  20
ENDBRANCH  16  17
ENDBRANCH  15  16
ENDBRANCH  13  15
ENDBRANCH  10  11
ENDBRANCH   9  10
ENDBRANCH   5   6
ENDBRANCH   4   5
TORSDOF 9
ENDMDL
MODEL      204
REMARK 921   NORMALIZED FREE ENERGY PREDICTED BY IDOCK:   -4.53 KCAL/MOL
REMARK 922        TOTAL FREE ENERGY PREDICTED BY IDOCK:  -10.11 KCAL/MOL
REMARK 923 INTER-LIGAND FREE ENERGY PREDICTED BY IDOCK:   -6.90 KCAL/MOL
REMARK 924 INTRA-LIGAND FREE ENERGY PREDICTED BY IDOCK:   -3.21 KCAL/MOL
REMARK 927      BINDING AFFINITY PREDICTED BY RF-SCORE:    0.00 PKD
ROOT
HETATM    1  C   UNL     1      -9.945  16.812  68.731  1.00  0.00    -0.269 C  
HETATM    2  C   UNL     1     -10.586  15.668  67.950  1.00  0.00    -0.278 C  
HETATM    3  C   UNL     1      -9.623  15.180  66.862  1.00  0.00    -0.252 C  
HETATM    4  C   UNL     1     -11.007  14.548  68.921  1.00  0.00    -0.268 C  
ENDROOT
BRANCH   4   5
HETATM    5  C   UNL     1     -11.661  13.383  68.192  1.00  0.00    -0.397 C  
BRANCH   5   6
HETATM    6  C   UNL     1     -11.084  12.031  68.597  1.00  0.00    -0.298 C  
HETATM    7  C   UNL     1     -10.871  11.118  67.373  1.00  0.00    -0.317 C  
HETATM    8  C   UNL     1      -9.911  11.740  66.349  1.00  0.00    -0.237 C  
HETATM    9  C   UNL     1     -10.378   9.741  67.852  1.00  0.00    -0.258 C  
BRANCH   9  10
HETATM   10  C   UNL     1     -10.147   8.791  66.682  1.00  0.00    -0.358 C  
BRANCH  10  11
HETATM   11  C   UNL     1      -8.671   8.500  66.460  1.00  0.00    -0.149 C  
HETATM   12  C   UNL     1      -8.355   8.250  64.974  1.00  0.00    -0.158 C  
HETATM   13  C   UNL     1      -6.886   7.822  64.788  1.00  0.00    -0.051 C  
HETATM   14  C   UNL     1      -8.657   9.471  64.096  1.00  0.00    -0.217 C  
BRANCH  13  15
HETATM   15  C   UNL     1      -6.489   6.542  65.536  1.00  0.00    -0.039 C  
BRANCH  15  16
HETATM   16  C   UNL     1      -7.512   5.417  65.366  1.00  0.00    -0.077 C  
BRANCH  16  17
HETATM   17  C   UNL     1      -8.160   5.045  66.675  1.00  0.00    -0.108 C  
HETATM   18  C   UNL     1      -7.454   5.141  67.819  1.00  0.00    -0.079 C  
HETATM   19  C   UNL     1      -9.603   4.634  66.624  1.00  0.00    -0.192 C  
BRANCH  18  20
HETATM   20  C   UNL     1      -7.961   4.896  69.216  1.00  0.00    -0.075 C  
BRANCH  20  21
HETATM   21  C   UNL     1      -8.489   6.169  69.846  1.00  0.00    -0.129 C  
HETATM   22  C   UNL     1      -7.760   7.289  70.040  1.00  0.00    -0.096 C  
HETATM   23  C   UNL     1      -6.298   7.449  69.718  1.00  0.00    -0.031 C  
HETATM   24  C   UNL     1      -8.385   8.525  70.596  1.00  0.00    -0.133 C  
HETATM   25  O   UNL     1      -7.717   9.528  70.815  1.00  0.00    -0.230 OA 
HETATM   26  C   UNL     1      -9.831   8.524  70.858  1.00  0.00    -0.234 A  
HETATM   27  C   UNL     1     -10.575   7.366  70.688  1.00  0.00    -0.234 A  
HETATM   28  C   UNL     1      -9.927   6.125  70.244  1.00  0.00    -0.183 C  
HETATM   29  C   UNL     1     -11.952   7.373  70.949  1.00  0.00    -0.308 A  
HETATM   30  C   UNL     1     -12.579   8.546  71.374  1.00  0.00    -0.309 A  
HETATM   31  O   UNL     1     -10.578   5.088  70.197  1.00  0.00    -0.236 OA 
HETATM   32  C   UNL     1     -11.832   9.712  71.541  1.00  0.00    -0.483 A  
HETATM   33  C   UNL     1     -10.460   9.703  71.285  1.00  0.00    -0.216 A  
ENDBRANCH  20  21
ENDBRANCH  18  20
ENDBRANCH  16  17
ENDBRANCH  15  16
ENDBRANCH  13  15
ENDBRANCH  10  11
ENDBRANCH   9  10
ENDBRANCH   5   6
ENDBRANCH   4   5
TORSDOF 9
ENDMDL
MODEL      205
REMARK 921   NORMALIZED FREE ENERGY PREDICTED BY IDOCK:   -4.51 KCAL/MOL
REMARK 922        TOTAL FREE ENERGY PREDICTED BY IDOCK:  -10.09 KCAL/MOL
REMARK 923 INTER-LIGAND FREE ENERGY PREDICTED BY IDOCK:   -8.54 KCAL/MOL
REMARK 924 INTRA-LIGAND FREE ENERGY PREDICTED BY IDOCK:   -1.55 KCAL/MOL
REMARK 927      BINDING AFFINITY PREDICTED BY RF-SCORE:    0.00 PKD
ROOT
HETATM    1  C   UNL     1      -9.887   3.606  62.432  1.00  0.00    -0.115 C  
HETATM    2  C   UNL     1     -10.094   3.239  63.899  1.00  0.00    -0.189 C  
HETATM    3  C   UNL     1      -9.649   1.793  64.141  1.00  0.00    -0.132 C  
HETATM    4  C   UNL     1      -9.352   4.249  64.796  1.00  0.00    -0.163 C  
ENDROOT
BRANCH   4   5
HETATM    5  C   UNL     1      -9.534   3.934  66.274  1.00  0.00    -0.198 C  
BRANCH   5   6
HETATM    6  C   UNL     1      -8.917   4.989  67.186  1.00  0.00    -0.112 C  
HETATM    7  C   UNL     1      -9.548   6.376  66.953  1.00  0.00    -0.179 C  
HETATM    8  C   UNL     1     -11.062   6.371  67.213  1.00  0.00    -0.416 C  
HETATM    9  C   UNL     1      -8.823   7.412  67.830  1.00  0.00    -0.128 C  
BRANCH   9  10
HETATM   10  C   UNL     1      -9.407   8.809  67.644  1.00  0.00    -0.157 C  
BRANCH  10  11
HETATM   11  C   UNL     1      -9.698   9.121  66.184  1.00  0.00    -0.357 C  
HETATM   12  C   UNL     1      -8.692  10.134  65.605  1.00  0.00    -0.173 C  
HETATM   13  C   UNL     1      -9.084  10.541  64.172  1.00  0.00    -0.258 C  
HETATM   14  C   UNL     1      -7.252   9.605  65.621  1.00  0.00    -0.097 C  
BRANCH  13  15
HETATM   15  C   UNL     1     -10.470  11.187  64.043  1.00  0.00    -0.447 C  
BRANCH  15  16
HETATM   16  C   UNL     1     -10.438  12.701  64.253  1.00  0.00    -0.417 C  
BRANCH  16  17
HETATM   17  C   UNL     1     -10.722  13.077  65.686  1.00  0.00    -0.293 C  
HETATM   18  C   UNL     1      -9.706  13.449  66.490  1.00  0.00    -0.284 C  
HETATM   19  C   UNL     1     -12.159  13.064  66.117  1.00  0.00    -0.473 C  
BRANCH  18  20
HETATM   20  C   UNL     1      -9.813  13.936  67.911  1.00  0.00    -0.228 C  
BRANCH  20  21
HETATM   21  C   UNL     1      -9.296  15.354  68.052  1.00  0.00    -0.196 C  
HETATM   22  C   UNL     1      -8.090  15.684  68.561  1.00  0.00    -0.147 C  
HETATM   23  C   UNL     1      -7.080  14.717  69.119  1.00  0.00    -0.143 C  
HETATM   24  C   UNL     1      -7.631  17.104  68.588  1.00  0.00    -0.258 C  
HETATM   25  O   UNL     1      -6.557  17.412  69.088  1.00  0.00    -0.226 OA 
HETATM   26  C   UNL     1      -8.489  18.131  67.979  1.00  0.00    -0.268 A  
HETATM   27  C   UNL     1      -9.741  17.798  67.484  1.00  0.00    -0.284 A  
HETATM   28  C   UNL     1     -10.226  16.413  67.562  1.00  0.00    -0.273 C  
HETATM   29  C   UNL     1     -10.554  18.786  66.914  1.00  0.00    -0.472 A  
HETATM   30  C   UNL     1     -10.105  20.106  66.836  1.00  0.00    -0.592 A  
HETATM   31  O   UNL     1     -11.373  16.156  67.214  1.00  0.00    -0.084 OA 
HETATM   32  C   UNL     1      -8.844  20.440  67.330  1.00  0.00    -0.444 A  
HETATM   33  C   UNL     1      -8.036  19.456  67.902  1.00  0.00    -0.333 A  
ENDBRANCH  20  21
ENDBRANCH  18  20
ENDBRANCH  16  17
ENDBRANCH  15  16
ENDBRANCH  13  15
ENDBRANCH  10  11
ENDBRANCH   9  10
ENDBRANCH   5   6
ENDBRANCH   4   5
TORSDOF 9
ENDMDL
MODEL      206
REMARK 921   NORMALIZED FREE ENERGY PREDICTED BY IDOCK:   -4.51 KCAL/MOL
REMARK 922        TOTAL FREE ENERGY PREDICTED BY IDOCK:  -10.08 KCAL/MOL
REMARK 923 INTER-LIGAND FREE ENERGY PREDICTED BY IDOCK:   -9.06 KCAL/MOL
REMARK 924 INTRA-LIGAND FREE ENERGY PREDICTED BY IDOCK:   -1.03 KCAL/MOL
REMARK 927      BINDING AFFINITY PREDICTED BY RF-SCORE:    0.00 PKD
ROOT
HETATM    1  C   UNL     1      -6.457  20.054  64.991  1.00  0.00    -0.329 C  
HETATM    2  C   UNL     1      -6.645  19.975  66.504  1.00  0.00    -0.226 C  
HETATM    3  C   UNL     1      -7.963  20.651  66.899  1.00  0.00    -0.242 C  
HETATM    4  C   UNL     1      -6.568  18.505  66.960  1.00  0.00    -0.203 C  
ENDROOT
BRANCH   4   5
HETATM    5  C   UNL     1      -6.741  18.370  68.467  1.00  0.00    -0.253 C  
BRANCH   5   6
HETATM    6  C   UNL     1      -7.380  17.047  68.875  1.00  0.00    -0.245 C  
HETATM    7  C   UNL     1      -8.907  17.180  69.029  1.00  0.00    -0.105 C  
HETATM    8  C   UNL     1      -9.581  17.635  67.725  1.00  0.00    -0.267 C  
HETATM    9  C   UNL     1      -9.481  15.844  69.530  1.00  0.00    -0.219 C  
BRANCH   9  10
HETATM   10  C   UNL     1     -10.995  15.913  69.700  1.00  0.00    -0.319 C  
BRANCH  10  11
HETATM   11  C   UNL     1     -11.736  15.456  68.454  1.00  0.00    -0.332 C  
HETATM   12  C   UNL     1     -11.391  14.001  68.086  1.00  0.00    -0.320 C  
HETATM   13  C   UNL     1     -12.042  13.603  66.747  1.00  0.00    -0.445 C  
HETATM   14  C   UNL     1     -11.800  13.006  69.180  1.00  0.00    -0.360 C  
BRANCH  13  15
HETATM   15  C   UNL     1     -11.623  14.462  65.547  1.00  0.00    -0.347 C  
BRANCH  15  16
HETATM   16  C   UNL     1     -10.473  13.844  64.750  1.00  0.00    -0.451 C  
BRANCH  16  17
HETATM   17  C   UNL     1     -10.627  12.351  64.604  1.00  0.00    -0.339 C  
HETATM   18  C   UNL     1      -9.780  11.528  65.254  1.00  0.00    -0.268 C  
HETATM   19  C   UNL     1     -11.776  11.868  63.770  1.00  0.00    -0.554 C  
BRANCH  18  20
HETATM   20  C   UNL     1      -9.838  10.024  65.294  1.00  0.00    -0.388 C  
BRANCH  20  21
HETATM   21  C   UNL     1      -9.618   9.497  66.698  1.00  0.00    -0.243 C  
HETATM   22  C   UNL     1      -8.552   8.765  67.086  1.00  0.00    -0.119 C  
HETATM   23  C   UNL     1      -7.433   8.304  66.189  1.00  0.00    -0.081 C  
HETATM   24  C   UNL     1      -8.379   8.355  68.511  1.00  0.00    -0.131 C  
HETATM   25  O   UNL     1      -7.437   7.655  68.857  1.00  0.00    -0.091 OA 
HETATM   26  C   UNL     1      -9.356   8.830  69.501  1.00  0.00    -0.157 A  
HETATM   27  C   UNL     1     -10.467   9.556  69.100  1.00  0.00    -0.224 A  
HETATM   28  C   UNL     1     -10.683   9.859  67.678  1.00  0.00    -0.281 C  
HETATM   29  C   UNL     1     -11.397   9.996  70.051  1.00  0.00    -0.334 A  
HETATM   30  C   UNL     1     -11.204   9.712  71.405  1.00  0.00    -0.426 A  
HETATM   31  O   UNL     1     -11.721  10.412  67.331  1.00  0.00    -0.177 OA 
HETATM   32  C   UNL     1     -10.084   8.986  71.809  1.00  0.00    -0.373 A  
HETATM   33  C   UNL     1      -9.160   8.544  70.860  1.00  0.00    -0.208 A  
ENDBRANCH  20  21
ENDBRANCH  18  20
ENDBRANCH  16  17
ENDBRANCH  15  16
ENDBRANCH  13  15
ENDBRANCH  10  11
ENDBRANCH   9  10
ENDBRANCH   5   6
ENDBRANCH   4   5
TORSDOF 9
ENDMDL
MODEL      207
REMARK 921   NORMALIZED FREE ENERGY PREDICTED BY IDOCK:   -4.50 KCAL/MOL
REMARK 922        TOTAL FREE ENERGY PREDICTED BY IDOCK:  -10.07 KCAL/MOL
REMARK 923 INTER-LIGAND FREE ENERGY PREDICTED BY IDOCK:   -8.34 KCAL/MOL
REMARK 924 INTRA-LIGAND FREE ENERGY PREDICTED BY IDOCK:   -1.73 KCAL/MOL
REMARK 927      BINDING AFFINITY PREDICTED BY RF-SCORE:    0.00 PKD
ROOT
HETATM    1  C   UNL     1     -12.210  16.030  72.835  1.00  0.00    -0.621 C  
HETATM    2  C   UNL     1     -12.335  14.842  71.884  1.00  0.00    -0.417 C  
HETATM    3  C   UNL     1     -13.665  14.120  72.128  1.00  0.00    -0.587 C  
HETATM    4  C   UNL     1     -12.175  15.323  70.429  1.00  0.00    -0.404 C  
ENDROOT
BRANCH   4   5
HETATM    5  C   UNL     1     -12.282  14.173  69.438  1.00  0.00    -0.329 C  
BRANCH   5   6
HETATM    6  C   UNL     1     -10.962  13.869  68.736  1.00  0.00    -0.286 C  
HETATM    7  C   UNL     1     -11.169  12.957  67.512  1.00  0.00    -0.329 C  
HETATM    8  C   UNL     1     -12.108  13.590  66.473  1.00  0.00    -0.460 C  
HETATM    9  C   UNL     1      -9.799  12.611  66.904  1.00  0.00    -0.234 C  
BRANCH   9  10
HETATM   10  C   UNL     1      -9.940  11.709  65.682  1.00  0.00    -0.274 C  
BRANCH  10  11
HETATM   11  C   UNL     1      -8.672  10.920  65.401  1.00  0.00    -0.162 C  
HETATM   12  C   UNL     1      -8.923   9.767  64.410  1.00  0.00    -0.284 C  
HETATM   13  C   UNL     1      -7.662   8.898  64.245  1.00  0.00    -0.122 C  
HETATM   14  C   UNL     1      -9.396  10.265  63.038  1.00  0.00    -0.338 C  
BRANCH  13  15
HETATM   15  C   UNL     1      -7.152   8.250  65.539  1.00  0.00    -0.067 C  
BRANCH  15  16
HETATM   16  C   UNL     1      -7.185   6.722  65.489  1.00  0.00    -0.077 C  
BRANCH  16  17
HETATM   17  C   UNL     1      -8.498   6.171  65.986  1.00  0.00    -0.141 C  
HETATM   18  C   UNL     1      -9.177   6.832  66.944  1.00  0.00    -0.162 C  
HETATM   19  C   UNL     1      -9.002   4.922  65.325  1.00  0.00    -0.152 C  
BRANCH  18  20
HETATM   20  C   UNL     1     -10.534   6.479  67.495  1.00  0.00    -0.297 C  
BRANCH  20  21
HETATM   21  C   UNL     1     -10.496   6.313  69.001  1.00  0.00    -0.287 C  
HETATM   22  C   UNL     1     -10.749   7.298  69.889  1.00  0.00    -0.257 C  
HETATM   23  C   UNL     1     -11.061   8.730  69.543  1.00  0.00     0.006 C  
HETATM   24  C   UNL     1     -10.766   7.024  71.356  1.00  0.00    -0.219 C  
HETATM   25  O   UNL     1     -10.953   7.922  72.165  1.00  0.00    -0.244 OA 
HETATM   26  C   UNL     1     -10.575   5.639  71.814  1.00  0.00    -0.296 A  
HETATM   27  C   UNL     1     -10.284   4.633  70.905  1.00  0.00    -0.213 A  
HETATM   28  C   UNL     1     -10.162   4.937  69.473  1.00  0.00    -0.177 C  
HETATM   29  C   UNL     1     -10.094   3.319  71.353  1.00  0.00     0.009 A  
HETATM   30  C   UNL     1     -10.205   3.018  72.712  1.00  0.00    -0.236 A  
HETATM   31  O   UNL     1      -9.804   4.057  68.698  1.00  0.00    -0.111 OA 
HETATM   32  C   UNL     1     -10.502   4.029  73.625  1.00  0.00    -0.261 A  
HETATM   33  C   UNL     1     -10.686   5.339  73.179  1.00  0.00    -0.314 A  
ENDBRANCH  20  21
ENDBRANCH  18  20
ENDBRANCH  16  17
ENDBRANCH  15  16
ENDBRANCH  13  15
ENDBRANCH  10  11
ENDBRANCH   9  10
ENDBRANCH   5   6
ENDBRANCH   4   5
TORSDOF 9
ENDMDL
MODEL      208
REMARK 921   NORMALIZED FREE ENERGY PREDICTED BY IDOCK:   -4.50 KCAL/MOL
REMARK 922        TOTAL FREE ENERGY PREDICTED BY IDOCK:  -10.06 KCAL/MOL
REMARK 923 INTER-LIGAND FREE ENERGY PREDICTED BY IDOCK:   -8.06 KCAL/MOL
REMARK 924 INTRA-LIGAND FREE ENERGY PREDICTED BY IDOCK:   -2.00 KCAL/MOL
REMARK 927      BINDING AFFINITY PREDICTED BY RF-SCORE:    0.00 PKD
ROOT
HETATM    1  C   UNL     1      -6.525  19.781  65.165  1.00  0.00    -0.318 C  
HETATM    2  C   UNL     1      -6.982  19.730  66.620  1.00  0.00    -0.222 C  
HETATM    3  C   UNL     1      -8.439  20.194  66.723  1.00  0.00    -0.365 C  
HETATM    4  C   UNL     1      -6.767  18.311  67.182  1.00  0.00    -0.204 C  
ENDROOT
BRANCH   4   5
HETATM    5  C   UNL     1      -7.200  18.208  68.638  1.00  0.00    -0.288 C  
BRANCH   5   6
HETATM    6  C   UNL     1      -7.655  16.803  69.023  1.00  0.00    -0.218 C  
HETATM    7  C   UNL     1      -9.189  16.671  68.968  1.00  0.00    -0.223 C  
HETATM    8  C   UNL     1      -9.744  16.967  67.566  1.00  0.00    -0.251 C  
HETATM    9  C   UNL     1      -9.591  15.268  69.455  1.00  0.00    -0.245 C  
BRANCH   9  10
HETATM   10  C   UNL     1     -11.104  15.076  69.421  1.00  0.00    -0.290 C  
BRANCH  10  11
HETATM   11  C   UNL     1     -11.539  14.133  68.311  1.00  0.00    -0.356 C  
HETATM   12  C   UNL     1     -11.207  12.666  68.645  1.00  0.00    -0.323 C  
HETATM   13  C   UNL     1     -11.529  11.744  67.452  1.00  0.00    -0.375 C  
HETATM   14  C   UNL     1     -11.937  12.170  69.899  1.00  0.00    -0.380 C  
BRANCH  13  15
HETATM   15  C   UNL     1     -10.771  12.074  66.160  1.00  0.00    -0.312 C  
BRANCH  15  16
HETATM   16  C   UNL     1      -9.266  12.231  66.381  1.00  0.00    -0.203 C  
BRANCH  16  17
HETATM   17  C   UNL     1      -8.600  10.910  66.674  1.00  0.00    -0.148 C  
HETATM   18  C   UNL     1      -8.277  10.596  67.944  1.00  0.00    -0.112 C  
HETATM   19  C   UNL     1      -8.385   9.988  65.511  1.00  0.00    -0.151 C  
BRANCH  18  20
HETATM   20  C   UNL     1      -7.691   9.296  68.430  1.00  0.00    -0.090 C  
BRANCH  20  21
HETATM   21  C   UNL     1      -8.543   8.676  69.520  1.00  0.00    -0.131 C  
HETATM   22  C   UNL     1      -9.659   7.948  69.301  1.00  0.00    -0.157 C  
HETATM   23  C   UNL     1     -10.274   7.671  67.955  1.00  0.00    -0.248 C  
HETATM   24  C   UNL     1     -10.392   7.308  70.433  1.00  0.00    -0.208 C  
HETATM   25  O   UNL     1     -11.428   6.685  70.243  1.00  0.00    -0.343 OA 
HETATM   26  C   UNL     1      -9.831   7.424  71.787  1.00  0.00    -0.187 A  
HETATM   27  C   UNL     1      -8.703   8.196  72.017  1.00  0.00    -0.221 A  
HETATM   28  C   UNL     1      -8.053   8.911  70.910  1.00  0.00    -0.166 C  
HETATM   29  C   UNL     1      -8.182   8.307  73.313  1.00  0.00    -0.238 A  
HETATM   30  C   UNL     1      -8.792   7.634  74.374  1.00  0.00    -0.163 A  
HETATM   31  O   UNL     1      -7.120   9.669  71.147  1.00  0.00    -0.319 OA 
HETATM   32  C   UNL     1      -9.925   6.854  74.142  1.00  0.00    -0.351 A  
HETATM   33  C   UNL     1     -10.446   6.748  72.852  1.00  0.00    -0.260 A  
ENDBRANCH  20  21
ENDBRANCH  18  20
ENDBRANCH  16  17
ENDBRANCH  15  16
ENDBRANCH  13  15
ENDBRANCH  10  11
ENDBRANCH   9  10
ENDBRANCH   5   6
ENDBRANCH   4   5
TORSDOF 9
ENDMDL
MODEL      209
REMARK 921   NORMALIZED FREE ENERGY PREDICTED BY IDOCK:   -4.49 KCAL/MOL
REMARK 922        TOTAL FREE ENERGY PREDICTED BY IDOCK:  -10.06 KCAL/MOL
REMARK 923 INTER-LIGAND FREE ENERGY PREDICTED BY IDOCK:   -8.60 KCAL/MOL
REMARK 924 INTRA-LIGAND FREE ENERGY PREDICTED BY IDOCK:   -1.46 KCAL/MOL
REMARK 927      BINDING AFFINITY PREDICTED BY RF-SCORE:    0.00 PKD
ROOT
HETATM    1  C   UNL     1      -8.768   8.872  65.508  1.00  0.00    -0.215 C  
HETATM    2  C   UNL     1      -9.154  10.066  64.638  1.00  0.00    -0.280 C  
HETATM    3  C   UNL     1      -9.033   9.690  63.157  1.00  0.00    -0.253 C  
HETATM    4  C   UNL     1     -10.567  10.550  65.018  1.00  0.00    -0.109 C  
ENDROOT
BRANCH   4   5
HETATM    5  C   UNL     1     -10.998  11.748  64.184  1.00  0.00    -0.437 C  
BRANCH   5   6
HETATM    6  C   UNL     1     -10.197  13.008  64.498  1.00  0.00    -0.331 C  
HETATM    7  C   UNL     1     -11.120  14.202  64.810  1.00  0.00    -0.393 C  
HETATM    8  C   UNL     1     -12.034  13.925  66.013  1.00  0.00    -0.436 C  
HETATM    9  C   UNL     1     -10.261  15.460  65.025  1.00  0.00    -0.295 C  
BRANCH   9  10
HETATM   10  C   UNL     1     -11.122  16.678  65.340  1.00  0.00     0.014 C  
BRANCH  10  11
HETATM   11  C   UNL     1     -10.755  17.313  66.672  1.00  0.00    -0.080 C  
HETATM   12  C   UNL     1      -9.904  18.583  66.485  1.00  0.00    -0.380 C  
HETATM   13  C   UNL     1      -9.427  19.131  67.844  1.00  0.00    -0.381 C  
HETATM   14  C   UNL     1     -10.648  19.679  65.713  1.00  0.00    -0.537 C  
BRANCH  13  15
HETATM   15  C   UNL     1      -8.574  18.158  68.667  1.00  0.00    -0.282 C  
BRANCH  15  16
HETATM   16  C   UNL     1      -9.402  17.046  69.313  1.00  0.00     0.018 C  
BRANCH  16  17
HETATM   17  C   UNL     1      -9.049  15.688  68.760  1.00  0.00    -0.208 C  
HETATM   18  C   UNL     1      -9.945  14.684  68.840  1.00  0.00    -0.228 C  
HETATM   19  C   UNL     1      -7.713  15.556  68.091  1.00  0.00    -0.126 C  
BRANCH  18  20
HETATM   20  C   UNL     1      -9.799  13.298  68.268  1.00  0.00    -0.231 C  
BRANCH  20  21
HETATM   21  C   UNL     1     -10.453  12.260  69.158  1.00  0.00     0.043 C  
HETATM   22  C   UNL     1     -11.552  12.477  69.912  1.00  0.00    -0.242 C  
HETATM   23  C   UNL     1     -12.281  13.788  70.040  1.00  0.00    -0.407 C  
HETATM   24  C   UNL     1     -12.175  11.371  70.698  1.00  0.00    -0.389 C  
HETATM   25  O   UNL     1     -13.144  11.575  71.417  1.00  0.00    -0.380 OA 
HETATM   26  C   UNL     1     -11.611  10.019  70.576  1.00  0.00    -0.403 A  
HETATM   27  C   UNL     1     -10.465   9.801  69.826  1.00  0.00    -0.278 A  
HETATM   28  C   UNL     1      -9.798  10.919  69.145  1.00  0.00    -0.145 C  
HETATM   29  C   UNL     1      -9.931   8.510  69.724  1.00  0.00    -0.191 A  
HETATM   30  C   UNL     1     -10.554   7.439  70.368  1.00  0.00    -0.238 A  
HETATM   31  O   UNL     1      -8.731  10.726  68.573  1.00  0.00    -0.134 OA 
HETATM   32  C   UNL     1     -11.710   7.658  71.118  1.00  0.00    -0.311 A  
HETATM   33  C   UNL     1     -12.239   8.945  71.224  1.00  0.00    -0.351 A  
ENDBRANCH  20  21
ENDBRANCH  18  20
ENDBRANCH  16  17
ENDBRANCH  15  16
ENDBRANCH  13  15
ENDBRANCH  10  11
ENDBRANCH   9  10
ENDBRANCH   5   6
ENDBRANCH   4   5
TORSDOF 9
ENDMDL
MODEL      210
REMARK 921   NORMALIZED FREE ENERGY PREDICTED BY IDOCK:   -4.48 KCAL/MOL
REMARK 922        TOTAL FREE ENERGY PREDICTED BY IDOCK:  -10.05 KCAL/MOL
REMARK 923 INTER-LIGAND FREE ENERGY PREDICTED BY IDOCK:   -9.36 KCAL/MOL
REMARK 924 INTRA-LIGAND FREE ENERGY PREDICTED BY IDOCK:   -0.68 KCAL/MOL
REMARK 927      BINDING AFFINITY PREDICTED BY RF-SCORE:    0.00 PKD
ROOT
HETATM    1  C   UNL     1      -6.190  20.679  67.986  1.00  0.00    -0.342 C  
HETATM    2  C   UNL     1      -7.579  20.222  67.545  1.00  0.00    -0.341 C  
HETATM    3  C   UNL     1      -7.473  19.426  66.240  1.00  0.00    -0.285 C  
HETATM    4  C   UNL     1      -8.245  19.421  68.680  1.00  0.00    -0.399 C  
ENDROOT
BRANCH   4   5
HETATM    5  C   UNL     1      -9.641  18.948  68.295  1.00  0.00    -0.401 C  
BRANCH   5   6
HETATM    6  C   UNL     1      -9.909  17.502  68.699  1.00  0.00    -0.338 C  
HETATM    7  C   UNL     1     -10.698  16.748  67.611  1.00  0.00    -0.305 C  
HETATM    8  C   UNL     1      -9.949  16.720  66.270  1.00  0.00    -0.336 C  
HETATM    9  C   UNL     1     -11.018  15.330  68.113  1.00  0.00    -0.292 C  
BRANCH   9  10
HETATM   10  C   UNL     1     -11.799  14.531  67.075  1.00  0.00    -0.408 C  
BRANCH  10  11
HETATM   11  C   UNL     1     -10.981  13.390  66.493  1.00  0.00    -0.299 C  
HETATM   12  C   UNL     1     -11.678  12.748  65.278  1.00  0.00    -0.403 C  
HETATM   13  C   UNL     1     -10.903  11.509  64.790  1.00  0.00    -0.360 C  
HETATM   14  C   UNL     1     -11.865  13.736  64.120  1.00  0.00    -0.439 C  
BRANCH  13  15
HETATM   15  C   UNL     1     -10.746  10.396  65.834  1.00  0.00    -0.023 C  
BRANCH  15  16
HETATM   16  C   UNL     1      -9.416   9.652  65.708  1.00  0.00    -0.308 C  
BRANCH  16  17
HETATM   17  C   UNL     1      -9.476   8.281  66.335  1.00  0.00    -0.287 C  
HETATM   18  C   UNL     1     -10.510   7.963  67.138  1.00  0.00    -0.414 C  
HETATM   19  C   UNL     1      -8.383   7.321  65.970  1.00  0.00    -0.140 C  
BRANCH  18  20
HETATM   20  C   UNL     1     -10.778   6.624  67.775  1.00  0.00    -0.352 C  
BRANCH  20  21
HETATM   21  C   UNL     1     -10.712   6.706  69.287  1.00  0.00    -0.307 C  
HETATM   22  C   UNL     1     -10.985   7.815  70.009  1.00  0.00    -0.218 C  
HETATM   23  C   UNL     1     -11.348   9.161  69.442  1.00  0.00     0.177 C  
HETATM   24  C   UNL     1     -10.971   7.782  71.501  1.00  0.00    -0.233 C  
HETATM   25  O   UNL     1     -11.175   8.795  72.157  1.00  0.00    -0.353 OA 
HETATM   26  C   UNL     1     -10.728   6.498  72.173  1.00  0.00    -0.249 A  
HETATM   27  C   UNL     1     -10.418   5.365  71.434  1.00  0.00    -0.294 A  
HETATM   28  C   UNL     1     -10.327   5.436  69.969  1.00  0.00    -0.296 C  
HETATM   29  C   UNL     1     -10.179   4.148  72.085  1.00  0.00    -0.220 A  
HETATM   30  C   UNL     1     -10.260   4.070  73.477  1.00  0.00    -0.210 A  
HETATM   31  O   UNL     1      -9.952   4.453  69.341  1.00  0.00    -0.197 OA 
HETATM   32  C   UNL     1     -10.577   5.207  74.220  1.00  0.00    -0.290 A  
HETATM   33  C   UNL     1     -10.810   6.420  73.571  1.00  0.00    -0.198 A  
ENDBRANCH  20  21
ENDBRANCH  18  20
ENDBRANCH  16  17
ENDBRANCH  15  16
ENDBRANCH  13  15
ENDBRANCH  10  11
ENDBRANCH   9  10
ENDBRANCH   5   6
ENDBRANCH   4   5
TORSDOF 9
ENDMDL
MODEL      211
REMARK 921   NORMALIZED FREE ENERGY PREDICTED BY IDOCK:   -4.48 KCAL/MOL
REMARK 922        TOTAL FREE ENERGY PREDICTED BY IDOCK:  -10.04 KCAL/MOL
REMARK 923 INTER-LIGAND FREE ENERGY PREDICTED BY IDOCK:   -8.13 KCAL/MOL
REMARK 924 INTRA-LIGAND FREE ENERGY PREDICTED BY IDOCK:   -1.91 KCAL/MOL
REMARK 927      BINDING AFFINITY PREDICTED BY RF-SCORE:    0.00 PKD
ROOT
HETATM    1  C   UNL     1      -9.904  20.215  67.736  1.00  0.00    -0.547 C  
HETATM    2  C   UNL     1      -9.266  18.959  67.148  1.00  0.00    -0.313 C  
HETATM    3  C   UNL     1      -8.247  18.383  68.137  1.00  0.00    -0.303 C  
HETATM    4  C   UNL     1     -10.365  17.949  66.767  1.00  0.00    -0.357 C  
ENDROOT
BRANCH   4   5
HETATM    5  C   UNL     1      -9.781  16.678  66.165  1.00  0.00    -0.329 C  
BRANCH   5   6
HETATM    6  C   UNL     1     -10.689  15.466  66.345  1.00  0.00    -0.311 C  
HETATM    7  C   UNL     1     -10.144  14.507  67.422  1.00  0.00    -0.235 C  
HETATM    8  C   UNL     1     -10.012  15.192  68.791  1.00  0.00    -0.229 C  
HETATM    9  C   UNL     1     -11.047  13.264  67.493  1.00  0.00    -0.292 C  
BRANCH   9  10
HETATM   10  C   UNL     1     -10.558  12.275  68.546  1.00  0.00    -0.254 C  
BRANCH  10  11
HETATM   11  C   UNL     1     -11.693  11.454  69.136  1.00  0.00    -0.410 C  
HETATM   12  C   UNL     1     -11.956  11.818  70.609  1.00  0.00    -0.320 C  
HETATM   13  C   UNL     1     -13.013  10.882  71.227  1.00  0.00    -0.492 C  
HETATM   14  C   UNL     1     -12.388  13.279  70.785  1.00  0.00    -0.425 C  
BRANCH  13  15
HETATM   15  C   UNL     1     -12.643   9.393  71.210  1.00  0.00    -0.403 C  
BRANCH  15  16
HETATM   16  C   UNL     1     -12.146   8.891  72.566  1.00  0.00    -0.266 C  
BRANCH  16  17
HETATM   17  C   UNL     1     -10.937   8.001  72.428  1.00  0.00    -0.402 C  
HETATM   18  C   UNL     1      -9.832   8.470  71.814  1.00  0.00    -0.339 C  
HETATM   19  C   UNL     1     -11.025   6.638  73.047  1.00  0.00    -0.279 C  
BRANCH  18  20
HETATM   20  C   UNL     1      -8.513   7.759  71.664  1.00  0.00    -0.128 C  
BRANCH  20  21
HETATM   21  C   UNL     1      -8.397   7.085  70.311  1.00  0.00    -0.133 C  
HETATM   22  C   UNL     1      -8.455   5.751  70.110  1.00  0.00    -0.121 C  
HETATM   23  C   UNL     1      -8.592   4.708  71.188  1.00  0.00    -0.128 C  
HETATM   24  C   UNL     1      -8.412   5.179  68.732  1.00  0.00    -0.087 C  
HETATM   25  O   UNL     1      -8.420   3.969  68.550  1.00  0.00    -0.088 OA 
HETATM   26  C   UNL     1      -8.380   6.103  67.589  1.00  0.00    -0.112 A  
HETATM   27  C   UNL     1      -8.290   7.472  67.795  1.00  0.00    -0.119 A  
HETATM   28  C   UNL     1      -8.223   8.016  69.158  1.00  0.00    -0.130 C  
HETATM   29  C   UNL     1      -8.251   8.343  66.698  1.00  0.00    -0.105 A  
HETATM   30  C   UNL     1      -8.311   7.838  65.398  1.00  0.00    -0.141 A  
HETATM   31  O   UNL     1      -8.040   9.217  69.319  1.00  0.00    -0.099 OA 
HETATM   32  C   UNL     1      -8.406   6.462  65.192  1.00  0.00    -0.109 A  
HETATM   33  C   UNL     1      -8.440   5.594  66.284  1.00  0.00    -0.124 A  
ENDBRANCH  20  21
ENDBRANCH  18  20
ENDBRANCH  16  17
ENDBRANCH  15  16
ENDBRANCH  13  15
ENDBRANCH  10  11
ENDBRANCH   9  10
ENDBRANCH   5   6
ENDBRANCH   4   5
TORSDOF 9
ENDMDL
MODEL      212
REMARK 921   NORMALIZED FREE ENERGY PREDICTED BY IDOCK:   -4.47 KCAL/MOL
REMARK 922        TOTAL FREE ENERGY PREDICTED BY IDOCK:  -10.03 KCAL/MOL
REMARK 923 INTER-LIGAND FREE ENERGY PREDICTED BY IDOCK:   -8.51 KCAL/MOL
REMARK 924 INTRA-LIGAND FREE ENERGY PREDICTED BY IDOCK:   -1.52 KCAL/MOL
REMARK 927      BINDING AFFINITY PREDICTED BY RF-SCORE:    0.00 PKD
ROOT
HETATM    1  C   UNL     1      -9.187   5.098  70.812  1.00  0.00    -0.188 C  
HETATM    2  C   UNL     1      -8.121   5.282  69.733  1.00  0.00    -0.087 C  
HETATM    3  C   UNL     1      -6.749   4.885  70.287  1.00  0.00    -0.036 C  
HETATM    4  C   UNL     1      -8.512   4.481  68.476  1.00  0.00    -0.096 C  
ENDROOT
BRANCH   4   5
HETATM    5  C   UNL     1      -7.485   4.637  67.364  1.00  0.00    -0.078 C  
BRANCH   5   6
HETATM    6  C   UNL     1      -7.422   6.057  66.811  1.00  0.00    -0.087 C  
HETATM    7  C   UNL     1      -7.478   6.067  65.271  1.00  0.00    -0.083 C  
HETATM    8  C   UNL     1      -8.765   5.422  64.736  1.00  0.00    -0.075 C  
HETATM    9  C   UNL     1      -7.316   7.513  64.770  1.00  0.00    -0.080 C  
BRANCH   9  10
HETATM   10  C   UNL     1      -7.366   7.587  63.248  1.00  0.00    -0.090 C  
BRANCH  10  11
HETATM   11  C   UNL     1      -8.344   8.641  62.755  1.00  0.00    -0.174 C  
HETATM   12  C   UNL     1      -7.918  10.059  63.178  1.00  0.00    -0.148 C  
HETATM   13  C   UNL     1      -8.991  11.095  62.789  1.00  0.00    -0.321 C  
HETATM   14  C   UNL     1      -6.562  10.466  62.585  1.00  0.00    -0.138 C  
BRANCH  13  15
HETATM   15  C   UNL     1     -10.372  10.856  63.413  1.00  0.00    -0.299 C  
BRANCH  15  16
HETATM   16  C   UNL     1     -10.658  11.789  64.590  1.00  0.00    -0.359 C  
BRANCH  16  17
HETATM   17  C   UNL     1     -10.231  11.185  65.904  1.00  0.00    -0.303 C  
HETATM   18  C   UNL     1     -10.115  11.972  66.992  1.00  0.00    -0.221 C  
HETATM   19  C   UNL     1     -10.013   9.701  65.927  1.00  0.00    -0.351 C  
BRANCH  18  20
HETATM   20  C   UNL     1      -9.788  11.530  68.394  1.00  0.00    -0.204 C  
BRANCH  20  21
HETATM   21  C   UNL     1     -10.923  11.834  69.351  1.00  0.00    -0.185 C  
HETATM   22  C   UNL     1     -11.544  10.917  70.122  1.00  0.00    -0.425 C  
HETATM   23  C   UNL     1     -11.257   9.439  70.128  1.00  0.00    -0.253 C  
HETATM   24  C   UNL     1     -12.601  11.320  71.096  1.00  0.00    -0.397 C  
HETATM   25  O   UNL     1     -13.197  10.486  71.764  1.00  0.00    -0.425 OA 
HETATM   26  C   UNL     1     -12.901  12.751  71.254  1.00  0.00    -0.355 A  
HETATM   27  C   UNL     1     -12.285  13.692  70.442  1.00  0.00    -0.434 A  
HETATM   28  C   UNL     1     -11.327  13.270  69.411  1.00  0.00    -0.219 C  
HETATM   29  C   UNL     1     -12.585  15.052  70.594  1.00  0.00    -0.429 A  
HETATM   30  C   UNL     1     -13.497  15.464  71.568  1.00  0.00    -0.601 A  
HETATM   31  O   UNL     1     -10.871  14.103  68.635  1.00  0.00    -0.240 OA 
HETATM   32  C   UNL     1     -14.112  14.519  72.388  1.00  0.00    -0.544 A  
HETATM   33  C   UNL     1     -13.817  13.163  72.232  1.00  0.00    -0.586 A  
ENDBRANCH  20  21
ENDBRANCH  18  20
ENDBRANCH  16  17
ENDBRANCH  15  16
ENDBRANCH  13  15
ENDBRANCH  10  11
ENDBRANCH   9  10
ENDBRANCH   5   6
ENDBRANCH   4   5
TORSDOF 9
ENDMDL
MODEL      213
REMARK 921   NORMALIZED FREE ENERGY PREDICTED BY IDOCK:   -4.44 KCAL/MOL
REMARK 922        TOTAL FREE ENERGY PREDICTED BY IDOCK:   -9.97 KCAL/MOL
REMARK 923 INTER-LIGAND FREE ENERGY PREDICTED BY IDOCK:   -7.64 KCAL/MOL
REMARK 924 INTRA-LIGAND FREE ENERGY PREDICTED BY IDOCK:   -2.33 KCAL/MOL
REMARK 927      BINDING AFFINITY PREDICTED BY RF-SCORE:    0.00 PKD
ROOT
HETATM    1  C   UNL     1     -11.694  15.488  72.527  1.00  0.00    -0.569 C  
HETATM    2  C   UNL     1     -12.331  14.368  71.707  1.00  0.00    -0.390 C  
HETATM    3  C   UNL     1     -13.857  14.468  71.791  1.00  0.00    -0.525 C  
HETATM    4  C   UNL     1     -11.808  14.424  70.259  1.00  0.00    -0.382 C  
ENDROOT
BRANCH   4   5
HETATM    5  C   UNL     1     -12.406  13.320  69.398  1.00  0.00    -0.086 C  
BRANCH   5   6
HETATM    6  C   UNL     1     -11.438  12.167  69.155  1.00  0.00    -0.352 C  
HETATM    7  C   UNL     1     -11.434  11.174  70.334  1.00  0.00    -0.265 C  
HETATM    8  C   UNL     1     -12.823  10.565  70.580  1.00  0.00    -0.407 C  
HETATM    9  C   UNL     1     -10.375  10.089  70.075  1.00  0.00    -0.323 C  
BRANCH   9  10
HETATM   10  C   UNL     1     -10.325   9.073  71.211  1.00  0.00    -0.383 C  
BRANCH  10  11
HETATM   11  C   UNL     1     -10.241   7.643  70.700  1.00  0.00    -0.199 C  
HETATM   12  C   UNL     1     -11.087   6.680  71.554  1.00  0.00    -0.297 C  
HETATM   13  C   UNL     1     -10.880   5.220  71.106  1.00  0.00    -0.131 C  
HETATM   14  C   UNL     1     -12.581   7.028  71.523  1.00  0.00    -0.426 C  
BRANCH  13  15
HETATM   15  C   UNL     1      -9.433   4.719  71.196  1.00  0.00    -0.218 C  
BRANCH  15  16
HETATM   16  C   UNL     1      -9.255   3.318  70.610  1.00  0.00    -0.207 C  
BRANCH  16  17
HETATM   17  C   UNL     1      -9.269   3.333  69.102  1.00  0.00    -0.225 C  
HETATM   18  C   UNL     1      -9.169   4.507  68.448  1.00  0.00    -0.178 C  
HETATM   19  C   UNL     1      -9.337   2.002  68.412  1.00  0.00    -0.250 C  
BRANCH  18  20
HETATM   20  C   UNL     1      -9.079   4.704  66.957  1.00  0.00    -0.126 C  
BRANCH  20  21
HETATM   21  C   UNL     1      -8.779   6.147  66.605  1.00  0.00    -0.124 C  
HETATM   22  C   UNL     1      -9.658   7.165  66.722  1.00  0.00    -0.230 C  
HETATM   23  C   UNL     1     -11.091   7.038  67.169  1.00  0.00    -0.298 C  
HETATM   24  C   UNL     1      -9.250   8.570  66.427  1.00  0.00    -0.199 C  
HETATM   25  O   UNL     1     -10.056   9.489  66.490  1.00  0.00    -0.239 OA 
HETATM   26  C   UNL     1      -7.847   8.835  66.078  1.00  0.00    -0.105 A  
HETATM   27  C   UNL     1      -6.950   7.787  65.927  1.00  0.00    -0.061 A  
HETATM   28  C   UNL     1      -7.392   6.399  66.114  1.00  0.00    -0.080 C  
HETATM   29  C   UNL     1      -5.618   8.050  65.585  1.00  0.00    -0.036 A  
HETATM   30  C   UNL     1      -5.187   9.366  65.402  1.00  0.00    -0.036 A  
HETATM   31  O   UNL     1      -6.614   5.482  65.877  1.00  0.00    -0.042 OA 
HETATM   32  C   UNL     1      -6.087  10.419  65.558  1.00  0.00    -0.123 A  
HETATM   33  C   UNL     1      -7.416  10.157  65.894  1.00  0.00    -0.125 A  
ENDBRANCH  20  21
ENDBRANCH  18  20
ENDBRANCH  16  17
ENDBRANCH  15  16
ENDBRANCH  13  15
ENDBRANCH  10  11
ENDBRANCH   9  10
ENDBRANCH   5   6
ENDBRANCH   4   5
TORSDOF 9
ENDMDL
MODEL      214
REMARK 921   NORMALIZED FREE ENERGY PREDICTED BY IDOCK:   -4.42 KCAL/MOL
REMARK 922        TOTAL FREE ENERGY PREDICTED BY IDOCK:   -9.95 KCAL/MOL
REMARK 923 INTER-LIGAND FREE ENERGY PREDICTED BY IDOCK:   -6.84 KCAL/MOL
REMARK 924 INTRA-LIGAND FREE ENERGY PREDICTED BY IDOCK:   -3.11 KCAL/MOL
REMARK 927      BINDING AFFINITY PREDICTED BY RF-SCORE:    0.00 PKD
ROOT
HETATM    1  C   UNL     1     -10.863  16.588  67.342  1.00  0.00    -0.202 C  
HETATM    2  C   UNL     1      -9.805  15.658  66.753  1.00  0.00    -0.255 C  
HETATM    3  C   UNL     1      -8.871  16.452  65.833  1.00  0.00    -0.170 C  
HETATM    4  C   UNL     1      -9.055  14.939  67.890  1.00  0.00    -0.182 C  
ENDROOT
BRANCH   4   5
HETATM    5  C   UNL     1      -7.992  13.990  67.355  1.00  0.00    -0.191 C  
BRANCH   5   6
HETATM    6  C   UNL     1      -7.273  13.221  68.460  1.00  0.00    -0.110 C  
HETATM    7  C   UNL     1      -7.794  11.775  68.572  1.00  0.00    -0.144 C  
HETATM    8  C   UNL     1      -7.602  10.990  67.265  1.00  0.00    -0.111 C  
HETATM    9  C   UNL     1      -7.102  11.082  69.759  1.00  0.00    -0.052 C  
BRANCH   9  10
HETATM   10  C   UNL     1      -7.576   9.641  69.919  1.00  0.00    -0.138 C  
BRANCH  10  11
HETATM   11  C   UNL     1      -7.151   9.041  71.250  1.00  0.00    -0.093 C  
HETATM   12  C   UNL     1      -7.473   7.536  71.327  1.00  0.00    -0.079 C  
HETATM   13  C   UNL     1      -7.163   6.978  72.729  1.00  0.00    -0.073 C  
HETATM   14  C   UNL     1      -6.724   6.721  70.264  1.00  0.00    -0.053 C  
BRANCH  13  15
HETATM   15  C   UNL     1      -7.938   7.644  73.873  1.00  0.00    -0.200 C  
BRANCH  15  16
HETATM   16  C   UNL     1      -8.933   6.696  74.544  1.00  0.00    -0.210 C  
BRANCH  16  17
HETATM   17  C   UNL     1     -10.249   6.648  73.809  1.00  0.00    -0.354 C  
HETATM   18  C   UNL     1     -10.688   7.745  73.161  1.00  0.00    -0.414 C  
HETATM   19  C   UNL     1     -10.973   5.335  73.802  1.00  0.00    -0.259 C  
BRANCH  18  20
HETATM   20  C   UNL     1     -11.926   7.853  72.310  1.00  0.00    -0.387 C  
BRANCH  20  21
HETATM   21  C   UNL     1     -11.592   8.294  70.898  1.00  0.00    -0.282 C  
HETATM   22  C   UNL     1     -11.784   9.541  70.417  1.00  0.00    -0.227 C  
HETATM   23  C   UNL     1     -12.405  10.685  71.173  1.00  0.00    -0.505 C  
HETATM   24  C   UNL     1     -11.352   9.906  69.036  1.00  0.00    -0.023 C  
HETATM   25  O   UNL     1     -11.564  11.022  68.582  1.00  0.00    -0.279 OA 
HETATM   26  C   UNL     1     -10.641   8.900  68.234  1.00  0.00    -0.203 A  
HETATM   27  C   UNL     1     -10.470   7.610  68.715  1.00  0.00    -0.208 A  
HETATM   28  C   UNL     1     -10.998   7.233  70.033  1.00  0.00    -0.253 C  
HETATM   29  C   UNL     1      -9.800   6.656  67.938  1.00  0.00    -0.138 A  
HETATM   30  C   UNL     1      -9.296   7.002  66.682  1.00  0.00    -0.203 A  
HETATM   31  O   UNL     1     -10.929   6.065  70.398  1.00  0.00    -0.293 OA 
HETATM   32  C   UNL     1      -9.464   8.300  66.200  1.00  0.00    -0.241 A  
HETATM   33  C   UNL     1     -10.136   9.249  66.973  1.00  0.00    -0.313 A  
ENDBRANCH  20  21
ENDBRANCH  18  20
ENDBRANCH  16  17
ENDBRANCH  15  16
ENDBRANCH  13  15
ENDBRANCH  10  11
ENDBRANCH   9  10
ENDBRANCH   5   6
ENDBRANCH   4   5
TORSDOF 9
ENDMDL
MODEL      215
REMARK 921   NORMALIZED FREE ENERGY PREDICTED BY IDOCK:   -4.40 KCAL/MOL
REMARK 922        TOTAL FREE ENERGY PREDICTED BY IDOCK:   -9.92 KCAL/MOL
REMARK 923 INTER-LIGAND FREE ENERGY PREDICTED BY IDOCK:   -8.33 KCAL/MOL
REMARK 924 INTRA-LIGAND FREE ENERGY PREDICTED BY IDOCK:   -1.58 KCAL/MOL
REMARK 927      BINDING AFFINITY PREDICTED BY RF-SCORE:    0.00 PKD
ROOT
HETATM    1  C   UNL     1      -8.384   3.635  73.120  1.00  0.00    -0.087 C  
HETATM    2  C   UNL     1      -8.866   4.792  72.247  1.00  0.00    -0.133 C  
HETATM    3  C   UNL     1      -8.459   4.546  70.790  1.00  0.00    -0.107 C  
HETATM    4  C   UNL     1     -10.386   4.973  72.419  1.00  0.00    -0.261 C  
ENDROOT
BRANCH   4   5
HETATM    5  C   UNL     1     -10.918   6.123  71.574  1.00  0.00    -0.328 C  
BRANCH   5   6
HETATM    6  C   UNL     1      -9.921   7.269  71.437  1.00  0.00    -0.193 C  
HETATM    7  C   UNL     1     -10.487   8.410  70.570  1.00  0.00    -0.227 C  
HETATM    8  C   UNL     1     -11.781   8.994  71.158  1.00  0.00    -0.366 C  
HETATM    9  C   UNL     1      -9.406   9.490  70.391  1.00  0.00    -0.311 C  
BRANCH   9  10
HETATM   10  C   UNL     1      -9.910  10.651  69.540  1.00  0.00    -0.115 C  
BRANCH  10  11
HETATM   11  C   UNL     1      -9.828  10.352  68.052  1.00  0.00    -0.170 C  
HETATM   12  C   UNL     1      -8.940  11.370  67.312  1.00  0.00    -0.159 C  
HETATM   13  C   UNL     1      -8.981  11.132  65.790  1.00  0.00    -0.207 C  
HETATM   14  C   UNL     1      -7.487  11.347  67.804  1.00  0.00    -0.100 C  
BRANCH  13  15
HETATM   15  C   UNL     1     -10.375  11.238  65.160  1.00  0.00    -0.353 C  
BRANCH  15  16
HETATM   16  C   UNL     1     -10.601  12.570  64.443  1.00  0.00    -0.376 C  
BRANCH  16  17
HETATM   17  C   UNL     1     -11.206  13.605  65.357  1.00  0.00    -0.306 C  
HETATM   18  C   UNL     1     -10.404  14.485  65.989  1.00  0.00    -0.320 C  
HETATM   19  C   UNL     1     -12.702  13.624  65.462  1.00  0.00    -0.514 C  
BRANCH  18  20
HETATM   20  C   UNL     1     -10.837  15.633  66.864  1.00  0.00    -0.282 C  
BRANCH  20  21
HETATM   21  C   UNL     1      -9.657  16.491  67.277  1.00  0.00    -0.242 C  
HETATM   22  C   UNL     1      -8.794  16.183  68.269  1.00  0.00    -0.188 C  
HETATM   23  C   UNL     1      -8.881  14.974  69.162  1.00  0.00    -0.184 C  
HETATM   24  C   UNL     1      -7.613  17.050  68.554  1.00  0.00    -0.231 C  
HETATM   25  O   UNL     1      -6.853  16.798  69.480  1.00  0.00    -0.231 OA 
HETATM   26  C   UNL     1      -7.365  18.208  67.683  1.00  0.00    -0.214 A  
HETATM   27  C   UNL     1      -8.266  18.542  66.684  1.00  0.00    -0.288 A  
HETATM   28  C   UNL     1      -9.483  17.743  66.484  1.00  0.00    -0.290 C  
HETATM   29  C   UNL     1      -8.025  19.653  65.866  1.00  0.00    -0.265 A  
HETATM   30  C   UNL     1      -6.873  20.421  66.048  1.00  0.00    -0.276 A  
HETATM   31  O   UNL     1     -10.319  18.112  65.666  1.00  0.00    -0.603 OA 
HETATM   32  C   UNL     1      -5.964  20.083  67.049  1.00  0.00    -0.189 A  
HETATM   33  C   UNL     1      -6.207  18.979  67.868  1.00  0.00    -0.217 A  
ENDBRANCH  20  21
ENDBRANCH  18  20
ENDBRANCH  16  17
ENDBRANCH  15  16
ENDBRANCH  13  15
ENDBRANCH  10  11
ENDBRANCH   9  10
ENDBRANCH   5   6
ENDBRANCH   4   5
TORSDOF 9
ENDMDL
MODEL      216
REMARK 921   NORMALIZED FREE ENERGY PREDICTED BY IDOCK:   -4.38 KCAL/MOL
REMARK 922        TOTAL FREE ENERGY PREDICTED BY IDOCK:   -9.89 KCAL/MOL
REMARK 923 INTER-LIGAND FREE ENERGY PREDICTED BY IDOCK:   -7.38 KCAL/MOL
REMARK 924 INTRA-LIGAND FREE ENERGY PREDICTED BY IDOCK:   -2.51 KCAL/MOL
REMARK 927      BINDING AFFINITY PREDICTED BY RF-SCORE:    0.00 PKD
ROOT
HETATM    1  C   UNL     1      -6.200   6.130  68.550  1.00  0.00    -0.035 C  
HETATM    2  C   UNL     1      -5.805   7.589  68.334  1.00  0.00    -0.027 C  
HETATM    3  C   UNL     1      -5.906   7.938  66.845  1.00  0.00    -0.044 C  
HETATM    4  C   UNL     1      -6.677   8.499  69.221  1.00  0.00    -0.050 C  
ENDROOT
BRANCH   4   5
HETATM    5  C   UNL     1      -6.317   9.969  69.049  1.00  0.00    -0.044 C  
BRANCH   5   6
HETATM    6  C   UNL     1      -7.529  10.844  68.747  1.00  0.00    -0.112 C  
HETATM    7  C   UNL     1      -7.125  12.319  68.549  1.00  0.00    -0.099 C  
HETATM    8  C   UNL     1      -6.130  12.494  67.392  1.00  0.00    -0.155 C  
HETATM    9  C   UNL     1      -8.394  13.164  68.342  1.00  0.00    -0.122 C  
BRANCH   9  10
HETATM   10  C   UNL     1      -8.058  14.637  68.138  1.00  0.00    -0.137 C  
BRANCH  10  11
HETATM   11  C   UNL     1      -9.101  15.354  67.296  1.00  0.00    -0.218 C  
HETATM   12  C   UNL     1     -10.516  14.800  67.546  1.00  0.00    -0.245 C  
HETATM   13  C   UNL     1     -11.536  15.443  66.585  1.00  0.00     0.062 C  
HETATM   14  C   UNL     1     -10.974  14.992  68.997  1.00  0.00    -0.253 C  
BRANCH  13  15
HETATM   15  C   UNL     1     -11.244  15.224  65.096  1.00  0.00    -0.374 C  
BRANCH  15  16
HETATM   16  C   UNL     1     -10.045  14.304  64.857  1.00  0.00    -0.267 C  
BRANCH  16  17
HETATM   17  C   UNL     1     -10.470  12.879  64.606  1.00  0.00    -0.385 C  
HETATM   18  C   UNL     1      -9.961  11.890  65.367  1.00  0.00    -0.281 C  
HETATM   19  C   UNL     1     -11.499  12.658  63.538  1.00  0.00    -0.557 C  
BRANCH  18  20
HETATM   20  C   UNL     1     -10.333  10.431  65.316  1.00  0.00    -0.267 C  
BRANCH  20  21
HETATM   21  C   UNL     1     -10.531   9.861  66.707  1.00  0.00    -0.261 C  
HETATM   22  C   UNL     1     -10.071   8.659  67.116  1.00  0.00    -0.329 C  
HETATM   23  C   UNL     1      -9.334   7.664  66.258  1.00  0.00    -0.189 C  
HETATM   24  C   UNL     1     -10.244   8.212  68.530  1.00  0.00    -0.208 C  
HETATM   25  O   UNL     1      -9.867   7.106  68.893  1.00  0.00    -0.152 OA 
HETATM   26  C   UNL     1     -10.860   9.139  69.489  1.00  0.00    -0.194 A  
HETATM   27  C   UNL     1     -11.360  10.361  69.064  1.00  0.00    -0.279 A  
HETATM   28  C   UNL     1     -11.281  10.743  67.647  1.00  0.00    -0.299 C  
HETATM   29  C   UNL     1     -11.954  11.234  69.985  1.00  0.00    -0.447 A  
HETATM   30  C   UNL     1     -12.037  10.880  71.333  1.00  0.00    -0.241 A  
HETATM   31  O   UNL     1     -11.819  11.779  67.272  1.00  0.00    -0.596 OA 
HETATM   32  C   UNL     1     -11.530   9.654  71.762  1.00  0.00    -0.258 A  
HETATM   33  C   UNL     1     -10.942   8.783  70.843  1.00  0.00    -0.315 A  
ENDBRANCH  20  21
ENDBRANCH  18  20
ENDBRANCH  16  17
ENDBRANCH  15  16
ENDBRANCH  13  15
ENDBRANCH  10  11
ENDBRANCH   9  10
ENDBRANCH   5   6
ENDBRANCH   4   5
TORSDOF 9
ENDMDL
MODEL      217
REMARK 921   NORMALIZED FREE ENERGY PREDICTED BY IDOCK:   -4.37 KCAL/MOL
REMARK 922        TOTAL FREE ENERGY PREDICTED BY IDOCK:   -9.87 KCAL/MOL
REMARK 923 INTER-LIGAND FREE ENERGY PREDICTED BY IDOCK:   -6.71 KCAL/MOL
REMARK 924 INTRA-LIGAND FREE ENERGY PREDICTED BY IDOCK:   -3.15 KCAL/MOL
REMARK 927      BINDING AFFINITY PREDICTED BY RF-SCORE:    0.00 PKD
ROOT
HETATM    1  C   UNL     1     -10.241   6.085  74.563  1.00  0.00    -0.307 C  
HETATM    2  C   UNL     1      -9.414   6.721  73.448  1.00  0.00    -0.177 C  
HETATM    3  C   UNL     1      -8.611   5.641  72.717  1.00  0.00    -0.119 C  
HETATM    4  C   UNL     1     -10.338   7.518  72.508  1.00  0.00    -0.291 C  
ENDROOT
BRANCH   4   5
HETATM    5  C   UNL     1      -9.560   8.183  71.380  1.00  0.00    -0.212 C  
BRANCH   5   6
HETATM    6  C   UNL     1     -10.346   8.247  70.074  1.00  0.00    -0.212 C  
HETATM    7  C   UNL     1      -9.736   7.324  69.002  1.00  0.00    -0.152 C  
HETATM    8  C   UNL     1      -9.709   5.855  69.451  1.00  0.00    -0.191 C  
HETATM    9  C   UNL     1     -10.512   7.502  67.685  1.00  0.00    -0.319 C  
BRANCH   9  10
HETATM   10  C   UNL     1      -9.953   6.609  66.582  1.00  0.00    -0.203 C  
BRANCH  10  11
HETATM   11  C   UNL     1      -8.792   7.260  65.848  1.00  0.00    -0.136 C  
HETATM   12  C   UNL     1      -7.454   6.563  66.163  1.00  0.00    -0.081 C  
HETATM   13  C   UNL     1      -6.275   7.320  65.522  1.00  0.00    -0.038 C  
HETATM   14  C   UNL     1      -7.437   5.096  65.715  1.00  0.00    -0.082 C  
BRANCH  13  15
HETATM   15  C   UNL     1      -6.121   8.777  65.978  1.00  0.00    -0.052 C  
BRANCH  15  16
HETATM   16  C   UNL     1      -5.519   8.897  67.378  1.00  0.00    -0.038 C  
BRANCH  16  17
HETATM   17  C   UNL     1      -6.371   9.749  68.285  1.00  0.00    -0.055 C  
HETATM   18  C   UNL     1      -7.511  10.291  67.812  1.00  0.00    -0.088 C  
HETATM   19  C   UNL     1      -5.911   9.895  69.706  1.00  0.00    -0.043 C  
BRANCH  18  20
HETATM   20  C   UNL     1      -8.522  11.090  68.592  1.00  0.00    -0.157 C  
BRANCH  20  21
HETATM   21  C   UNL     1      -9.090  12.225  67.764  1.00  0.00    -0.191 C  
HETATM   22  C   UNL     1      -8.464  13.401  67.540  1.00  0.00    -0.192 C  
HETATM   23  C   UNL     1      -7.130  13.805  68.110  1.00  0.00    -0.118 C  
HETATM   24  C   UNL     1      -9.066  14.433  66.645  1.00  0.00    -0.240 C  
HETATM   25  O   UNL     1      -8.522  15.516  66.475  1.00  0.00    -0.270 OA 
HETATM   26  C   UNL     1     -10.321  14.113  65.950  1.00  0.00    -0.326 A  
HETATM   27  C   UNL     1     -10.980  12.919  66.202  1.00  0.00    -0.304 A  
HETATM   28  C   UNL     1     -10.433  11.958  67.170  1.00  0.00    -0.221 C  
HETATM   29  C   UNL     1     -12.180  12.629  65.541  1.00  0.00    -0.501 A  
HETATM   30  C   UNL     1     -12.712  13.535  64.621  1.00  0.00    -0.225 A  
HETATM   31  O   UNL     1     -11.079  10.957  67.456  1.00  0.00    -0.279 OA 
HETATM   32  C   UNL     1     -12.047  14.734  64.364  1.00  0.00    -0.457 A  
HETATM   33  C   UNL     1     -10.853  15.025  65.027  1.00  0.00    -0.439 A  
ENDBRANCH  20  21
ENDBRANCH  18  20
ENDBRANCH  16  17
ENDBRANCH  15  16
ENDBRANCH  13  15
ENDBRANCH  10  11
ENDBRANCH   9  10
ENDBRANCH   5   6
ENDBRANCH   4   5
TORSDOF 9
ENDMDL
MODEL      218
REMARK 921   NORMALIZED FREE ENERGY PREDICTED BY IDOCK:   -4.36 KCAL/MOL
REMARK 922        TOTAL FREE ENERGY PREDICTED BY IDOCK:   -9.86 KCAL/MOL
REMARK 923 INTER-LIGAND FREE ENERGY PREDICTED BY IDOCK:   -7.51 KCAL/MOL
REMARK 924 INTRA-LIGAND FREE ENERGY PREDICTED BY IDOCK:   -2.34 KCAL/MOL
REMARK 927      BINDING AFFINITY PREDICTED BY RF-SCORE:    0.00 PKD
ROOT
HETATM    1  C   UNL     1      -9.993  17.751  68.787  1.00  0.00    -0.367 C  
HETATM    2  C   UNL     1     -10.267  16.249  68.799  1.00  0.00    -0.249 C  
HETATM    3  C   UNL     1      -8.982  15.489  69.144  1.00  0.00    -0.256 C  
HETATM    4  C   UNL     1     -11.422  15.940  69.772  1.00  0.00    -0.342 C  
ENDROOT
BRANCH   4   5
HETATM    5  C   UNL     1     -11.743  14.452  69.815  1.00  0.00    -0.361 C  
BRANCH   5   6
HETATM    6  C   UNL     1     -12.024  13.866  68.435  1.00  0.00    -0.391 C  
HETATM    7  C   UNL     1     -11.215  12.578  68.193  1.00  0.00    -0.312 C  
HETATM    8  C   UNL     1     -11.537  11.490  69.230  1.00  0.00    -0.388 C  
HETATM    9  C   UNL     1     -11.467  12.087  66.757  1.00  0.00    -0.410 C  
BRANCH   9  10
HETATM   10  C   UNL     1     -10.691  10.808  66.458  1.00  0.00    -0.245 C  
BRANCH  10  11
HETATM   11  C   UNL     1      -9.737  10.975  65.286  1.00  0.00    -0.286 C  
HETATM   12  C   UNL     1     -10.475  10.922  63.935  1.00  0.00    -0.359 C  
HETATM   13  C   UNL     1      -9.477  10.954  62.761  1.00  0.00    -0.359 C  
HETATM   14  C   UNL     1     -11.498  12.054  63.781  1.00  0.00    -0.547 C  
BRANCH  13  15
HETATM   15  C   UNL     1      -8.465   9.801  62.745  1.00  0.00    -0.176 C  
BRANCH  15  16
HETATM   16  C   UNL     1      -7.035  10.267  63.024  1.00  0.00    -0.121 C  
BRANCH  16  17
HETATM   17  C   UNL     1      -6.374   9.442  64.099  1.00  0.00    -0.093 C  
HETATM   18  C   UNL     1      -6.441   9.846  65.383  1.00  0.00    -0.094 C  
HETATM   19  C   UNL     1      -5.717   8.165  63.665  1.00  0.00    -0.065 C  
BRANCH  18  20
HETATM   20  C   UNL     1      -5.918   9.110  66.589  1.00  0.00    -0.060 C  
BRANCH  20  21
HETATM   21  C   UNL     1      -7.037   8.743  67.543  1.00  0.00    -0.079 C  
HETATM   22  C   UNL     1      -7.428   9.494  68.594  1.00  0.00    -0.079 C  
HETATM   23  C   UNL     1      -6.793  10.789  69.029  1.00  0.00    -0.075 C  
HETATM   24  C   UNL     1      -8.594   9.093  69.435  1.00  0.00    -0.138 C  
HETATM   25  O   UNL     1      -8.923   9.748  70.414  1.00  0.00    -0.223 OA 
HETATM   26  C   UNL     1      -9.359   7.897  69.049  1.00  0.00    -0.151 A  
HETATM   27  C   UNL     1      -8.941   7.108  67.988  1.00  0.00    -0.127 A  
HETATM   28  C   UNL     1      -7.727   7.455  67.236  1.00  0.00    -0.116 C  
HETATM   29  C   UNL     1      -9.671   5.966  67.635  1.00  0.00    -0.122 A  
HETATM   30  C   UNL     1     -10.825   5.624  68.343  1.00  0.00    -0.161 A  
HETATM   31  O   UNL     1      -7.316   6.692  66.370  1.00  0.00    -0.071 OA 
HETATM   32  C   UNL     1     -11.248   6.421  69.407  1.00  0.00    -0.459 A  
HETATM   33  C   UNL     1     -10.517   7.556  69.762  1.00  0.00    -0.232 A  
ENDBRANCH  20  21
ENDBRANCH  18  20
ENDBRANCH  16  17
ENDBRANCH  15  16
ENDBRANCH  13  15
ENDBRANCH  10  11
ENDBRANCH   9  10
ENDBRANCH   5   6
ENDBRANCH   4   5
TORSDOF 9
ENDMDL
MODEL      219
REMARK 921   NORMALIZED FREE ENERGY PREDICTED BY IDOCK:   -4.36 KCAL/MOL
REMARK 922        TOTAL FREE ENERGY PREDICTED BY IDOCK:   -9.85 KCAL/MOL
REMARK 923 INTER-LIGAND FREE ENERGY PREDICTED BY IDOCK:   -6.31 KCAL/MOL
REMARK 924 INTRA-LIGAND FREE ENERGY PREDICTED BY IDOCK:   -3.54 KCAL/MOL
REMARK 927      BINDING AFFINITY PREDICTED BY RF-SCORE:    0.00 PKD
ROOT
HETATM    1  C   UNL     1     -11.407   1.467  73.741  1.00  0.00    -0.274 C  
HETATM    2  C   UNL     1     -10.341   2.457  73.277  1.00  0.00    -0.214 C  
HETATM    3  C   UNL     1      -9.674   1.939  71.998  1.00  0.00    -0.196 C  
HETATM    4  C   UNL     1     -10.970   3.852  73.099  1.00  0.00    -0.246 C  
ENDROOT
BRANCH   4   5
HETATM    5  C   UNL     1      -9.944   4.881  72.645  1.00  0.00    -0.210 C  
BRANCH   5   6
HETATM    6  C   UNL     1     -10.310   5.537  71.317  1.00  0.00    -0.297 C  
HETATM    7  C   UNL     1      -9.063   5.782  70.445  1.00  0.00    -0.160 C  
HETATM    8  C   UNL     1      -8.319   4.477  70.125  1.00  0.00    -0.080 C  
HETATM    9  C   UNL     1      -9.482   6.527  69.166  1.00  0.00    -0.136 C  
BRANCH   9  10
HETATM   10  C   UNL     1      -8.287   6.797  68.259  1.00  0.00    -0.118 C  
BRANCH  10  11
HETATM   11  C   UNL     1      -8.709   7.181  66.850  1.00  0.00    -0.126 C  
HETATM   12  C   UNL     1      -7.714   6.665  65.794  1.00  0.00    -0.092 C  
HETATM   13  C   UNL     1      -8.084   7.181  64.389  1.00  0.00    -0.056 C  
HETATM   14  C   UNL     1      -7.616   5.135  65.777  1.00  0.00    -0.083 C  
BRANCH  13  15
HETATM   15  C   UNL     1      -8.108   8.709  64.251  1.00  0.00    -0.158 C  
BRANCH  15  16
HETATM   16  C   UNL     1      -6.787   9.361  64.663  1.00  0.00    -0.096 C  
BRANCH  16  17
HETATM   17  C   UNL     1      -6.989  10.436  65.700  1.00  0.00    -0.132 C  
HETATM   18  C   UNL     1      -8.189  10.563  66.301  1.00  0.00    -0.147 C  
HETATM   19  C   UNL     1      -5.796  11.278  66.043  1.00  0.00    -0.018 C  
BRANCH  18  20
HETATM   20  C   UNL     1      -8.544  11.515  67.413  1.00  0.00    -0.145 C  
BRANCH  20  21
HETATM   21  C   UNL     1      -9.139  10.785  68.600  1.00  0.00    -0.173 C  
HETATM   22  C   UNL     1      -8.418  10.182  69.570  1.00  0.00    -0.179 C  
HETATM   23  C   UNL     1      -6.916  10.087  69.615  1.00  0.00    -0.096 C  
HETATM   24  C   UNL     1      -9.089   9.554  70.747  1.00  0.00    -0.110 C  
HETATM   25  O   UNL     1      -8.442   8.969  71.605  1.00  0.00    -0.339 OA 
HETATM   26  C   UNL     1     -10.549   9.670  70.867  1.00  0.00    -0.386 A  
HETATM   27  C   UNL     1     -11.293  10.262  69.857  1.00  0.00    -0.354 A  
HETATM   28  C   UNL     1     -10.630  10.779  68.652  1.00  0.00    -0.199 C  
HETATM   29  C   UNL     1     -12.685  10.359  69.978  1.00  0.00    -0.071 A  
HETATM   30  C   UNL     1     -13.327   9.868  71.117  1.00  0.00    -0.371 A  
HETATM   31  O   UNL     1     -11.311  11.205  67.726  1.00  0.00    -0.287 OA 
HETATM   32  C   UNL     1     -12.579   9.277  72.135  1.00  0.00    -0.443 A  
HETATM   33  C   UNL     1     -11.192   9.176  72.012  1.00  0.00    -0.310 A  
ENDBRANCH  20  21
ENDBRANCH  18  20
ENDBRANCH  16  17
ENDBRANCH  15  16
ENDBRANCH  13  15
ENDBRANCH  10  11
ENDBRANCH   9  10
ENDBRANCH   5   6
ENDBRANCH   4   5
TORSDOF 9
ENDMDL
MODEL      220
REMARK 921   NORMALIZED FREE ENERGY PREDICTED BY IDOCK:   -4.34 KCAL/MOL
REMARK 922        TOTAL FREE ENERGY PREDICTED BY IDOCK:   -9.83 KCAL/MOL
REMARK 923 INTER-LIGAND FREE ENERGY PREDICTED BY IDOCK:   -7.43 KCAL/MOL
REMARK 924 INTRA-LIGAND FREE ENERGY PREDICTED BY IDOCK:   -2.40 KCAL/MOL
REMARK 927      BINDING AFFINITY PREDICTED BY RF-SCORE:    0.00 PKD
ROOT
HETATM    1  C   UNL     1     -10.265   7.994  72.537  1.00  0.00    -0.361 C  
HETATM    2  C   UNL     1     -11.329   8.299  71.485  1.00  0.00    -0.320 C  
HETATM    3  C   UNL     1     -12.443   7.249  71.553  1.00  0.00    -0.408 C  
HETATM    4  C   UNL     1     -11.851   9.736  71.677  1.00  0.00    -0.429 C  
ENDROOT
BRANCH   4   5
HETATM    5  C   UNL     1     -12.911  10.096  70.644  1.00  0.00    -0.314 C  
BRANCH   5   6
HETATM    6  C   UNL     1     -12.652  11.440  69.973  1.00  0.00    -0.125 C  
HETATM    7  C   UNL     1     -11.264  11.480  69.303  1.00  0.00    -0.336 C  
HETATM    8  C   UNL     1     -11.110  10.392  68.230  1.00  0.00    -0.338 C  
HETATM    9  C   UNL     1     -11.024  12.886  68.727  1.00  0.00    -0.292 C  
BRANCH   9  10
HETATM   10  C   UNL     1      -9.662  12.986  68.047  1.00  0.00    -0.224 C  
BRANCH  10  11
HETATM   11  C   UNL     1      -9.779  13.362  66.579  1.00  0.00    -0.284 C  
HETATM   12  C   UNL     1     -11.239  13.317  66.092  1.00  0.00    -0.317 C  
HETATM   13  C   UNL     1     -11.321  13.564  64.573  1.00  0.00    -0.386 C  
HETATM   14  C   UNL     1     -12.135  14.318  66.832  1.00  0.00    -0.440 C  
BRANCH  13  15
HETATM   15  C   UNL     1     -10.548  12.555  63.714  1.00  0.00    -0.471 C  
BRANCH  15  16
HETATM   16  C   UNL     1     -10.699  11.117  64.213  1.00  0.00    -0.403 C  
BRANCH  16  17
HETATM   17  C   UNL     1      -9.372  10.405  64.285  1.00  0.00    -0.324 C  
HETATM   18  C   UNL     1      -8.693  10.380  65.449  1.00  0.00    -0.193 C  
HETATM   19  C   UNL     1      -8.910   9.705  63.041  1.00  0.00    -0.254 C  
BRANCH  18  20
HETATM   20  C   UNL     1      -7.405   9.649  65.727  1.00  0.00    -0.100 C  
BRANCH  20  21
HETATM   21  C   UNL     1      -7.554   8.686  66.887  1.00  0.00    -0.084 C  
HETATM   22  C   UNL     1      -7.959   7.403  66.774  1.00  0.00    -0.115 C  
HETATM   23  C   UNL     1      -8.379   6.727  65.495  1.00  0.00    -0.143 C  
HETATM   24  C   UNL     1      -8.000   6.502  67.963  1.00  0.00    -0.109 C  
HETATM   25  O   UNL     1      -8.408   5.352  67.871  1.00  0.00    -0.100 OA 
HETATM   26  C   UNL     1      -7.517   7.019  69.252  1.00  0.00    -0.094 A  
HETATM   27  C   UNL     1      -7.130   8.345  69.377  1.00  0.00    -0.054 A  
HETATM   28  C   UNL     1      -7.198   9.251  68.222  1.00  0.00    -0.077 C  
HETATM   29  C   UNL     1      -6.680   8.829  70.612  1.00  0.00    -0.048 A  
HETATM   30  C   UNL     1      -6.613   7.978  71.717  1.00  0.00    -0.052 A  
HETATM   31  O   UNL     1      -6.950  10.441  68.375  1.00  0.00    -0.067 OA 
HETATM   32  C   UNL     1      -6.998   6.644  71.591  1.00  0.00    -0.075 A  
HETATM   33  C   UNL     1      -7.451   6.163  70.361  1.00  0.00    -0.090 A  
ENDBRANCH  20  21
ENDBRANCH  18  20
ENDBRANCH  16  17
ENDBRANCH  15  16
ENDBRANCH  13  15
ENDBRANCH  10  11
ENDBRANCH   9  10
ENDBRANCH   5   6
ENDBRANCH   4   5
TORSDOF 9
ENDMDL
MODEL      221
REMARK 921   NORMALIZED FREE ENERGY PREDICTED BY IDOCK:   -4.34 KCAL/MOL
REMARK 922        TOTAL FREE ENERGY PREDICTED BY IDOCK:   -9.83 KCAL/MOL
REMARK 923 INTER-LIGAND FREE ENERGY PREDICTED BY IDOCK:   -7.27 KCAL/MOL
REMARK 924 INTRA-LIGAND FREE ENERGY PREDICTED BY IDOCK:   -2.56 KCAL/MOL
REMARK 927      BINDING AFFINITY PREDICTED BY RF-SCORE:    0.00 PKD
ROOT
HETATM    1  C   UNL     1     -11.686  14.938  64.886  1.00  0.00    -0.371 C  
HETATM    2  C   UNL     1     -11.150  13.515  65.026  1.00  0.00    -0.338 C  
HETATM    3  C   UNL     1     -12.036  12.719  65.989  1.00  0.00    -0.491 C  
HETATM    4  C   UNL     1     -11.044  12.862  63.634  1.00  0.00    -0.371 C  
ENDROOT
BRANCH   4   5
HETATM    5  C   UNL     1     -10.504  11.441  63.715  1.00  0.00    -0.456 C  
BRANCH   5   6
HETATM    6  C   UNL     1      -9.185  11.351  64.476  1.00  0.00    -0.010 C  
HETATM    7  C   UNL     1      -8.864   9.898  64.879  1.00  0.00    -0.223 C  
HETATM    8  C   UNL     1      -8.755   8.972  63.659  1.00  0.00    -0.101 C  
HETATM    9  C   UNL     1      -7.576   9.883  65.722  1.00  0.00    -0.113 C  
BRANCH   9  10
HETATM   10  C   UNL     1      -7.204   8.467  66.150  1.00  0.00    -0.081 C  
BRANCH  10  11
HETATM   11  C   UNL     1      -8.135   7.928  67.224  1.00  0.00    -0.118 C  
HETATM   12  C   UNL     1      -9.288   7.103  66.620  1.00  0.00    -0.207 C  
HETATM   13  C   UNL     1     -10.294   6.683  67.709  1.00  0.00    -0.239 C  
HETATM   14  C   UNL     1      -8.790   5.864  65.865  1.00  0.00    -0.154 C  
BRANCH  13  15
HETATM   15  C   UNL     1     -10.946   7.847  68.466  1.00  0.00     0.152 C  
BRANCH  15  16
HETATM   16  C   UNL     1     -10.762   9.190  67.758  1.00  0.00    -0.243 C  
BRANCH  16  17
HETATM   17  C   UNL     1     -10.637  10.330  68.737  1.00  0.00    -0.231 C  
HETATM   18  C   UNL     1     -10.611  11.598  68.281  1.00  0.00    -0.232 C  
HETATM   19  C   UNL     1     -10.605   9.971  70.193  1.00  0.00    -0.350 C  
BRANCH  18  20
HETATM   20  C   UNL     1     -10.578  12.855  69.112  1.00  0.00     0.009 C  
BRANCH  20  21
HETATM   21  C   UNL     1      -9.643  13.889  68.517  1.00  0.00    -0.185 C  
HETATM   22  C   UNL     1      -8.347  13.667  68.211  1.00  0.00    -0.165 C  
HETATM   23  C   UNL     1      -7.598  12.383  68.452  1.00  0.00    -0.129 C  
HETATM   24  C   UNL     1      -7.522  14.722  67.554  1.00  0.00    -0.198 C  
HETATM   25  O   UNL     1      -6.335  14.540  67.315  1.00  0.00    -0.301 OA 
HETATM   26  C   UNL     1      -8.170  15.987  67.177  1.00  0.00    -0.226 A  
HETATM   27  C   UNL     1      -9.492  16.228  67.517  1.00  0.00    -0.227 A  
HETATM   28  C   UNL     1     -10.263  15.222  68.262  1.00  0.00    -0.226 C  
HETATM   29  C   UNL     1     -10.097  17.440  67.161  1.00  0.00    -0.307 A  
HETATM   30  C   UNL     1      -9.374  18.404  66.456  1.00  0.00    -0.311 A  
HETATM   31  O   UNL     1     -11.395  15.493  68.644  1.00  0.00    -0.303 OA 
HETATM   32  C   UNL     1      -8.046  18.160  66.109  1.00  0.00    -0.198 A  
HETATM   33  C   UNL     1      -7.442  16.954  66.468  1.00  0.00    -0.328 A  
ENDBRANCH  20  21
ENDBRANCH  18  20
ENDBRANCH  16  17
ENDBRANCH  15  16
ENDBRANCH  13  15
ENDBRANCH  10  11
ENDBRANCH   9  10
ENDBRANCH   5   6
ENDBRANCH   4   5
TORSDOF 9
ENDMDL
MODEL      222
REMARK 921   NORMALIZED FREE ENERGY PREDICTED BY IDOCK:   -4.34 KCAL/MOL
REMARK 922        TOTAL FREE ENERGY PREDICTED BY IDOCK:   -9.82 KCAL/MOL
REMARK 923 INTER-LIGAND FREE ENERGY PREDICTED BY IDOCK:   -8.37 KCAL/MOL
REMARK 924 INTRA-LIGAND FREE ENERGY PREDICTED BY IDOCK:   -1.44 KCAL/MOL
REMARK 927      BINDING AFFINITY PREDICTED BY RF-SCORE:    0.00 PKD
ROOT
HETATM    1  C   UNL     1      -8.537   5.091  64.206  1.00  0.00    -0.130 C  
HETATM    2  C   UNL     1      -9.024   4.585  65.561  1.00  0.00    -0.138 C  
HETATM    3  C   UNL     1      -7.894   3.830  66.269  1.00  0.00    -0.089 C  
HETATM    4  C   UNL     1      -9.566   5.764  66.392  1.00  0.00    -0.175 C  
ENDROOT
BRANCH   4   5
HETATM    5  C   UNL     1     -10.074   5.310  67.753  1.00  0.00    -0.205 C  
BRANCH   5   6
HETATM    6  C   UNL     1      -9.313   5.947  68.912  1.00  0.00    -0.139 C  
HETATM    7  C   UNL     1     -10.182   6.975  69.662  1.00  0.00    -0.212 C  
HETATM    8  C   UNL     1     -11.456   6.342  70.241  1.00  0.00    -0.428 C  
HETATM    9  C   UNL     1      -9.334   7.648  70.755  1.00  0.00    -0.162 C  
BRANCH   9  10
HETATM   10  C   UNL     1     -10.143   8.679  71.536  1.00  0.00    -0.345 C  
BRANCH  10  11
HETATM   11  C   UNL     1     -10.383   9.948  70.735  1.00  0.00    -0.198 C  
HETATM   12  C   UNL     1     -11.880  10.173  70.455  1.00  0.00    -0.408 C  
HETATM   13  C   UNL     1     -12.091  11.386  69.528  1.00  0.00    -0.370 C  
HETATM   14  C   UNL     1     -12.697  10.353  71.742  1.00  0.00    -0.525 C  
BRANCH  13  15
HETATM   15  C   UNL     1     -11.408  11.276  68.159  1.00  0.00    -0.372 C  
BRANCH  15  16
HETATM   16  C   UNL     1     -11.300  12.622  67.442  1.00  0.00    -0.367 C  
BRANCH  16  17
HETATM   17  C   UNL     1      -9.898  12.888  66.953  1.00  0.00    -0.235 C  
HETATM   18  C   UNL     1      -9.233  13.972  67.398  1.00  0.00    -0.216 C  
HETATM   19  C   UNL     1      -9.302  11.873  66.023  1.00  0.00    -0.215 C  
BRANCH  18  20
HETATM   20  C   UNL     1      -7.807  14.346  67.087  1.00  0.00    -0.111 C  
BRANCH  20  21
HETATM   21  C   UNL     1      -7.462  15.718  67.631  1.00  0.00    -0.180 C  
HETATM   22  C   UNL     1      -6.830  15.943  68.802  1.00  0.00    -0.128 C  
HETATM   23  C   UNL     1      -6.408  14.885  69.787  1.00  0.00    -0.152 C  
HETATM   24  C   UNL     1      -6.459  17.326  69.222  1.00  0.00    -0.243 C  
HETATM   25  O   UNL     1      -5.925  17.538  70.302  1.00  0.00    -0.205 OA 
HETATM   26  C   UNL     1      -6.729  18.436  68.296  1.00  0.00    -0.229 A  
HETATM   27  C   UNL     1      -7.405  18.211  67.106  1.00  0.00    -0.216 A  
HETATM   28  C   UNL     1      -7.862  16.859  66.756  1.00  0.00    -0.244 C  
HETATM   29  C   UNL     1      -7.666  19.277  66.236  1.00  0.00    -0.301 A  
HETATM   30  C   UNL     1      -7.239  20.567  66.559  1.00  0.00    -0.279 A  
HETATM   31  O   UNL     1      -8.547  16.695  65.753  1.00  0.00    -0.464 OA 
HETATM   32  C   UNL     1      -6.555  20.793  67.753  1.00  0.00    -0.385 A  
HETATM   33  C   UNL     1      -6.300  19.731  68.622  1.00  0.00    -0.307 A  
ENDBRANCH  20  21
ENDBRANCH  18  20
ENDBRANCH  16  17
ENDBRANCH  15  16
ENDBRANCH  13  15
ENDBRANCH  10  11
ENDBRANCH   9  10
ENDBRANCH   5   6
ENDBRANCH   4   5
TORSDOF 9
ENDMDL
MODEL      223
REMARK 921   NORMALIZED FREE ENERGY PREDICTED BY IDOCK:   -4.31 KCAL/MOL
REMARK 922        TOTAL FREE ENERGY PREDICTED BY IDOCK:   -9.78 KCAL/MOL
REMARK 923 INTER-LIGAND FREE ENERGY PREDICTED BY IDOCK:   -5.68 KCAL/MOL
REMARK 924 INTRA-LIGAND FREE ENERGY PREDICTED BY IDOCK:   -4.10 KCAL/MOL
REMARK 927      BINDING AFFINITY PREDICTED BY RF-SCORE:    0.00 PKD
ROOT
HETATM    1  C   UNL     1     -14.293   7.830  71.673  1.00  0.00    -0.607 C  
HETATM    2  C   UNL     1     -12.911   7.180  71.676  1.00  0.00    -0.415 C  
HETATM    3  C   UNL     1     -12.527   6.773  70.249  1.00  0.00     0.186 C  
HETATM    4  C   UNL     1     -11.889   8.136  72.320  1.00  0.00    -0.441 C  
ENDROOT
BRANCH   4   5
HETATM    5  C   UNL     1     -10.492   7.531  72.356  1.00  0.00    -0.291 C  
BRANCH   5   6
HETATM    6  C   UNL     1      -9.389   8.580  72.267  1.00  0.00    -0.363 C  
HETATM    7  C   UNL     1      -8.610   8.470  70.941  1.00  0.00    -0.184 C  
HETATM    8  C   UNL     1      -9.522   8.655  69.719  1.00  0.00    -0.166 C  
HETATM    9  C   UNL     1      -7.456   9.487  70.950  1.00  0.00    -0.043 C  
BRANCH   9  10
HETATM   10  C   UNL     1      -6.647   9.426  69.658  1.00  0.00    -0.044 C  
BRANCH  10  11
HETATM   11  C   UNL     1      -7.397  10.029  68.481  1.00  0.00    -0.077 C  
HETATM   12  C   UNL     1      -7.723  11.517  68.712  1.00  0.00    -0.124 C  
HETATM   13  C   UNL     1      -8.600  12.071  67.573  1.00  0.00    -0.167 C  
HETATM   14  C   UNL     1      -6.461  12.377  68.864  1.00  0.00    -0.090 C  
BRANCH  13  15
HETATM   15  C   UNL     1      -9.946  11.358  67.392  1.00  0.00    -0.207 C  
BRANCH  15  16
HETATM   16  C   UNL     1     -10.231  10.994  65.934  1.00  0.00    -0.309 C  
BRANCH  16  17
HETATM   17  C   UNL     1      -9.476   9.763  65.503  1.00  0.00    -0.324 C  
HETATM   18  C   UNL     1      -9.746   8.579  66.087  1.00  0.00    -0.259 C  
HETATM   19  C   UNL     1      -8.488   9.931  64.386  1.00  0.00    -0.183 C  
BRANCH  18  20
HETATM   20  C   UNL     1      -9.157   7.240  65.726  1.00  0.00     0.005 C  
BRANCH  20  21
HETATM   21  C   UNL     1      -8.575   6.544  66.940  1.00  0.00    -0.114 C  
HETATM   22  C   UNL     1      -7.278   6.601  67.310  1.00  0.00    -0.085 C  
HETATM   23  C   UNL     1      -6.184   7.316  66.560  1.00  0.00    -0.040 C  
HETATM   24  C   UNL     1      -6.808   5.949  68.567  1.00  0.00    -0.070 C  
HETATM   25  O   UNL     1      -5.625   5.962  68.882  1.00  0.00    -0.010 OA 
HETATM   26  C   UNL     1      -7.802   5.304  69.437  1.00  0.00    -0.088 A  
HETATM   27  C   UNL     1      -9.129   5.218  69.044  1.00  0.00    -0.141 A  
HETATM   28  C   UNL     1      -9.559   5.769  67.752  1.00  0.00    -0.115 C  
HETATM   29  C   UNL     1     -10.067   4.593  69.877  1.00  0.00    -0.257 A  
HETATM   30  C   UNL     1      -9.670   4.063  71.106  1.00  0.00    -0.257 A  
HETATM   31  O   UNL     1     -10.712   5.594  67.375  1.00  0.00    -0.248 OA 
HETATM   32  C   UNL     1      -8.337   4.154  71.504  1.00  0.00    -0.095 A  
HETATM   33  C   UNL     1      -7.402   4.772  70.672  1.00  0.00    -0.056 A  
ENDBRANCH  20  21
ENDBRANCH  18  20
ENDBRANCH  16  17
ENDBRANCH  15  16
ENDBRANCH  13  15
ENDBRANCH  10  11
ENDBRANCH   9  10
ENDBRANCH   5   6
ENDBRANCH   4   5
TORSDOF 9
ENDMDL
MODEL      224
REMARK 921   NORMALIZED FREE ENERGY PREDICTED BY IDOCK:   -4.30 KCAL/MOL
REMARK 922        TOTAL FREE ENERGY PREDICTED BY IDOCK:   -9.77 KCAL/MOL
REMARK 923 INTER-LIGAND FREE ENERGY PREDICTED BY IDOCK:   -8.86 KCAL/MOL
REMARK 924 INTRA-LIGAND FREE ENERGY PREDICTED BY IDOCK:   -0.91 KCAL/MOL
REMARK 927      BINDING AFFINITY PREDICTED BY RF-SCORE:    0.00 PKD
ROOT
HETATM    1  C   UNL     1     -10.703   3.011  62.461  1.00  0.00    -0.170 C  
HETATM    2  C   UNL     1      -9.893   2.317  63.554  1.00  0.00    -0.127 C  
HETATM    3  C   UNL     1      -8.509   1.941  63.014  1.00  0.00    -0.073 C  
HETATM    4  C   UNL     1      -9.822   3.221  64.799  1.00  0.00    -0.093 C  
ENDROOT
BRANCH   4   5
HETATM    5  C   UNL     1      -9.031   2.571  65.926  1.00  0.00    -0.122 C  
BRANCH   5   6
HETATM    6  C   UNL     1      -8.055   3.532  66.597  1.00  0.00    -0.092 C  
HETATM    7  C   UNL     1      -8.684   4.924  66.800  1.00  0.00    -0.107 C  
HETATM    8  C   UNL     1      -9.947   4.866  67.672  1.00  0.00    -0.192 C  
HETATM    9  C   UNL     1      -7.626   5.872  67.392  1.00  0.00    -0.096 C  
BRANCH   9  10
HETATM   10  C   UNL     1      -8.192   7.271  67.618  1.00  0.00    -0.114 C  
BRANCH  10  11
HETATM   11  C   UNL     1      -8.586   7.949  66.316  1.00  0.00    -0.160 C  
HETATM   12  C   UNL     1      -7.748   9.215  66.054  1.00  0.00    -0.095 C  
HETATM   13  C   UNL     1      -8.254   9.962  64.805  1.00  0.00    -0.151 C  
HETATM   14  C   UNL     1      -6.252   8.908  65.907  1.00  0.00    -0.056 C  
BRANCH  13  15
HETATM   15  C   UNL     1      -9.716  10.420  64.878  1.00  0.00    -0.372 C  
BRANCH  15  16
HETATM   16  C   UNL     1     -10.158  11.187  63.631  1.00  0.00    -0.432 C  
BRANCH  16  17
HETATM   17  C   UNL     1     -11.149  12.275  63.960  1.00  0.00    -0.446 C  
HETATM   18  C   UNL     1     -10.759  13.323  64.712  1.00  0.00    -0.393 C  
HETATM   19  C   UNL     1     -12.521  12.143  63.369  1.00  0.00    -0.625 C  
BRANCH  18  20
HETATM   20  C   UNL     1     -11.581  14.535  65.065  1.00  0.00    -0.382 C  
BRANCH  20  21
HETATM   21  C   UNL     1     -11.369  14.948  66.508  1.00  0.00    -0.319 C  
HETATM   22  C   UNL     1     -10.814  16.114  66.900  1.00  0.00    -0.175 C  
HETATM   23  C   UNL     1     -10.266  17.175  65.982  1.00  0.00    -0.332 C  
HETATM   24  C   UNL     1     -10.717  16.472  68.346  1.00  0.00    -0.339 C  
HETATM   25  O   UNL     1     -10.175  17.508  68.706  1.00  0.00    -0.344 OA 
HETATM   26  C   UNL     1     -11.309  15.560  69.336  1.00  0.00    -0.321 A  
HETATM   27  C   UNL     1     -11.852  14.347  68.937  1.00  0.00    -0.355 A  
HETATM   28  C   UNL     1     -11.843  13.958  67.521  1.00  0.00    -0.396 C  
HETATM   29  C   UNL     1     -12.405  13.482  69.890  1.00  0.00    -0.287 A  
HETATM   30  C   UNL     1     -12.418  13.839  71.240  1.00  0.00    -0.428 A  
HETATM   31  O   UNL     1     -12.233  12.842  67.200  1.00  0.00    -0.404 OA 
HETATM   32  C   UNL     1     -11.876  15.060  71.640  1.00  0.00    -0.441 A  
HETATM   33  C   UNL     1     -11.321  15.920  70.691  1.00  0.00    -0.421 A  
ENDBRANCH  20  21
ENDBRANCH  18  20
ENDBRANCH  16  17
ENDBRANCH  15  16
ENDBRANCH  13  15
ENDBRANCH  10  11
ENDBRANCH   9  10
ENDBRANCH   5   6
ENDBRANCH   4   5
TORSDOF 9
ENDMDL
MODEL      225
REMARK 921   NORMALIZED FREE ENERGY PREDICTED BY IDOCK:   -4.30 KCAL/MOL
REMARK 922        TOTAL FREE ENERGY PREDICTED BY IDOCK:   -9.76 KCAL/MOL
REMARK 923 INTER-LIGAND FREE ENERGY PREDICTED BY IDOCK:   -8.13 KCAL/MOL
REMARK 924 INTRA-LIGAND FREE ENERGY PREDICTED BY IDOCK:   -1.63 KCAL/MOL
REMARK 927      BINDING AFFINITY PREDICTED BY RF-SCORE:    0.00 PKD
ROOT
HETATM    1  C   UNL     1     -10.004   2.903  74.531  1.00  0.00    -0.173 C  
HETATM    2  C   UNL     1      -9.166   3.106  73.272  1.00  0.00    -0.103 C  
HETATM    3  C   UNL     1      -8.111   2.000  73.167  1.00  0.00    -0.046 C  
HETATM    4  C   UNL     1     -10.088   3.170  72.039  1.00  0.00    -0.178 C  
ENDROOT
BRANCH   4   5
HETATM    5  C   UNL     1      -9.301   3.382  70.753  1.00  0.00    -0.225 C  
BRANCH   5   6
HETATM    6  C   UNL     1      -8.708   4.783  70.645  1.00  0.00    -0.134 C  
HETATM    7  C   UNL     1      -9.460   5.636  69.605  1.00  0.00    -0.180 C  
HETATM    8  C   UNL     1     -10.948   5.791  69.953  1.00  0.00    -0.389 C  
HETATM    9  C   UNL     1      -8.761   7.000  69.473  1.00  0.00    -0.134 C  
BRANCH   9  10
HETATM   10  C   UNL     1      -9.464   7.893  68.455  1.00  0.00    -0.148 C  
BRANCH  10  11
HETATM   11  C   UNL     1      -8.482   8.594  67.530  1.00  0.00    -0.124 C  
HETATM   12  C   UNL     1      -8.702  10.119  67.514  1.00  0.00    -0.125 C  
HETATM   13  C   UNL     1      -7.792  10.795  66.469  1.00  0.00    -0.145 C  
HETATM   14  C   UNL     1      -8.479  10.758  68.890  1.00  0.00    -0.149 C  
BRANCH  13  15
HETATM   15  C   UNL     1      -7.999  10.313  65.028  1.00  0.00    -0.144 C  
BRANCH  15  16
HETATM   16  C   UNL     1      -9.447   9.913  64.741  1.00  0.00    -0.356 C  
BRANCH  16  17
HETATM   17  C   UNL     1     -10.330  11.115  64.517  1.00  0.00    -0.400 C  
HETATM   18  C   UNL     1     -11.266  11.433  65.433  1.00  0.00    -0.140 C  
HETATM   19  C   UNL     1     -10.064  11.930  63.286  1.00  0.00    -0.427 C  
BRANCH  18  20
HETATM   20  C   UNL     1     -12.170  12.638  65.418  1.00  0.00    -0.517 C  
BRANCH  20  21
HETATM   21  C   UNL     1     -11.662  13.725  66.344  1.00  0.00    -0.404 C  
HETATM   22  C   UNL     1     -11.514  13.589  67.679  1.00  0.00    -0.351 C  
HETATM   23  C   UNL     1     -11.873  12.366  68.480  1.00  0.00    -0.352 C  
HETATM   24  C   UNL     1     -10.930  14.689  68.503  1.00  0.00    -0.252 C  
HETATM   25  O   UNL     1     -10.836  14.586  69.718  1.00  0.00    -0.202 OA 
HETATM   26  C   UNL     1     -10.448  15.898  67.819  1.00  0.00    -0.287 A  
HETATM   27  C   UNL     1     -10.627  16.051  66.452  1.00  0.00    -0.284 A  
HETATM   28  C   UNL     1     -11.302  15.007  65.669  1.00  0.00    -0.297 C  
HETATM   29  C   UNL     1     -10.172  17.211  65.812  1.00  0.00    -0.234 A  
HETATM   30  C   UNL     1      -9.531  18.212  66.546  1.00  0.00    -0.307 A  
HETATM   31  O   UNL     1     -11.543  15.203  64.484  1.00  0.00    -0.392 OA 
HETATM   32  C   UNL     1      -9.347  18.056  67.919  1.00  0.00    -0.264 A  
HETATM   33  C   UNL     1      -9.805  16.902  68.557  1.00  0.00    -0.267 A  
ENDBRANCH  20  21
ENDBRANCH  18  20
ENDBRANCH  16  17
ENDBRANCH  15  16
ENDBRANCH  13  15
ENDBRANCH  10  11
ENDBRANCH   9  10
ENDBRANCH   5   6
ENDBRANCH   4   5
TORSDOF 9
ENDMDL
MODEL      226
REMARK 921   NORMALIZED FREE ENERGY PREDICTED BY IDOCK:   -4.29 KCAL/MOL
REMARK 922        TOTAL FREE ENERGY PREDICTED BY IDOCK:   -9.75 KCAL/MOL
REMARK 923 INTER-LIGAND FREE ENERGY PREDICTED BY IDOCK:   -8.18 KCAL/MOL
REMARK 924 INTRA-LIGAND FREE ENERGY PREDICTED BY IDOCK:   -1.58 KCAL/MOL
REMARK 927      BINDING AFFINITY PREDICTED BY RF-SCORE:    0.00 PKD
ROOT
HETATM    1  C   UNL     1      -8.957  19.764  66.382  1.00  0.00    -0.440 C  
HETATM    2  C   UNL     1      -9.116  18.288  66.740  1.00  0.00    -0.287 C  
HETATM    3  C   UNL     1      -9.111  18.120  68.263  1.00  0.00    -0.309 C  
HETATM    4  C   UNL     1     -10.393  17.729  66.083  1.00  0.00    -0.340 C  
ENDROOT
BRANCH   4   5
HETATM    5  C   UNL     1     -10.595  16.254  66.401  1.00  0.00    -0.253 C  
BRANCH   5   6
HETATM    6  C   UNL     1     -10.362  15.350  65.195  1.00  0.00    -0.405 C  
HETATM    7  C   UNL     1     -11.058  13.986  65.368  1.00  0.00    -0.318 C  
HETATM    8  C   UNL     1     -12.577  14.133  65.548  1.00  0.00    -0.501 C  
HETATM    9  C   UNL     1     -10.711  13.088  64.169  1.00  0.00    -0.429 C  
BRANCH   9  10
HETATM   10  C   UNL     1     -11.376  11.720  64.283  1.00  0.00    -0.400 C  
BRANCH  10  11
HETATM   11  C   UNL     1     -10.378  10.620  64.607  1.00  0.00    -0.353 C  
HETATM   12  C   UNL     1      -9.860  10.727  66.054  1.00  0.00    -0.285 C  
HETATM   13  C   UNL     1      -8.750   9.692  66.319  1.00  0.00    -0.156 C  
HETATM   14  C   UNL     1     -10.979  10.569  67.091  1.00  0.00    -0.294 C  
BRANCH  13  15
HETATM   15  C   UNL     1      -7.520   9.819  65.410  1.00  0.00    -0.121 C  
BRANCH  15  16
HETATM   16  C   UNL     1      -6.234   9.340  66.085  1.00  0.00    -0.064 C  
BRANCH  16  17
HETATM   17  C   UNL     1      -6.433   8.034  66.813  1.00  0.00    -0.056 C  
HETATM   18  C   UNL     1      -6.454   8.021  68.160  1.00  0.00    -0.055 C  
HETATM   19  C   UNL     1      -6.655   6.815  65.968  1.00  0.00    -0.051 C  
BRANCH  18  20
HETATM   20  C   UNL     1      -6.726   6.833  69.046  1.00  0.00    -0.059 C  
BRANCH  20  21
HETATM   21  C   UNL     1      -7.777   7.149  70.091  1.00  0.00    -0.095 C  
HETATM   22  C   UNL     1      -7.544   7.830  71.234  1.00  0.00    -0.080 C  
HETATM   23  C   UNL     1      -6.204   8.344  71.689  1.00  0.00    -0.052 C  
HETATM   24  C   UNL     1      -8.658   8.165  72.169  1.00  0.00    -0.168 C  
HETATM   25  O   UNL     1      -8.444   8.744  73.226  1.00  0.00    -0.366 OA 
HETATM   26  C   UNL     1     -10.030   7.804  71.784  1.00  0.00    -0.219 A  
HETATM   27  C   UNL     1     -10.268   7.078  70.626  1.00  0.00    -0.205 A  
HETATM   28  C   UNL     1      -9.150   6.659  69.770  1.00  0.00    -0.143 C  
HETATM   29  C   UNL     1     -11.578   6.730  70.274  1.00  0.00    -0.417 A  
HETATM   30  C   UNL     1     -12.649   7.120  71.082  1.00  0.00    -0.384 A  
HETATM   31  O   UNL     1      -9.367   5.932  68.807  1.00  0.00    -0.121 OA 
HETATM   32  C   UNL     1     -12.411   7.854  72.243  1.00  0.00    -0.299 A  
HETATM   33  C   UNL     1     -11.104   8.196  72.597  1.00  0.00    -0.450 A  
ENDBRANCH  20  21
ENDBRANCH  18  20
ENDBRANCH  16  17
ENDBRANCH  15  16
ENDBRANCH  13  15
ENDBRANCH  10  11
ENDBRANCH   9  10
ENDBRANCH   5   6
ENDBRANCH   4   5
TORSDOF 9
ENDMDL
MODEL      227
REMARK 921   NORMALIZED FREE ENERGY PREDICTED BY IDOCK:   -4.27 KCAL/MOL
REMARK 922        TOTAL FREE ENERGY PREDICTED BY IDOCK:   -9.72 KCAL/MOL
REMARK 923 INTER-LIGAND FREE ENERGY PREDICTED BY IDOCK:   -7.26 KCAL/MOL
REMARK 924 INTRA-LIGAND FREE ENERGY PREDICTED BY IDOCK:   -2.47 KCAL/MOL
REMARK 927      BINDING AFFINITY PREDICTED BY RF-SCORE:    0.00 PKD
ROOT
HETATM    1  C   UNL     1     -10.719  14.224  69.190  1.00  0.00    -0.239 C  
HETATM    2  C   UNL     1     -11.389  14.755  67.925  1.00  0.00    -0.331 C  
HETATM    3  C   UNL     1     -10.411  15.648  67.155  1.00  0.00    -0.303 C  
HETATM    4  C   UNL     1     -11.911  13.575  67.082  1.00  0.00    -0.426 C  
ENDROOT
BRANCH   4   5
HETATM    5  C   UNL     1     -12.599  14.050  65.809  1.00  0.00    -0.512 C  
BRANCH   5   6
HETATM    6  C   UNL     1     -11.730  13.882  64.567  1.00  0.00    -0.430 C  
HETATM    7  C   UNL     1     -11.232  12.431  64.418  1.00  0.00    -0.384 C  
HETATM    8  C   UNL     1     -12.393  11.431  64.307  1.00  0.00     0.423 C  
HETATM    9  C   UNL     1     -10.289  12.344  63.206  1.00  0.00    -0.158 C  
BRANCH   9  10
HETATM   10  C   UNL     1      -9.764  10.927  63.006  1.00  0.00    -0.380 C  
BRANCH  10  11
HETATM   11  C   UNL     1      -8.257  10.840  63.188  1.00  0.00    -0.017 C  
HETATM   12  C   UNL     1      -7.851   9.607  64.017  1.00  0.00    -0.137 C  
HETATM   13  C   UNL     1      -6.337   9.612  64.307  1.00  0.00    -0.105 C  
HETATM   14  C   UNL     1      -8.247   8.289  63.339  1.00  0.00    -0.088 C  
BRANCH  13  15
HETATM   15  C   UNL     1      -5.835  10.837  65.082  1.00  0.00    -0.030 C  
BRANCH  15  16
HETATM   16  C   UNL     1      -6.196  10.785  66.567  1.00  0.00    -0.107 C  
BRANCH  16  17
HETATM   17  C   UNL     1      -7.666  11.031  66.798  1.00  0.00    -0.146 C  
HETATM   18  C   UNL     1      -8.488   9.986  67.019  1.00  0.00    -0.125 C  
HETATM   19  C   UNL     1      -8.118  12.461  66.821  1.00  0.00     0.009 C  
BRANCH  18  20
HETATM   20  C   UNL     1      -9.956  10.049  67.351  1.00  0.00    -0.242 C  
BRANCH  20  21
HETATM   21  C   UNL     1     -10.359   8.934  68.296  1.00  0.00    -0.250 C  
HETATM   22  C   UNL     1     -10.441   7.630  67.955  1.00  0.00    -0.270 C  
HETATM   23  C   UNL     1     -10.199   7.068  66.579  1.00  0.00    -0.127 C  
HETATM   24  C   UNL     1     -10.769   6.589  68.973  1.00  0.00    -0.278 C  
HETATM   25  O   UNL     1     -10.887   5.412  68.658  1.00  0.00    -0.123 OA 
HETATM   26  C   UNL     1     -10.928   7.003  70.374  1.00  0.00    -0.301 A  
HETATM   27  C   UNL     1     -10.874   8.345  70.721  1.00  0.00    -0.255 A  
HETATM   28  C   UNL     1     -10.659   9.370  69.691  1.00  0.00    -0.225 C  
HETATM   29  C   UNL     1     -11.037   8.729  72.058  1.00  0.00    -0.441 A  
HETATM   30  C   UNL     1     -11.245   7.764  73.046  1.00  0.00    -0.380 A  
HETATM   31  O   UNL     1     -10.717  10.555  70.000  1.00  0.00    -0.276 OA 
HETATM   32  C   UNL     1     -11.294   6.414  72.698  1.00  0.00    -0.266 A  
HETATM   33  C   UNL     1     -11.137   6.032  71.364  1.00  0.00    -0.336 A  
ENDBRANCH  20  21
ENDBRANCH  18  20
ENDBRANCH  16  17
ENDBRANCH  15  16
ENDBRANCH  13  15
ENDBRANCH  10  11
ENDBRANCH   9  10
ENDBRANCH   5   6
ENDBRANCH   4   5
TORSDOF 9
ENDMDL
MODEL      228
REMARK 921   NORMALIZED FREE ENERGY PREDICTED BY IDOCK:   -4.27 KCAL/MOL
REMARK 922        TOTAL FREE ENERGY PREDICTED BY IDOCK:   -9.71 KCAL/MOL
REMARK 923 INTER-LIGAND FREE ENERGY PREDICTED BY IDOCK:   -7.97 KCAL/MOL
REMARK 924 INTRA-LIGAND FREE ENERGY PREDICTED BY IDOCK:   -1.74 KCAL/MOL
REMARK 927      BINDING AFFINITY PREDICTED BY RF-SCORE:    0.00 PKD
ROOT
HETATM    1  C   UNL     1     -10.193   3.924  63.404  1.00  0.00    -0.182 C  
HETATM    2  C   UNL     1      -9.942   3.510  64.852  1.00  0.00    -0.096 C  
HETATM    3  C   UNL     1      -8.519   2.959  64.994  1.00  0.00    -0.098 C  
HETATM    4  C   UNL     1     -10.217   4.702  65.788  1.00  0.00    -0.283 C  
ENDROOT
BRANCH   4   5
HETATM    5  C   UNL     1      -9.989   4.339  67.249  1.00  0.00    -0.136 C  
BRANCH   5   6
HETATM    6  C   UNL     1      -8.925   5.205  67.916  1.00  0.00    -0.115 C  
HETATM    7  C   UNL     1      -9.546   6.178  68.936  1.00  0.00    -0.144 C  
HETATM    8  C   UNL     1     -10.304   5.440  70.050  1.00  0.00    -0.366 C  
HETATM    9  C   UNL     1      -8.440   7.085  69.504  1.00  0.00    -0.134 C  
BRANCH   9  10
HETATM   10  C   UNL     1      -8.996   8.072  70.525  1.00  0.00    -0.152 C  
BRANCH  10  11
HETATM   11  C   UNL     1      -9.533   9.335  69.872  1.00  0.00    -0.214 C  
HETATM   12  C   UNL     1     -11.061   9.453  70.025  1.00  0.00    -0.248 C  
HETATM   13  C   UNL     1     -11.601  10.664  69.240  1.00  0.00    -0.346 C  
HETATM   14  C   UNL     1     -11.497   9.548  71.493  1.00  0.00    -0.466 C  
BRANCH  13  15
HETATM   15  C   UNL     1     -11.320  10.630  67.732  1.00  0.00    -0.320 C  
BRANCH  15  16
HETATM   16  C   UNL     1     -11.295  12.024  67.104  1.00  0.00    -0.396 C  
BRANCH  16  17
HETATM   17  C   UNL     1     -10.028  12.770  67.439  1.00  0.00    -0.212 C  
HETATM   18  C   UNL     1     -10.087  13.854  68.238  1.00  0.00    -0.241 C  
HETATM   19  C   UNL     1      -8.748  12.210  66.894  1.00  0.00    -0.194 C  
BRANCH  18  20
HETATM   20  C   UNL     1      -8.922  14.664  68.746  1.00  0.00    -0.173 C  
BRANCH  20  21
HETATM   21  C   UNL     1      -8.898  16.048  68.127  1.00  0.00    -0.178 C  
HETATM   22  C   UNL     1      -9.748  17.047  68.447  1.00  0.00    -0.279 C  
HETATM   23  C   UNL     1     -10.890  16.946  69.424  1.00  0.00    -0.186 C  
HETATM   24  C   UNL     1      -9.600  18.404  67.843  1.00  0.00    -0.293 C  
HETATM   25  O   UNL     1     -10.395  19.299  68.097  1.00  0.00    -0.396 OA 
HETATM   26  C   UNL     1      -8.460  18.654  66.949  1.00  0.00    -0.277 A  
HETATM   27  C   UNL     1      -7.604  17.621  66.597  1.00  0.00    -0.273 A  
HETATM   28  C   UNL     1      -7.826  16.263  67.112  1.00  0.00    -0.191 C  
HETATM   29  C   UNL     1      -6.526  17.868  65.736  1.00  0.00    -0.263 A  
HETATM   30  C   UNL     1      -6.307  19.154  65.238  1.00  0.00    -0.315 A  
HETATM   31  O   UNL     1      -7.122  15.344  66.709  1.00  0.00    -0.140 OA 
HETATM   32  C   UNL     1      -7.165  20.193  65.596  1.00  0.00    -0.303 A  
HETATM   33  C   UNL     1      -8.241  19.946  66.449  1.00  0.00    -0.365 A  
ENDBRANCH  20  21
ENDBRANCH  18  20
ENDBRANCH  16  17
ENDBRANCH  15  16
ENDBRANCH  13  15
ENDBRANCH  10  11
ENDBRANCH   9  10
ENDBRANCH   5   6
ENDBRANCH   4   5
TORSDOF 9
ENDMDL
MODEL      229
REMARK 921   NORMALIZED FREE ENERGY PREDICTED BY IDOCK:   -4.26 KCAL/MOL
REMARK 922        TOTAL FREE ENERGY PREDICTED BY IDOCK:   -9.70 KCAL/MOL
REMARK 923 INTER-LIGAND FREE ENERGY PREDICTED BY IDOCK:   -7.36 KCAL/MOL
REMARK 924 INTRA-LIGAND FREE ENERGY PREDICTED BY IDOCK:   -2.34 KCAL/MOL
REMARK 927      BINDING AFFINITY PREDICTED BY RF-SCORE:    0.00 PKD
ROOT
HETATM    1  C   UNL     1     -14.119   9.034  72.355  1.00  0.00    -0.478 C  
HETATM    2  C   UNL     1     -12.858   9.226  71.515  1.00  0.00    -0.427 C  
HETATM    3  C   UNL     1     -12.640  10.717  71.239  1.00  0.00    -0.532 C  
HETATM    4  C   UNL     1     -11.658   8.568  72.223  1.00  0.00    -0.444 C  
ENDROOT
BRANCH   4   5
HETATM    5  C   UNL     1     -10.373   8.723  71.420  1.00  0.00    -0.348 C  
BRANCH   5   6
HETATM    6  C   UNL     1     -10.599   8.621  69.915  1.00  0.00    -0.227 C  
HETATM    7  C   UNL     1     -10.011   7.317  69.342  1.00  0.00    -0.170 C  
HETATM    8  C   UNL     1     -10.636   6.070  69.987  1.00  0.00    -0.340 C  
HETATM    9  C   UNL     1     -10.185   7.315  67.814  1.00  0.00    -0.247 C  
BRANCH   9  10
HETATM   10  C   UNL     1      -9.622   6.043  67.188  1.00  0.00    -0.134 C  
BRANCH  10  11
HETATM   11  C   UNL     1      -9.052   6.289  65.800  1.00  0.00    -0.039 C  
HETATM   12  C   UNL     1      -7.669   6.963  65.861  1.00  0.00    -0.098 C  
HETATM   13  C   UNL     1      -7.171   7.328  64.448  1.00  0.00    -0.074 C  
HETATM   14  C   UNL     1      -6.624   6.093  66.572  1.00  0.00    -0.055 C  
BRANCH  13  15
HETATM   15  C   UNL     1      -8.084   8.286  63.673  1.00  0.00    -0.126 C  
BRANCH  15  16
HETATM   16  C   UNL     1      -7.654   9.748  63.803  1.00  0.00    -0.131 C  
BRANCH  16  17
HETATM   17  C   UNL     1      -7.520  10.168  65.245  1.00  0.00    -0.145 C  
HETATM   18  C   UNL     1      -8.625  10.472  65.955  1.00  0.00    -0.170 C  
HETATM   19  C   UNL     1      -6.137  10.166  65.825  1.00  0.00    -0.098 C  
BRANCH  18  20
HETATM   20  C   UNL     1      -8.688  10.825  67.418  1.00  0.00    -0.126 C  
BRANCH  20  21
HETATM   21  C   UNL     1      -9.286  12.201  67.631  1.00  0.00    -0.187 C  
HETATM   22  C   UNL     1     -10.595  12.444  67.856  1.00  0.00    -0.231 C  
HETATM   23  C   UNL     1     -11.686  11.406  67.881  1.00  0.00    -0.300 C  
HETATM   24  C   UNL     1     -11.084  13.826  68.135  1.00  0.00    -0.259 C  
HETATM   25  O   UNL     1     -12.275  14.056  68.295  1.00  0.00    -0.328 OA 
HETATM   26  C   UNL     1     -10.097  14.912  68.235  1.00  0.00    -0.221 A  
HETATM   27  C   UNL     1      -8.757  14.670  67.976  1.00  0.00    -0.167 A  
HETATM   28  C   UNL     1      -8.305  13.325  67.594  1.00  0.00    -0.181 C  
HETATM   29  C   UNL     1      -7.827  15.714  68.065  1.00  0.00    -0.135 A  
HETATM   30  C   UNL     1      -8.245  16.997  68.424  1.00  0.00    -0.250 A  
HETATM   31  O   UNL     1      -7.136  13.152  67.269  1.00  0.00    -0.135 OA 
HETATM   32  C   UNL     1      -9.592  17.239  68.690  1.00  0.00    -0.284 A  
HETATM   33  C   UNL     1     -10.519  16.200  68.596  1.00  0.00    -0.269 A  
ENDBRANCH  20  21
ENDBRANCH  18  20
ENDBRANCH  16  17
ENDBRANCH  15  16
ENDBRANCH  13  15
ENDBRANCH  10  11
ENDBRANCH   9  10
ENDBRANCH   5   6
ENDBRANCH   4   5
TORSDOF 9
ENDMDL
MODEL      230
REMARK 921   NORMALIZED FREE ENERGY PREDICTED BY IDOCK:   -4.26 KCAL/MOL
REMARK 922        TOTAL FREE ENERGY PREDICTED BY IDOCK:   -9.70 KCAL/MOL
REMARK 923 INTER-LIGAND FREE ENERGY PREDICTED BY IDOCK:   -6.87 KCAL/MOL
REMARK 924 INTRA-LIGAND FREE ENERGY PREDICTED BY IDOCK:   -2.83 KCAL/MOL
REMARK 927      BINDING AFFINITY PREDICTED BY RF-SCORE:    0.00 PKD
ROOT
HETATM    1  C   UNL     1     -12.466  15.357  70.886  1.00  0.00    -0.474 C  
HETATM    2  C   UNL     1     -12.872  14.054  71.570  1.00  0.00    -0.440 C  
HETATM    3  C   UNL     1     -14.333  14.140  72.023  1.00  0.00    -0.599 C  
HETATM    4  C   UNL     1     -12.610  12.868  70.622  1.00  0.00    -0.256 C  
ENDROOT
BRANCH   4   5
HETATM    5  C   UNL     1     -12.990  11.539  71.261  1.00  0.00    -0.397 C  
BRANCH   5   6
HETATM    6  C   UNL     1     -11.900  10.481  71.122  1.00  0.00    -0.391 C  
HETATM    7  C   UNL     1     -12.160   9.277  72.049  1.00  0.00    -0.406 C  
HETATM    8  C   UNL     1     -13.504   8.596  71.748  1.00  0.00    -0.418 C  
HETATM    9  C   UNL     1     -10.984   8.292  71.936  1.00  0.00    -0.354 C  
BRANCH   9  10
HETATM   10  C   UNL     1     -11.186   7.074  72.832  1.00  0.00    -0.273 C  
BRANCH  10  11
HETATM   11  C   UNL     1     -10.226   5.945  72.493  1.00  0.00    -0.214 C  
HETATM   12  C   UNL     1     -10.329   4.785  73.501  1.00  0.00    -0.245 C  
HETATM   13  C   UNL     1      -9.255   3.716  73.221  1.00  0.00    -0.115 C  
HETATM   14  C   UNL     1     -11.719   4.137  73.509  1.00  0.00    -0.058 C  
BRANCH  13  15
HETATM   15  C   UNL     1      -7.809   4.222  73.293  1.00  0.00    -0.086 C  
BRANCH  15  16
HETATM   16  C   UNL     1      -6.813   3.263  72.639  1.00  0.00    -0.027 C  
BRANCH  16  17
HETATM   17  C   UNL     1      -6.845   3.358  71.135  1.00  0.00    -0.032 C  
HETATM   18  C   UNL     1      -6.710   4.561  70.542  1.00  0.00    -0.036 C  
HETATM   19  C   UNL     1      -6.972   2.070  70.378  1.00  0.00    -0.033 C  
BRANCH  18  20
HETATM   20  C   UNL     1      -6.632   4.833  69.062  1.00  0.00    -0.045 C  
BRANCH  20  21
HETATM   21  C   UNL     1      -7.745   5.755  68.607  1.00  0.00    -0.090 C  
HETATM   22  C   UNL     1      -8.950   5.341  68.159  1.00  0.00    -0.115 C  
HETATM   23  C   UNL     1      -9.374   3.907  67.985  1.00  0.00    -0.226 C  
HETATM   24  C   UNL     1     -10.017   6.324  67.807  1.00  0.00    -0.127 C  
HETATM   25  O   UNL     1     -11.094   5.954  67.359  1.00  0.00    -0.247 OA 
HETATM   26  C   UNL     1      -9.756   7.753  68.030  1.00  0.00    -0.176 A  
HETATM   27  C   UNL     1      -8.510   8.181  68.461  1.00  0.00    -0.127 A  
HETATM   28  C   UNL     1      -7.432   7.211  68.700  1.00  0.00    -0.102 C  
HETATM   29  C   UNL     1      -8.269   9.547  68.662  1.00  0.00    -0.112 A  
HETATM   30  C   UNL     1      -9.284  10.479  68.436  1.00  0.00    -0.154 A  
HETATM   31  O   UNL     1      -6.310   7.614  68.981  1.00  0.00    -0.034 OA 
HETATM   32  C   UNL     1     -10.539  10.048  68.007  1.00  0.00    -0.280 A  
HETATM   33  C   UNL     1     -10.777   8.688  67.802  1.00  0.00    -0.178 A  
ENDBRANCH  20  21
ENDBRANCH  18  20
ENDBRANCH  16  17
ENDBRANCH  15  16
ENDBRANCH  13  15
ENDBRANCH  10  11
ENDBRANCH   9  10
ENDBRANCH   5   6
ENDBRANCH   4   5
TORSDOF 9
ENDMDL
MODEL      231
REMARK 921   NORMALIZED FREE ENERGY PREDICTED BY IDOCK:   -4.26 KCAL/MOL
REMARK 922        TOTAL FREE ENERGY PREDICTED BY IDOCK:   -9.70 KCAL/MOL
REMARK 923 INTER-LIGAND FREE ENERGY PREDICTED BY IDOCK:   -8.40 KCAL/MOL
REMARK 924 INTRA-LIGAND FREE ENERGY PREDICTED BY IDOCK:   -1.30 KCAL/MOL
REMARK 927      BINDING AFFINITY PREDICTED BY RF-SCORE:    0.00 PKD
ROOT
HETATM    1  C   UNL     1     -11.772   9.408  71.221  1.00  0.00    -0.432 C  
HETATM    2  C   UNL     1     -11.907   8.344  72.307  1.00  0.00    -0.456 C  
HETATM    3  C   UNL     1     -12.814   7.211  71.814  1.00  0.00    -0.368 C  
HETATM    4  C   UNL     1     -10.509   7.850  72.726  1.00  0.00    -0.412 C  
ENDROOT
BRANCH   4   5
HETATM    5  C   UNL     1     -10.586   6.790  73.816  1.00  0.00    -0.323 C  
BRANCH   5   6
HETATM    6  C   UNL     1     -10.471   5.370  73.272  1.00  0.00    -0.260 C  
HETATM    7  C   UNL     1      -9.399   5.272  72.169  1.00  0.00    -0.159 C  
HETATM    8  C   UNL     1      -8.009   5.686  72.677  1.00  0.00    -0.102 C  
HETATM    9  C   UNL     1      -9.394   3.845  71.597  1.00  0.00    -0.202 C  
BRANCH   9  10
HETATM   10  C   UNL     1      -8.349   3.685  70.498  1.00  0.00    -0.082 C  
BRANCH  10  11
HETATM   11  C   UNL     1      -8.925   3.941  69.114  1.00  0.00    -0.172 C  
HETATM   12  C   UNL     1      -8.732   2.731  68.182  1.00  0.00    -0.134 C  
HETATM   13  C   UNL     1      -9.196   3.059  66.750  1.00  0.00    -0.164 C  
HETATM   14  C   UNL     1      -9.457   1.478  68.690  1.00  0.00    -0.222 C  
BRANCH  13  15
HETATM   15  C   UNL     1      -8.463   4.234  66.089  1.00  0.00    -0.112 C  
BRANCH  15  16
HETATM   16  C   UNL     1      -9.416   5.224  65.418  1.00  0.00    -0.005 C  
BRANCH  16  17
HETATM   17  C   UNL     1      -9.397   6.571  66.096  1.00  0.00    -0.101 C  
HETATM   18  C   UNL     1      -8.325   7.374  65.949  1.00  0.00    -0.140 C  
HETATM   19  C   UNL     1     -10.627   6.960  66.861  1.00  0.00    -0.372 C  
BRANCH  18  20
HETATM   20  C   UNL     1      -8.170   8.776  66.478  1.00  0.00    -0.111 C  
BRANCH  20  21
HETATM   21  C   UNL     1      -8.964   9.770  65.654  1.00  0.00    -0.199 C  
HETATM   22  C   UNL     1      -8.970   9.818  64.304  1.00  0.00    -0.276 C  
HETATM   23  C   UNL     1      -8.159   8.936  63.393  1.00  0.00    -0.167 C  
HETATM   24  C   UNL     1      -9.846  10.781  63.574  1.00  0.00    -0.347 C  
HETATM   25  O   UNL     1      -9.821  10.857  62.353  1.00  0.00    -0.115 OA 
HETATM   26  C   UNL     1     -10.760  11.629  64.353  1.00  0.00    -0.387 A  
HETATM   27  C   UNL     1     -10.733  11.603  65.740  1.00  0.00    -0.331 A  
HETATM   28  C   UNL     1      -9.788  10.728  66.448  1.00  0.00    -0.209 C  
HETATM   29  C   UNL     1     -11.602  12.421  66.473  1.00  0.00    -0.447 A  
HETATM   30  C   UNL     1     -12.502  13.259  65.811  1.00  0.00    -0.480 A  
HETATM   31  O   UNL     1      -9.706  10.793  67.669  1.00  0.00    -0.163 OA 
HETATM   32  C   UNL     1     -12.533  13.282  64.417  1.00  0.00    -0.356 A  
HETATM   33  C   UNL     1     -11.663  12.470  63.687  1.00  0.00    -0.594 A  
ENDBRANCH  20  21
ENDBRANCH  18  20
ENDBRANCH  16  17
ENDBRANCH  15  16
ENDBRANCH  13  15
ENDBRANCH  10  11
ENDBRANCH   9  10
ENDBRANCH   5   6
ENDBRANCH   4   5
TORSDOF 9
ENDMDL
MODEL      232
REMARK 921   NORMALIZED FREE ENERGY PREDICTED BY IDOCK:   -4.25 KCAL/MOL
REMARK 922        TOTAL FREE ENERGY PREDICTED BY IDOCK:   -9.69 KCAL/MOL
REMARK 923 INTER-LIGAND FREE ENERGY PREDICTED BY IDOCK:   -5.65 KCAL/MOL
REMARK 924 INTRA-LIGAND FREE ENERGY PREDICTED BY IDOCK:   -4.04 KCAL/MOL
REMARK 927      BINDING AFFINITY PREDICTED BY RF-SCORE:    0.00 PKD
ROOT
HETATM    1  C   UNL     1      -8.375   4.284  72.116  1.00  0.00    -0.103 C  
HETATM    2  C   UNL     1      -7.978   4.767  70.723  1.00  0.00    -0.081 C  
HETATM    3  C   UNL     1      -6.514   4.407  70.448  1.00  0.00    -0.031 C  
HETATM    4  C   UNL     1      -8.944   4.181  69.676  1.00  0.00    -0.160 C  
ENDROOT
BRANCH   4   5
HETATM    5  C   UNL     1      -8.597   4.640  68.266  1.00  0.00    -0.105 C  
BRANCH   5   6
HETATM    6  C   UNL     1      -9.597   5.647  67.707  1.00  0.00    -0.128 C  
HETATM    7  C   UNL     1      -8.891   6.912  67.182  1.00  0.00    -0.120 C  
HETATM    8  C   UNL     1      -7.887   6.591  66.064  1.00  0.00    -0.103 C  
HETATM    9  C   UNL     1      -9.953   7.925  66.719  1.00  0.00    -0.333 C  
BRANCH   9  10
HETATM   10  C   UNL     1      -9.313   9.202  66.184  1.00  0.00    -0.288 C  
BRANCH  10  11
HETATM   11  C   UNL     1     -10.253   9.982  65.280  1.00  0.00    -0.196 C  
HETATM   12  C   UNL     1      -9.498  11.020  64.429  1.00  0.00    -0.273 C  
HETATM   13  C   UNL     1     -10.481  11.892  63.624  1.00  0.00    -0.493 C  
HETATM   14  C   UNL     1      -8.479  10.373  63.482  1.00  0.00    -0.171 C  
BRANCH  13  15
HETATM   15  C   UNL     1     -11.487  12.679  64.473  1.00  0.00    -0.389 C  
BRANCH  15  16
HETATM   16  C   UNL     1     -11.058  14.129  64.705  1.00  0.00    -0.378 C  
BRANCH  16  17
HETATM   17  C   UNL     1     -10.488  14.333  66.086  1.00  0.00    -0.294 C  
HETATM   18  C   UNL     1     -10.540  13.327  66.982  1.00  0.00    -0.259 C  
HETATM   19  C   UNL     1      -9.836  15.655  66.360  1.00  0.00    -0.295 C  
BRANCH  18  20
HETATM   20  C   UNL     1      -9.948  13.322  68.367  1.00  0.00    -0.226 C  
BRANCH  20  21
HETATM   21  C   UNL     1      -8.909  12.231  68.523  1.00  0.00    -0.068 C  
HETATM   22  C   UNL     1      -7.626  12.327  68.112  1.00  0.00    -0.127 C  
HETATM   23  C   UNL     1      -7.024  13.503  67.390  1.00  0.00    -0.086 C  
HETATM   24  C   UNL     1      -6.649  11.230  68.379  1.00  0.00    -0.059 C  
HETATM   25  O   UNL     1      -5.498  11.296  67.970  1.00  0.00    -0.043 OA 
HETATM   26  C   UNL     1      -7.094  10.071  69.166  1.00  0.00    -0.069 A  
HETATM   27  C   UNL     1      -8.418   9.956  69.561  1.00  0.00    -0.184 A  
HETATM   28  C   UNL     1      -9.395  10.992  69.198  1.00  0.00    -0.021 C  
HETATM   29  C   UNL     1      -8.833   8.842  70.303  1.00  0.00    -0.171 A  
HETATM   30  C   UNL     1      -7.915   7.850  70.652  1.00  0.00    -0.096 A  
HETATM   31  O   UNL     1     -10.579  10.824  69.467  1.00  0.00    -0.223 OA 
HETATM   32  C   UNL     1      -6.582   7.967  70.258  1.00  0.00    -0.037 A  
HETATM   33  C   UNL     1      -6.170   9.075  69.515  1.00  0.00    -0.040 A  
ENDBRANCH  20  21
ENDBRANCH  18  20
ENDBRANCH  16  17
ENDBRANCH  15  16
ENDBRANCH  13  15
ENDBRANCH  10  11
ENDBRANCH   9  10
ENDBRANCH   5   6
ENDBRANCH   4   5
TORSDOF 9
ENDMDL
MODEL      233
REMARK 921   NORMALIZED FREE ENERGY PREDICTED BY IDOCK:   -4.24 KCAL/MOL
REMARK 922        TOTAL FREE ENERGY PREDICTED BY IDOCK:   -9.68 KCAL/MOL
REMARK 923 INTER-LIGAND FREE ENERGY PREDICTED BY IDOCK:   -6.84 KCAL/MOL
REMARK 924 INTRA-LIGAND FREE ENERGY PREDICTED BY IDOCK:   -2.84 KCAL/MOL
REMARK 927      BINDING AFFINITY PREDICTED BY RF-SCORE:    0.00 PKD
ROOT
HETATM    1  C   UNL     1     -11.906  12.379  66.462  1.00  0.00    -0.407 C  
HETATM    2  C   UNL     1     -10.449  12.342  66.007  1.00  0.00    -0.281 C  
HETATM    3  C   UNL     1      -9.732  13.619  66.459  1.00  0.00    -0.298 C  
HETATM    4  C   UNL     1      -9.774  11.061  66.532  1.00  0.00    -0.230 C  
ENDROOT
BRANCH   4   5
HETATM    5  C   UNL     1      -8.317  10.970  66.097  1.00  0.00    -0.163 C  
BRANCH   5   6
HETATM    6  C   UNL     1      -7.722   9.581  66.307  1.00  0.00    -0.101 C  
HETATM    7  C   UNL     1      -8.342   8.549  65.346  1.00  0.00    -0.164 C  
HETATM    8  C   UNL     1      -8.121   8.927  63.873  1.00  0.00    -0.163 C  
HETATM    9  C   UNL     1      -7.772   7.156  65.667  1.00  0.00    -0.102 C  
BRANCH   9  10
HETATM   10  C   UNL     1      -8.349   6.089  64.743  1.00  0.00    -0.086 C  
BRANCH  10  11
HETATM   11  C   UNL     1      -8.551   4.761  65.455  1.00  0.00    -0.134 C  
HETATM   12  C   UNL     1      -9.334   4.930  66.770  1.00  0.00    -0.141 C  
HETATM   13  C   UNL     1      -9.407   3.597  67.542  1.00  0.00    -0.244 C  
HETATM   14  C   UNL     1     -10.748   5.480  66.545  1.00  0.00    -0.309 C  
BRANCH  13  15
HETATM   15  C   UNL     1      -8.047   2.999  67.923  1.00  0.00    -0.083 C  
BRANCH  15  16
HETATM   16  C   UNL     1      -6.973   4.065  68.147  1.00  0.00    -0.051 C  
BRANCH  16  17
HETATM   17  C   UNL     1      -7.104   4.720  69.498  1.00  0.00    -0.054 C  
HETATM   18  C   UNL     1      -7.495   6.008  69.578  1.00  0.00    -0.088 C  
HETATM   19  C   UNL     1      -6.838   3.859  70.697  1.00  0.00    -0.033 C  
BRANCH  18  20
HETATM   20  C   UNL     1      -7.761   6.794  70.835  1.00  0.00    -0.093 C  
BRANCH  20  21
HETATM   21  C   UNL     1      -9.208   7.238  70.916  1.00  0.00    -0.155 C  
HETATM   22  C   UNL     1     -10.211   6.496  71.430  1.00  0.00    -0.221 C  
HETATM   23  C   UNL     1     -10.080   5.093  71.961  1.00  0.00    -0.253 C  
HETATM   24  C   UNL     1     -11.594   7.046  71.542  1.00  0.00    -0.287 C  
HETATM   25  O   UNL     1     -12.515   6.361  71.967  1.00  0.00    -0.333 OA 
HETATM   26  C   UNL     1     -11.828   8.444  71.149  1.00  0.00    -0.314 A  
HETATM   27  C   UNL     1     -10.805   9.197  70.592  1.00  0.00    -0.321 A  
HETATM   28  C   UNL     1      -9.475   8.608  70.387  1.00  0.00    -0.170 C  
HETATM   29  C   UNL     1     -11.040  10.525  70.213  1.00  0.00    -0.359 A  
HETATM   30  C   UNL     1     -12.301  11.095  70.400  1.00  0.00    -0.430 A  
HETATM   31  O   UNL     1      -8.613   9.253  69.800  1.00  0.00    -0.133 OA 
HETATM   32  C   UNL     1     -13.328  10.339  70.965  1.00  0.00    -0.299 A  
HETATM   33  C   UNL     1     -13.094   9.015  71.338  1.00  0.00    -0.337 A  
ENDBRANCH  20  21
ENDBRANCH  18  20
ENDBRANCH  16  17
ENDBRANCH  15  16
ENDBRANCH  13  15
ENDBRANCH  10  11
ENDBRANCH   9  10
ENDBRANCH   5   6
ENDBRANCH   4   5
TORSDOF 9
ENDMDL
MODEL      234
REMARK 921   NORMALIZED FREE ENERGY PREDICTED BY IDOCK:   -4.23 KCAL/MOL
REMARK 922        TOTAL FREE ENERGY PREDICTED BY IDOCK:   -9.66 KCAL/MOL
REMARK 923 INTER-LIGAND FREE ENERGY PREDICTED BY IDOCK:   -7.98 KCAL/MOL
REMARK 924 INTRA-LIGAND FREE ENERGY PREDICTED BY IDOCK:   -1.69 KCAL/MOL
REMARK 927      BINDING AFFINITY PREDICTED BY RF-SCORE:    0.00 PKD
ROOT
HETATM    1  C   UNL     1     -12.527   7.025  71.196  1.00  0.00    -0.407 C  
HETATM    2  C   UNL     1     -11.048   7.130  71.563  1.00  0.00    -0.267 C  
HETATM    3  C   UNL     1     -10.900   7.299  73.079  1.00  0.00    -0.399 C  
HETATM    4  C   UNL     1     -10.292   5.901  71.022  1.00  0.00    -0.281 C  
ENDROOT
BRANCH   4   5
HETATM    5  C   UNL     1      -8.807   5.960  71.353  1.00  0.00    -0.137 C  
BRANCH   5   6
HETATM    6  C   UNL     1      -7.928   6.084  70.113  1.00  0.00    -0.106 C  
HETATM    7  C   UNL     1      -8.008   7.496  69.501  1.00  0.00    -0.126 C  
HETATM    8  C   UNL     1      -7.560   8.580  70.493  1.00  0.00    -0.074 C  
HETATM    9  C   UNL     1      -7.178   7.531  68.206  1.00  0.00    -0.093 C  
BRANCH   9  10
HETATM   10  C   UNL     1      -7.217   8.910  67.554  1.00  0.00    -0.080 C  
BRANCH  10  11
HETATM   11  C   UNL     1      -8.175   8.961  66.375  1.00  0.00    -0.115 C  
HETATM   12  C   UNL     1      -7.671   9.908  65.270  1.00  0.00    -0.129 C  
HETATM   13  C   UNL     1      -8.718  10.053  64.149  1.00  0.00    -0.221 C  
HETATM   14  C   UNL     1      -6.331   9.455  64.676  1.00  0.00    -0.079 C  
BRANCH  13  15
HETATM   15  C   UNL     1     -10.075  10.604  64.603  1.00  0.00    -0.417 C  
BRANCH  15  16
HETATM   16  C   UNL     1     -10.796  11.382  63.502  1.00  0.00    -0.430 C  
BRANCH  16  17
HETATM   17  C   UNL     1     -11.573  12.551  64.054  1.00  0.00    -0.485 C  
HETATM   18  C   UNL     1     -11.312  12.994  65.300  1.00  0.00    -0.325 C  
HETATM   19  C   UNL     1     -12.571  13.194  63.138  1.00  0.00     0.026 C  
BRANCH  18  20
HETATM   20  C   UNL     1     -11.923  14.192  65.978  1.00  0.00    -0.427 C  
BRANCH  20  21
HETATM   21  C   UNL     1     -10.885  14.982  66.751  1.00  0.00    -0.318 C  
HETATM   22  C   UNL     1     -10.487  14.700  68.010  1.00  0.00    -0.236 C  
HETATM   23  C   UNL     1     -11.036  13.597  68.876  1.00  0.00    -0.281 C  
HETATM   24  C   UNL     1      -9.400  15.485  68.666  1.00  0.00    -0.201 C  
HETATM   25  O   UNL     1      -9.067  15.260  69.822  1.00  0.00    -0.203 OA 
HETATM   26  C   UNL     1      -8.717  16.526  67.884  1.00  0.00    -0.188 A  
HETATM   27  C   UNL     1      -9.144  16.837  66.602  1.00  0.00    -0.275 A  
HETATM   28  C   UNL     1     -10.288  16.130  66.008  1.00  0.00    -0.358 C  
HETATM   29  C   UNL     1      -8.492  17.837  65.870  1.00  0.00     0.068 A  
HETATM   30  C   UNL     1      -7.406  18.517  66.424  1.00  0.00    -0.277 A  
HETATM   31  O   UNL     1     -10.717  16.487  64.917  1.00  0.00    -0.702 OA 
HETATM   32  C   UNL     1      -6.973  18.201  67.711  1.00  0.00    -0.207 A  
HETATM   33  C   UNL     1      -7.626  17.208  68.443  1.00  0.00    -0.231 A  
ENDBRANCH  20  21
ENDBRANCH  18  20
ENDBRANCH  16  17
ENDBRANCH  15  16
ENDBRANCH  13  15
ENDBRANCH  10  11
ENDBRANCH   9  10
ENDBRANCH   5   6
ENDBRANCH   4   5
TORSDOF 9
ENDMDL
MODEL      235
REMARK 921   NORMALIZED FREE ENERGY PREDICTED BY IDOCK:   -4.23 KCAL/MOL
REMARK 922        TOTAL FREE ENERGY PREDICTED BY IDOCK:   -9.65 KCAL/MOL
REMARK 923 INTER-LIGAND FREE ENERGY PREDICTED BY IDOCK:   -7.30 KCAL/MOL
REMARK 924 INTRA-LIGAND FREE ENERGY PREDICTED BY IDOCK:   -2.36 KCAL/MOL
REMARK 927      BINDING AFFINITY PREDICTED BY RF-SCORE:    0.00 PKD
ROOT
HETATM    1  C   UNL     1     -14.379  15.208  72.026  1.00  0.00    -0.682 C  
HETATM    2  C   UNL     1     -13.102  15.324  71.197  1.00  0.00    -0.546 C  
HETATM    3  C   UNL     1     -11.921  15.676  72.108  1.00  0.00    -0.552 C  
HETATM    4  C   UNL     1     -12.878  14.021  70.405  1.00  0.00    -0.231 C  
ENDROOT
BRANCH   4   5
HETATM    5  C   UNL     1     -11.619  14.088  69.552  1.00  0.00    -0.350 C  
BRANCH   5   6
HETATM    6  C   UNL     1     -11.689  13.190  68.320  1.00  0.00    -0.384 C  
HETATM    7  C   UNL     1     -10.956  11.854  68.552  1.00  0.00    -0.277 C  
HETATM    8  C   UNL     1     -11.549  11.067  69.731  1.00  0.00    -0.401 C  
HETATM    9  C   UNL     1     -10.980  11.034  67.251  1.00  0.00    -0.356 C  
BRANCH   9  10
HETATM   10  C   UNL     1     -10.269   9.696  67.419  1.00  0.00    -0.283 C  
BRANCH  10  11
HETATM   11  C   UNL     1      -8.956   9.833  68.174  1.00  0.00    -0.119 C  
HETATM   12  C   UNL     1      -8.157   8.516  68.176  1.00  0.00    -0.119 C  
HETATM   13  C   UNL     1      -6.900   8.636  69.059  1.00  0.00    -0.056 C  
HETATM   14  C   UNL     1      -7.761   8.068  66.763  1.00  0.00    -0.098 C  
BRANCH  13  15
HETATM   15  C   UNL     1      -7.177   8.975  70.529  1.00  0.00    -0.081 C  
BRANCH  15  16
HETATM   16  C   UNL     1      -6.534   7.980  71.497  1.00  0.00    -0.041 C  
BRANCH  16  17
HETATM   17  C   UNL     1      -7.140   6.605  71.375  1.00  0.00    -0.076 C  
HETATM   18  C   UNL     1      -8.478   6.461  71.431  1.00  0.00    -0.126 C  
HETATM   19  C   UNL     1      -6.192   5.466  71.139  1.00  0.00    -0.033 C  
BRANCH  18  20
HETATM   20  C   UNL     1      -9.257   5.185  71.242  1.00  0.00    -0.182 C  
BRANCH  20  21
HETATM   21  C   UNL     1      -9.608   4.959  69.785  1.00  0.00    -0.243 C  
HETATM   22  C   UNL     1     -10.407   5.765  69.054  1.00  0.00    -0.313 C  
HETATM   23  C   UNL     1     -11.123   6.987  69.567  1.00  0.00    -0.221 C  
HETATM   24  C   UNL     1     -10.635   5.509  67.601  1.00  0.00    -0.164 C  
HETATM   25  O   UNL     1     -11.393   6.212  66.947  1.00  0.00    -0.199 OA 
HETATM   26  C   UNL     1      -9.910   4.402  66.962  1.00  0.00    -0.227 A  
HETATM   27  C   UNL     1      -9.112   3.555  67.717  1.00  0.00    -0.197 A  
HETATM   28  C   UNL     1      -8.983   3.753  69.167  1.00  0.00    -0.117 C  
HETATM   29  C   UNL     1      -8.433   2.497  67.099  1.00  0.00    -0.108 A  
HETATM   30  C   UNL     1      -8.549   2.298  65.722  1.00  0.00    -0.114 A  
HETATM   31  O   UNL     1      -8.358   2.936  69.834  1.00  0.00    -0.044 OA 
HETATM   32  C   UNL     1      -9.347   3.152  64.962  1.00  0.00    -0.148 A  
HETATM   33  C   UNL     1     -10.028   4.203  65.579  1.00  0.00    -0.209 A  
ENDBRANCH  20  21
ENDBRANCH  18  20
ENDBRANCH  16  17
ENDBRANCH  15  16
ENDBRANCH  13  15
ENDBRANCH  10  11
ENDBRANCH   9  10
ENDBRANCH   5   6
ENDBRANCH   4   5
TORSDOF 9
ENDMDL
MODEL      236
REMARK 921   NORMALIZED FREE ENERGY PREDICTED BY IDOCK:   -4.23 KCAL/MOL
REMARK 922        TOTAL FREE ENERGY PREDICTED BY IDOCK:   -9.65 KCAL/MOL
REMARK 923 INTER-LIGAND FREE ENERGY PREDICTED BY IDOCK:   -7.87 KCAL/MOL
REMARK 924 INTRA-LIGAND FREE ENERGY PREDICTED BY IDOCK:   -1.79 KCAL/MOL
REMARK 927      BINDING AFFINITY PREDICTED BY RF-SCORE:    0.00 PKD
ROOT
HETATM    1  C   UNL     1      -7.566   6.509  70.362  1.00  0.00    -0.096 C  
HETATM    2  C   UNL     1      -7.954   7.973  70.557  1.00  0.00    -0.096 C  
HETATM    3  C   UNL     1      -7.824   8.352  72.036  1.00  0.00    -0.171 C  
HETATM    4  C   UNL     1      -7.099   8.863  69.635  1.00  0.00    -0.054 C  
ENDROOT
BRANCH   4   5
HETATM    5  C   UNL     1      -7.453  10.337  69.784  1.00  0.00    -0.169 C  
BRANCH   5   6
HETATM    6  C   UNL     1      -7.174  11.144  68.521  1.00  0.00    -0.088 C  
HETATM    7  C   UNL     1      -7.040  12.648  68.829  1.00  0.00    -0.087 C  
HETATM    8  C   UNL     1      -5.902  12.934  69.820  1.00  0.00    -0.121 C  
HETATM    9  C   UNL     1      -6.854  13.418  67.510  1.00  0.00    -0.154 C  
BRANCH   9  10
HETATM   10  C   UNL     1      -6.712  14.917  67.752  1.00  0.00    -0.191 C  
BRANCH  10  11
HETATM   11  C   UNL     1      -7.947  15.689  67.316  1.00  0.00    -0.227 C  
HETATM   12  C   UNL     1      -7.686  17.206  67.270  1.00  0.00    -0.198 C  
HETATM   13  C   UNL     1      -8.984  17.979  66.961  1.00  0.00    -0.261 C  
HETATM   14  C   UNL     1      -6.600  17.584  66.255  1.00  0.00    -0.295 C  
BRANCH  13  15
HETATM   15  C   UNL     1     -10.116  17.766  67.973  1.00  0.00    -0.355 C  
BRANCH  15  16
HETATM   16  C   UNL     1     -11.039  16.607  67.594  1.00  0.00    -0.107 C  
BRANCH  16  17
HETATM   17  C   UNL     1     -11.387  15.751  68.785  1.00  0.00    -0.362 C  
HETATM   18  C   UNL     1     -11.862  14.505  68.593  1.00  0.00    -0.355 C  
HETATM   19  C   UNL     1     -11.123  16.338  70.140  1.00  0.00    -0.346 C  
BRANCH  18  20
HETATM   20  C   UNL     1     -12.178  13.486  69.657  1.00  0.00    -0.304 C  
BRANCH  20  21
HETATM   21  C   UNL     1     -11.633  12.119  69.294  1.00  0.00    -0.377 C  
HETATM   22  C   UNL     1     -11.755  11.015  70.063  1.00  0.00    -0.437 C  
HETATM   23  C   UNL     1     -12.401  10.961  71.422  1.00  0.00    -0.403 C  
HETATM   24  C   UNL     1     -11.256   9.691  69.589  1.00  0.00    -0.141 C  
HETATM   25  O   UNL     1     -11.326   8.698  70.301  1.00  0.00    -0.235 OA 
HETATM   26  C   UNL     1     -10.694   9.596  68.234  1.00  0.00    -0.262 A  
HETATM   27  C   UNL     1     -10.540  10.734  67.456  1.00  0.00    -0.280 A  
HETATM   28  C   UNL     1     -10.935  12.049  67.977  1.00  0.00    -0.223 C  
HETATM   29  C   UNL     1      -9.995  10.633  66.169  1.00  0.00    -0.283 A  
HETATM   30  C   UNL     1      -9.613   9.389  65.664  1.00  0.00    -0.345 A  
HETATM   31  O   UNL     1     -10.698  13.055  67.317  1.00  0.00    -0.246 OA 
HETATM   32  C   UNL     1      -9.772   8.244  66.444  1.00  0.00    -0.300 A  
HETATM   33  C   UNL     1     -10.311   8.345  67.728  1.00  0.00    -0.297 A  
ENDBRANCH  20  21
ENDBRANCH  18  20
ENDBRANCH  16  17
ENDBRANCH  15  16
ENDBRANCH  13  15
ENDBRANCH  10  11
ENDBRANCH   9  10
ENDBRANCH   5   6
ENDBRANCH   4   5
TORSDOF 9
ENDMDL
MODEL      237
REMARK 921   NORMALIZED FREE ENERGY PREDICTED BY IDOCK:   -4.23 KCAL/MOL
REMARK 922        TOTAL FREE ENERGY PREDICTED BY IDOCK:   -9.65 KCAL/MOL
REMARK 923 INTER-LIGAND FREE ENERGY PREDICTED BY IDOCK:   -8.61 KCAL/MOL
REMARK 924 INTRA-LIGAND FREE ENERGY PREDICTED BY IDOCK:   -1.04 KCAL/MOL
REMARK 927      BINDING AFFINITY PREDICTED BY RF-SCORE:    0.00 PKD
ROOT
HETATM    1  C   UNL     1      -7.014   3.637  69.977  1.00  0.00    -0.041 C  
HETATM    2  C   UNL     1      -6.745   4.403  71.271  1.00  0.00    -0.031 C  
HETATM    3  C   UNL     1      -6.038   5.725  70.953  1.00  0.00    -0.030 C  
HETATM    4  C   UNL     1      -8.065   4.601  72.040  1.00  0.00    -0.101 C  
ENDROOT
BRANCH   4   5
HETATM    5  C   UNL     1      -7.852   5.354  73.346  1.00  0.00    -0.107 C  
BRANCH   5   6
HETATM    6  C   UNL     1      -8.393   6.779  73.304  1.00  0.00    -0.129 C  
HETATM    7  C   UNL     1      -9.810   6.828  72.701  1.00  0.00    -0.183 C  
HETATM    8  C   UNL     1     -10.808   5.979  73.503  1.00  0.00    -0.222 C  
HETATM    9  C   UNL     1     -10.263   8.295  72.599  1.00  0.00    -0.368 C  
BRANCH   9  10
HETATM   10  C   UNL     1     -11.665   8.407  72.008  1.00  0.00    -0.417 C  
BRANCH  10  11
HETATM   11  C   UNL     1     -11.641   8.801  70.540  1.00  0.00    -0.170 C  
HETATM   12  C   UNL     1     -10.772   7.841  69.705  1.00  0.00    -0.236 C  
HETATM   13  C   UNL     1     -10.648   8.335  68.250  1.00  0.00    -0.157 C  
HETATM   14  C   UNL     1     -11.303   6.402  69.724  1.00  0.00    -0.494 C  
BRANCH  13  15
HETATM   15  C   UNL     1     -10.024   9.728  68.094  1.00  0.00    -0.179 C  
BRANCH  15  16
HETATM   16  C   UNL     1     -10.932  10.701  67.340  1.00  0.00    -0.361 C  
BRANCH  16  17
HETATM   17  C   UNL     1     -10.146  11.622  66.442  1.00  0.00    -0.246 C  
HETATM   18  C   UNL     1     -10.578  12.883  66.241  1.00  0.00    -0.281 C  
HETATM   19  C   UNL     1      -8.874  11.079  65.862  1.00  0.00    -0.204 C  
BRANCH  18  20
HETATM   20  C   UNL     1      -9.881  13.960  65.452  1.00  0.00    -0.193 C  
BRANCH  20  21
HETATM   21  C   UNL     1      -9.692  15.217  66.276  1.00  0.00    -0.325 C  
HETATM   22  C   UNL     1      -8.990  15.282  67.428  1.00  0.00    -0.194 C  
HETATM   23  C   UNL     1      -8.323  14.120  68.114  1.00  0.00    -0.161 C  
HETATM   24  C   UNL     1      -8.790  16.583  68.133  1.00  0.00    -0.203 C  
HETATM   25  O   UNL     1      -8.192  16.638  69.199  1.00  0.00    -0.220 OA 
HETATM   26  C   UNL     1      -9.310  17.808  67.508  1.00  0.00    -0.245 A  
HETATM   27  C   UNL     1     -10.057  17.739  66.341  1.00  0.00    -0.357 A  
HETATM   28  C   UNL     1     -10.340  16.440  65.716  1.00  0.00    -0.369 C  
HETATM   29  C   UNL     1     -10.555  18.911  65.759  1.00  0.00    -0.358 A  
HETATM   30  C   UNL     1     -10.295  20.151  66.345  1.00  0.00    -0.510 A  
HETATM   31  O   UNL     1     -11.086  16.388  64.745  1.00  0.00    -0.592 OA 
HETATM   32  C   UNL     1      -9.540  20.221  67.516  1.00  0.00    -0.562 A  
HETATM   33  C   UNL     1      -9.048  19.052  68.098  1.00  0.00    -0.364 A  
ENDBRANCH  20  21
ENDBRANCH  18  20
ENDBRANCH  16  17
ENDBRANCH  15  16
ENDBRANCH  13  15
ENDBRANCH  10  11
ENDBRANCH   9  10
ENDBRANCH   5   6
ENDBRANCH   4   5
TORSDOF 9
ENDMDL
MODEL      238
REMARK 921   NORMALIZED FREE ENERGY PREDICTED BY IDOCK:   -4.22 KCAL/MOL
REMARK 922        TOTAL FREE ENERGY PREDICTED BY IDOCK:   -9.65 KCAL/MOL
REMARK 923 INTER-LIGAND FREE ENERGY PREDICTED BY IDOCK:   -8.49 KCAL/MOL
REMARK 924 INTRA-LIGAND FREE ENERGY PREDICTED BY IDOCK:   -1.16 KCAL/MOL
REMARK 927      BINDING AFFINITY PREDICTED BY RF-SCORE:    0.00 PKD
ROOT
HETATM    1  C   UNL     1      -7.825  19.837  68.416  1.00  0.00    -0.329 C  
HETATM    2  C   UNL     1      -8.813  19.022  67.584  1.00  0.00    -0.319 C  
HETATM    3  C   UNL     1      -8.058  18.229  66.512  1.00  0.00    -0.293 C  
HETATM    4  C   UNL     1      -9.653  18.123  68.511  1.00  0.00    -0.349 C  
ENDROOT
BRANCH   4   5
HETATM    5  C   UNL     1     -10.663  17.293  67.730  1.00  0.00    -0.333 C  
BRANCH   5   6
HETATM    6  C   UNL     1     -10.667  15.824  68.141  1.00  0.00    -0.285 C  
HETATM    7  C   UNL     1     -10.939  14.901  66.937  1.00  0.00    -0.327 C  
HETATM    8  C   UNL     1      -9.883  15.068  65.833  1.00  0.00    -0.369 C  
HETATM    9  C   UNL     1     -11.024  13.446  67.427  1.00  0.00    -0.287 C  
BRANCH   9  10
HETATM   10  C   UNL     1     -11.290  12.482  66.276  1.00  0.00    -0.386 C  
BRANCH  10  11
HETATM   11  C   UNL     1     -10.106  11.568  66.006  1.00  0.00    -0.270 C  
HETATM   12  C   UNL     1     -10.218  10.876  64.634  1.00  0.00    -0.411 C  
HETATM   13  C   UNL     1      -9.083   9.852  64.439  1.00  0.00    -0.299 C  
HETATM   14  C   UNL     1     -10.223  11.877  63.471  1.00  0.00    -0.485 C  
BRANCH  13  15
HETATM   15  C   UNL     1      -9.041   8.731  65.485  1.00  0.00    -0.221 C  
BRANCH  15  16
HETATM   16  C   UNL     1      -7.628   8.193  65.718  1.00  0.00    -0.082 C  
BRANCH  16  17
HETATM   17  C   UNL     1      -7.593   7.164  66.820  1.00  0.00    -0.093 C  
HETATM   18  C   UNL     1      -8.429   6.108  66.771  1.00  0.00    -0.111 C  
HETATM   19  C   UNL     1      -6.566   7.360  67.896  1.00  0.00    -0.054 C  
BRANCH  18  20
HETATM   20  C   UNL     1      -8.472   4.948  67.730  1.00  0.00    -0.104 C  
BRANCH  20  21
HETATM   21  C   UNL     1      -9.231   5.301  68.994  1.00  0.00    -0.152 C  
HETATM   22  C   UNL     1     -10.413   5.952  69.023  1.00  0.00    -0.332 C  
HETATM   23  C   UNL     1     -11.151   6.482  67.822  1.00  0.00    -0.366 C  
HETATM   24  C   UNL     1     -11.129   6.188  70.312  1.00  0.00    -0.366 C  
HETATM   25  O   UNL     1     -12.179   6.816  70.346  1.00  0.00    -0.324 OA 
HETATM   26  C   UNL     1     -10.556   5.629  71.545  1.00  0.00    -0.306 A  
HETATM   27  C   UNL     1      -9.328   4.986  71.521  1.00  0.00    -0.191 A  
HETATM   28  C   UNL     1      -8.581   4.857  70.262  1.00  0.00    -0.094 C  
HETATM   29  C   UNL     1      -8.787   4.465  72.703  1.00  0.00    -0.117 A  
HETATM   30  C   UNL     1      -9.485   4.584  73.907  1.00  0.00    -0.126 A  
HETATM   31  O   UNL     1      -7.453   4.378  70.277  1.00  0.00    -0.048 OA 
HETATM   32  C   UNL     1     -10.723   5.226  73.930  1.00  0.00    -0.320 A  
HETATM   33  C   UNL     1     -11.259   5.749  72.752  1.00  0.00    -0.336 A  
ENDBRANCH  20  21
ENDBRANCH  18  20
ENDBRANCH  16  17
ENDBRANCH  15  16
ENDBRANCH  13  15
ENDBRANCH  10  11
ENDBRANCH   9  10
ENDBRANCH   5   6
ENDBRANCH   4   5
TORSDOF 9
ENDMDL
MODEL      239
REMARK 921   NORMALIZED FREE ENERGY PREDICTED BY IDOCK:   -4.22 KCAL/MOL
REMARK 922        TOTAL FREE ENERGY PREDICTED BY IDOCK:   -9.65 KCAL/MOL
REMARK 923 INTER-LIGAND FREE ENERGY PREDICTED BY IDOCK:   -7.19 KCAL/MOL
REMARK 924 INTRA-LIGAND FREE ENERGY PREDICTED BY IDOCK:   -2.46 KCAL/MOL
REMARK 927      BINDING AFFINITY PREDICTED BY RF-SCORE:    0.00 PKD
ROOT
HETATM    1  C   UNL     1      -6.804   5.776  69.702  1.00  0.00    -0.061 C  
HETATM    2  C   UNL     1      -7.430   7.110  70.102  1.00  0.00    -0.089 C  
HETATM    3  C   UNL     1      -7.094   7.423  71.564  1.00  0.00    -0.066 C  
HETATM    4  C   UNL     1      -6.963   8.213  69.133  1.00  0.00    -0.060 C  
ENDROOT
BRANCH   4   5
HETATM    5  C   UNL     1      -7.568   9.566  69.483  1.00  0.00    -0.096 C  
BRANCH   5   6
HETATM    6  C   UNL     1      -7.677  10.496  68.279  1.00  0.00    -0.101 C  
HETATM    7  C   UNL     1      -7.577  11.976  68.697  1.00  0.00    -0.112 C  
HETATM    8  C   UNL     1      -6.248  12.288  69.401  1.00  0.00    -0.110 C  
HETATM    9  C   UNL     1      -7.788  12.864  67.458  1.00  0.00    -0.177 C  
BRANCH   9  10
HETATM   10  C   UNL     1      -7.698  14.345  67.809  1.00  0.00    -0.172 C  
BRANCH  10  11
HETATM   11  C   UNL     1      -9.051  14.932  68.177  1.00  0.00    -0.177 C  
HETATM   12  C   UNL     1      -8.911  16.302  68.867  1.00  0.00    -0.248 C  
HETATM   13  C   UNL     1     -10.280  16.815  69.354  1.00  0.00    -0.225 C  
HETATM   14  C   UNL     1      -8.253  17.351  67.962  1.00  0.00    -0.229 C  
BRANCH  13  15
HETATM   15  C   UNL     1     -10.993  15.897  70.356  1.00  0.00    -0.361 C  
BRANCH  15  16
HETATM   16  C   UNL     1     -12.115  15.080  69.715  1.00  0.00    -0.354 C  
BRANCH  16  17
HETATM   17  C   UNL     1     -12.418  13.828  70.498  1.00  0.00    -0.409 C  
HETATM   18  C   UNL     1     -11.961  12.640  70.055  1.00  0.00    -0.377 C  
HETATM   19  C   UNL     1     -13.178  13.998  71.780  1.00  0.00    -0.454 C  
BRANCH  18  20
HETATM   20  C   UNL     1     -12.092  11.308  70.747  1.00  0.00    -0.450 C  
BRANCH  20  21
HETATM   21  C   UNL     1     -11.661  10.169  69.844  1.00  0.00    -0.248 C  
HETATM   22  C   UNL     1     -11.209  10.319  68.581  1.00  0.00    -0.263 C  
HETATM   23  C   UNL     1     -11.104  11.624  67.838  1.00  0.00    -0.306 C  
HETATM   24  C   UNL     1     -10.732   9.146  67.792  1.00  0.00    -0.179 C  
HETATM   25  O   UNL     1     -10.363   9.272  66.632  1.00  0.00    -0.259 OA 
HETATM   26  C   UNL     1     -10.692   7.829  68.445  1.00  0.00    -0.088 A  
HETATM   27  C   UNL     1     -11.184   7.668  69.732  1.00  0.00    -0.042 A  
HETATM   28  C   UNL     1     -11.753   8.812  70.459  1.00  0.00    -0.094 C  
HETATM   29  C   UNL     1     -11.150   6.408  70.342  1.00  0.00    -0.400 A  
HETATM   30  C   UNL     1     -10.615   5.313  69.661  1.00  0.00    -0.261 A  
HETATM   31  O   UNL     1     -12.276   8.631  71.552  1.00  0.00    -0.296 OA 
HETATM   32  C   UNL     1     -10.116   5.475  68.369  1.00  0.00    -0.234 A  
HETATM   33  C   UNL     1     -10.154   6.731  67.760  1.00  0.00    -0.189 A  
ENDBRANCH  20  21
ENDBRANCH  18  20
ENDBRANCH  16  17
ENDBRANCH  15  16
ENDBRANCH  13  15
ENDBRANCH  10  11
ENDBRANCH   9  10
ENDBRANCH   5   6
ENDBRANCH   4   5
TORSDOF 9
ENDMDL
MODEL      240
REMARK 921   NORMALIZED FREE ENERGY PREDICTED BY IDOCK:   -4.22 KCAL/MOL
REMARK 922        TOTAL FREE ENERGY PREDICTED BY IDOCK:   -9.65 KCAL/MOL
REMARK 923 INTER-LIGAND FREE ENERGY PREDICTED BY IDOCK:   -7.91 KCAL/MOL
REMARK 924 INTRA-LIGAND FREE ENERGY PREDICTED BY IDOCK:   -1.74 KCAL/MOL
REMARK 927      BINDING AFFINITY PREDICTED BY RF-SCORE:    0.00 PKD
ROOT
HETATM    1  C   UNL     1      -5.212   7.298  73.659  1.00  0.00    -0.042 C  
HETATM    2  C   UNL     1      -6.288   7.276  72.575  1.00  0.00    -0.051 C  
HETATM    3  C   UNL     1      -6.481   8.686  72.007  1.00  0.00    -0.074 C  
HETATM    4  C   UNL     1      -5.915   6.243  71.495  1.00  0.00    -0.032 C  
ENDROOT
BRANCH   4   5
HETATM    5  C   UNL     1      -6.963   6.175  70.392  1.00  0.00    -0.059 C  
BRANCH   5   6
HETATM    6  C   UNL     1      -8.235   5.454  70.827  1.00  0.00    -0.115 C  
HETATM    7  C   UNL     1      -9.486   6.323  70.592  1.00  0.00    -0.182 C  
HETATM    8  C   UNL     1      -9.654   6.704  69.114  1.00  0.00    -0.136 C  
HETATM    9  C   UNL     1     -10.721   5.585  71.134  1.00  0.00    -0.280 C  
BRANCH   9  10
HETATM   10  C   UNL     1     -11.995   6.398  70.928  1.00  0.00    -0.258 C  
BRANCH  10  11
HETATM   11  C   UNL     1     -11.886   7.796  71.515  1.00  0.00    -0.324 C  
HETATM   12  C   UNL     1     -13.149   8.633  71.236  1.00  0.00    -0.192 C  
HETATM   13  C   UNL     1     -12.964  10.085  71.717  1.00  0.00    -0.560 C  
HETATM   14  C   UNL     1     -14.407   8.029  71.874  1.00  0.00    -0.559 C  
BRANCH  13  15
HETATM   15  C   UNL     1     -11.796  10.836  71.065  1.00  0.00    -0.349 C  
BRANCH  15  16
HETATM   16  C   UNL     1     -12.244  11.748  69.922  1.00  0.00    -0.293 C  
BRANCH  16  17
HETATM   17  C   UNL     1     -11.149  11.956  68.907  1.00  0.00    -0.299 C  
HETATM   18  C   UNL     1     -11.230  12.988  68.044  1.00  0.00    -0.310 C  
HETATM   19  C   UNL     1      -9.985  11.011  68.962  1.00  0.00    -0.184 C  
BRANCH  18  20
HETATM   20  C   UNL     1     -10.196  13.398  67.028  1.00  0.00    -0.249 C  
BRANCH  20  21
HETATM   21  C   UNL     1      -9.651  14.782  67.318  1.00  0.00    -0.223 C  
HETATM   22  C   UNL     1      -8.545  15.034  68.051  1.00  0.00    -0.158 C  
HETATM   23  C   UNL     1      -7.698  13.999  68.743  1.00  0.00    -0.112 C  
HETATM   24  C   UNL     1      -8.036  16.427  68.219  1.00  0.00    -0.170 C  
HETATM   25  O   UNL     1      -7.060  16.664  68.918  1.00  0.00    -0.180 OA 
HETATM   26  C   UNL     1      -8.722  17.516  67.507  1.00  0.00    -0.225 A  
HETATM   27  C   UNL     1      -9.875  17.263  66.779  1.00  0.00    -0.296 A  
HETATM   28  C   UNL     1     -10.428  15.903  66.712  1.00  0.00    -0.309 C  
HETATM   29  C   UNL     1     -10.526  18.309  66.112  1.00  0.00    -0.403 A  
HETATM   30  C   UNL     1     -10.011  19.606  66.171  1.00  0.00    -0.554 A  
HETATM   31  O   UNL     1     -11.501  15.716  66.151  1.00  0.00    -0.037 OA 
HETATM   32  C   UNL     1      -8.849  19.860  66.899  1.00  0.00    -0.419 A  
HETATM   33  C   UNL     1      -8.204  18.818  67.567  1.00  0.00    -0.278 A  
ENDBRANCH  20  21
ENDBRANCH  18  20
ENDBRANCH  16  17
ENDBRANCH  15  16
ENDBRANCH  13  15
ENDBRANCH  10  11
ENDBRANCH   9  10
ENDBRANCH   5   6
ENDBRANCH   4   5
TORSDOF 9
ENDMDL
MODEL      241
REMARK 921   NORMALIZED FREE ENERGY PREDICTED BY IDOCK:   -4.22 KCAL/MOL
REMARK 922        TOTAL FREE ENERGY PREDICTED BY IDOCK:   -9.64 KCAL/MOL
REMARK 923 INTER-LIGAND FREE ENERGY PREDICTED BY IDOCK:   -8.18 KCAL/MOL
REMARK 924 INTRA-LIGAND FREE ENERGY PREDICTED BY IDOCK:   -1.46 KCAL/MOL
REMARK 927      BINDING AFFINITY PREDICTED BY RF-SCORE:    0.00 PKD
ROOT
HETATM    1  C   UNL     1     -14.385  15.255  72.044  1.00  0.00    -0.689 C  
HETATM    2  C   UNL     1     -13.095  15.298  71.227  1.00  0.00    -0.540 C  
HETATM    3  C   UNL     1     -11.945  15.810  72.101  1.00  0.00    -0.580 C  
HETATM    4  C   UNL     1     -12.815  13.908  70.625  1.00  0.00    -0.291 C  
ENDROOT
BRANCH   4   5
HETATM    5  C   UNL     1     -11.542  13.899  69.790  1.00  0.00    -0.335 C  
BRANCH   5   6
HETATM    6  C   UNL     1     -11.518  12.778  68.756  1.00  0.00    -0.347 C  
HETATM    7  C   UNL     1     -10.925  11.482  69.341  1.00  0.00    -0.233 C  
HETATM    8  C   UNL     1     -11.725  10.975  70.551  1.00  0.00    -0.416 C  
HETATM    9  C   UNL     1     -10.841  10.421  68.230  1.00  0.00    -0.299 C  
BRANCH   9  10
HETATM   10  C   UNL     1     -10.261   9.110  68.751  1.00  0.00    -0.228 C  
BRANCH  10  11
HETATM   11  C   UNL     1      -9.391   9.314  69.981  1.00  0.00    -0.232 C  
HETATM   12  C   UNL     1      -8.634   8.028  70.365  1.00  0.00    -0.131 C  
HETATM   13  C   UNL     1      -7.868   8.216  71.689  1.00  0.00    -0.130 C  
HETATM   14  C   UNL     1      -7.669   7.566  69.266  1.00  0.00    -0.112 C  
BRANCH  13  15
HETATM   15  C   UNL     1      -8.746   8.576  72.895  1.00  0.00    -0.151 C  
BRANCH  15  16
HETATM   16  C   UNL     1      -8.554   7.620  74.072  1.00  0.00    -0.297 C  
BRANCH  16  17
HETATM   17  C   UNL     1      -8.793   6.184  73.678  1.00  0.00    -0.124 C  
HETATM   18  C   UNL     1      -9.962   5.839  73.102  1.00  0.00    -0.189 C  
HETATM   19  C   UNL     1      -7.666   5.222  73.907  1.00  0.00    -0.098 C  
BRANCH  18  20
HETATM   20  C   UNL     1     -10.338   4.482  72.568  1.00  0.00    -0.257 C  
BRANCH  20  21
HETATM   21  C   UNL     1      -9.851   4.291  71.145  1.00  0.00    -0.250 C  
HETATM   22  C   UNL     1      -8.951   3.360  70.760  1.00  0.00    -0.163 C  
HETATM   23  C   UNL     1      -8.243   2.395  71.674  1.00  0.00    -0.061 C  
HETATM   24  C   UNL     1      -8.588   3.192  69.322  1.00  0.00    -0.068 C  
HETATM   25  O   UNL     1      -7.741   2.380  68.975  1.00  0.00    -0.043 OA 
HETATM   26  C   UNL     1      -9.288   4.011  68.321  1.00  0.00    -0.216 A  
HETATM   27  C   UNL     1     -10.190   4.987  68.718  1.00  0.00    -0.164 A  
HETATM   28  C   UNL     1     -10.456   5.217  70.144  1.00  0.00    -0.268 C  
HETATM   29  C   UNL     1     -10.844   5.768  67.756  1.00  0.00    -0.259 A  
HETATM   30  C   UNL     1     -10.597   5.560  66.397  1.00  0.00    -0.291 A  
HETATM   31  O   UNL     1     -11.176   6.150  70.480  1.00  0.00    -0.320 OA 
HETATM   32  C   UNL     1      -9.694   4.575  65.998  1.00  0.00    -0.216 A  
HETATM   33  C   UNL     1      -9.039   3.801  66.957  1.00  0.00    -0.179 A  
ENDBRANCH  20  21
ENDBRANCH  18  20
ENDBRANCH  16  17
ENDBRANCH  15  16
ENDBRANCH  13  15
ENDBRANCH  10  11
ENDBRANCH   9  10
ENDBRANCH   5   6
ENDBRANCH   4   5
TORSDOF 9
ENDMDL
MODEL      242
REMARK 921   NORMALIZED FREE ENERGY PREDICTED BY IDOCK:   -4.21 KCAL/MOL
REMARK 922        TOTAL FREE ENERGY PREDICTED BY IDOCK:   -9.63 KCAL/MOL
REMARK 923 INTER-LIGAND FREE ENERGY PREDICTED BY IDOCK:   -8.04 KCAL/MOL
REMARK 924 INTRA-LIGAND FREE ENERGY PREDICTED BY IDOCK:   -1.59 KCAL/MOL
REMARK 927      BINDING AFFINITY PREDICTED BY RF-SCORE:    0.00 PKD
ROOT
HETATM    1  C   UNL     1     -10.390   8.717  70.767  1.00  0.00    -0.264 C  
HETATM    2  C   UNL     1     -10.257   7.197  70.835  1.00  0.00    -0.207 C  
HETATM    3  C   UNL     1     -11.399   6.541  70.052  1.00  0.00    -0.472 C  
HETATM    4  C   UNL     1      -8.865   6.775  70.328  1.00  0.00    -0.152 C  
ENDROOT
BRANCH   4   5
HETATM    5  C   UNL     1      -8.676   5.266  70.383  1.00  0.00    -0.138 C  
BRANCH   5   6
HETATM    6  C   UNL     1      -8.675   4.617  69.003  1.00  0.00    -0.108 C  
HETATM    7  C   UNL     1      -7.969   5.506  67.961  1.00  0.00    -0.096 C  
HETATM    8  C   UNL     1      -6.506   5.787  68.339  1.00  0.00    -0.046 C  
HETATM    9  C   UNL     1      -8.081   4.845  66.576  1.00  0.00    -0.107 C  
BRANCH   9  10
HETATM   10  C   UNL     1      -7.396   5.681  65.500  1.00  0.00    -0.073 C  
BRANCH  10  11
HETATM   11  C   UNL     1      -7.968   7.087  65.412  1.00  0.00    -0.129 C  
HETATM   12  C   UNL     1      -7.506   7.813  64.135  1.00  0.00    -0.105 C  
HETATM   13  C   UNL     1      -7.982   9.279  64.132  1.00  0.00    -0.136 C  
HETATM   14  C   UNL     1      -7.979   7.109  62.856  1.00  0.00    -0.100 C  
BRANCH  13  15
HETATM   15  C   UNL     1      -7.480  10.120  65.313  1.00  0.00    -0.145 C  
BRANCH  15  16
HETATM   16  C   UNL     1      -8.118   9.715  66.642  1.00  0.00    -0.119 C  
BRANCH  16  17
HETATM   17  C   UNL     1      -9.518  10.256  66.783  1.00  0.00    -0.198 C  
HETATM   18  C   UNL     1      -9.717  11.589  66.801  1.00  0.00    -0.220 C  
HETATM   19  C   UNL     1     -10.631   9.251  66.840  1.00  0.00    -0.239 C  
BRANCH  18  20
HETATM   20  C   UNL     1     -11.043  12.303  66.847  1.00  0.00    -0.341 C  
BRANCH  20  21
HETATM   21  C   UNL     1     -11.207  13.085  68.135  1.00  0.00    -0.305 C  
HETATM   22  C   UNL     1     -10.739  14.334  68.340  1.00  0.00    -0.257 C  
HETATM   23  C   UNL     1      -9.935  15.141  67.355  1.00  0.00    -0.226 C  
HETATM   24  C   UNL     1     -11.016  15.059  69.615  1.00  0.00    -0.279 C  
HETATM   25  O   UNL     1     -10.556  16.174  69.821  1.00  0.00    -0.284 OA 
HETATM   26  C   UNL     1     -11.877  14.413  70.617  1.00  0.00    -0.361 A  
HETATM   27  C   UNL     1     -12.334  13.118  70.421  1.00  0.00    -0.351 A  
HETATM   28  C   UNL     1     -11.962  12.375  69.209  1.00  0.00    -0.253 C  
HETATM   29  C   UNL     1     -13.146  12.509  71.386  1.00  0.00    -0.303 A  
HETATM   30  C   UNL     1     -13.503  13.204  72.543  1.00  0.00    -0.579 A  
HETATM   31  O   UNL     1     -12.289  11.198  69.100  1.00  0.00    -0.438 OA 
HETATM   32  C   UNL     1     -13.048  14.508  72.738  1.00  0.00    -0.589 A  
HETATM   33  C   UNL     1     -12.235  15.113  71.778  1.00  0.00    -0.423 A  
ENDBRANCH  20  21
ENDBRANCH  18  20
ENDBRANCH  16  17
ENDBRANCH  15  16
ENDBRANCH  13  15
ENDBRANCH  10  11
ENDBRANCH   9  10
ENDBRANCH   5   6
ENDBRANCH   4   5
TORSDOF 9
ENDMDL
MODEL      243
REMARK 921   NORMALIZED FREE ENERGY PREDICTED BY IDOCK:   -4.21 KCAL/MOL
REMARK 922        TOTAL FREE ENERGY PREDICTED BY IDOCK:   -9.63 KCAL/MOL
REMARK 923 INTER-LIGAND FREE ENERGY PREDICTED BY IDOCK:   -7.61 KCAL/MOL
REMARK 924 INTRA-LIGAND FREE ENERGY PREDICTED BY IDOCK:   -2.02 KCAL/MOL
REMARK 927      BINDING AFFINITY PREDICTED BY RF-SCORE:    0.00 PKD
ROOT
HETATM    1  C   UNL     1      -9.956  11.108  62.914  1.00  0.00    -0.282 C  
HETATM    2  C   UNL     1     -10.758  12.245  63.544  1.00  0.00    -0.497 C  
HETATM    3  C   UNL     1     -12.257  12.000  63.334  1.00  0.00    -0.627 C  
HETATM    4  C   UNL     1     -10.379  12.386  65.030  1.00  0.00    -0.319 C  
ENDROOT
BRANCH   4   5
HETATM    5  C   UNL     1     -11.146  13.515  65.705  1.00  0.00    -0.295 C  
BRANCH   5   6
HETATM    6  C   UNL     1     -11.918  13.053  66.937  1.00  0.00    -0.415 C  
HETATM    7  C   UNL     1     -11.021  12.248  67.897  1.00  0.00    -0.265 C  
HETATM    8  C   UNL     1      -9.818  13.068  68.387  1.00  0.00    -0.203 C  
HETATM    9  C   UNL     1     -11.873  11.732  69.069  1.00  0.00    -0.379 C  
BRANCH   9  10
HETATM   10  C   UNL     1     -11.036  10.926  70.058  1.00  0.00    -0.285 C  
BRANCH  10  11
HETATM   11  C   UNL     1     -11.648   9.566  70.354  1.00  0.00    -0.268 C  
HETATM   12  C   UNL     1     -12.345   9.540  71.728  1.00  0.00    -0.474 C  
HETATM   13  C   UNL     1     -12.836   8.120  72.069  1.00  0.00    -0.346 C  
HETATM   14  C   UNL     1     -13.514  10.530  71.811  1.00  0.00    -0.345 C  
BRANCH  13  15
HETATM   15  C   UNL     1     -11.734   7.054  72.124  1.00  0.00    -0.321 C  
BRANCH  15  16
HETATM   16  C   UNL     1     -10.724   7.305  73.244  1.00  0.00    -0.428 C  
BRANCH  16  17
HETATM   17  C   UNL     1      -9.355   7.635  72.705  1.00  0.00    -0.225 C  
HETATM   18  C   UNL     1      -9.162   7.693  71.372  1.00  0.00    -0.152 C  
HETATM   19  C   UNL     1      -8.286   7.938  73.712  1.00  0.00    -0.277 C  
BRANCH  18  20
HETATM   20  C   UNL     1      -7.894   8.090  70.662  1.00  0.00    -0.091 C  
BRANCH  20  21
HETATM   21  C   UNL     1      -7.504   7.068  69.612  1.00  0.00    -0.098 C  
HETATM   22  C   UNL     1      -6.699   6.008  69.834  1.00  0.00    -0.052 C  
HETATM   23  C   UNL     1      -6.013   5.687  71.135  1.00  0.00    -0.032 C  
HETATM   24  C   UNL     1      -6.432   5.007  68.759  1.00  0.00    -0.036 C  
HETATM   25  O   UNL     1      -5.668   4.070  68.943  1.00  0.00    -0.019 OA 
HETATM   26  C   UNL     1      -7.126   5.159  67.471  1.00  0.00    -0.066 A  
HETATM   27  C   UNL     1      -7.930   6.263  67.232  1.00  0.00    -0.109 A  
HETATM   28  C   UNL     1      -8.097   7.298  68.261  1.00  0.00    -0.124 C  
HETATM   29  C   UNL     1      -8.579   6.402  65.998  1.00  0.00    -0.149 A  
HETATM   30  C   UNL     1      -8.426   5.426  65.011  1.00  0.00    -0.150 A  
HETATM   31  O   UNL     1      -8.726   8.316  67.996  1.00  0.00    -0.134 OA 
HETATM   32  C   UNL     1      -7.621   4.313  65.254  1.00  0.00    -0.085 A  
HETATM   33  C   UNL     1      -6.971   4.178  66.481  1.00  0.00    -0.059 A  
ENDBRANCH  20  21
ENDBRANCH  18  20
ENDBRANCH  16  17
ENDBRANCH  15  16
ENDBRANCH  13  15
ENDBRANCH  10  11
ENDBRANCH   9  10
ENDBRANCH   5   6
ENDBRANCH   4   5
TORSDOF 9
ENDMDL
MODEL      244
REMARK 921   NORMALIZED FREE ENERGY PREDICTED BY IDOCK:   -4.20 KCAL/MOL
REMARK 922        TOTAL FREE ENERGY PREDICTED BY IDOCK:   -9.62 KCAL/MOL
REMARK 923 INTER-LIGAND FREE ENERGY PREDICTED BY IDOCK:   -6.24 KCAL/MOL
REMARK 924 INTRA-LIGAND FREE ENERGY PREDICTED BY IDOCK:   -3.37 KCAL/MOL
REMARK 927      BINDING AFFINITY PREDICTED BY RF-SCORE:    0.00 PKD
ROOT
HETATM    1  C   UNL     1     -10.929  16.252  67.445  1.00  0.00    -0.175 C  
HETATM    2  C   UNL     1      -9.545  15.684  67.138  1.00  0.00    -0.224 C  
HETATM    3  C   UNL     1      -8.753  16.680  66.284  1.00  0.00    -0.359 C  
HETATM    4  C   UNL     1      -8.829  15.326  68.454  1.00  0.00    -0.179 C  
ENDROOT
BRANCH   4   5
HETATM    5  C   UNL     1      -7.444  14.745  68.205  1.00  0.00    -0.119 C  
BRANCH   5   6
HETATM    6  C   UNL     1      -7.161  13.504  69.046  1.00  0.00    -0.066 C  
HETATM    7  C   UNL     1      -7.298  12.214  68.214  1.00  0.00    -0.100 C  
HETATM    8  C   UNL     1      -6.332  12.191  67.020  1.00  0.00    -0.096 C  
HETATM    9  C   UNL     1      -7.095  10.998  69.134  1.00  0.00    -0.116 C  
BRANCH   9  10
HETATM   10  C   UNL     1      -7.218   9.687  68.364  1.00  0.00    -0.074 C  
BRANCH  10  11
HETATM   11  C   UNL     1      -6.694   8.502  69.160  1.00  0.00    -0.047 C  
HETATM   12  C   UNL     1      -7.112   7.160  68.528  1.00  0.00    -0.081 C  
HETATM   13  C   UNL     1      -6.691   5.977  69.421  1.00  0.00    -0.060 C  
HETATM   14  C   UNL     1      -6.544   6.975  67.115  1.00  0.00    -0.055 C  
BRANCH  13  15
HETATM   15  C   UNL     1      -7.288   5.993  70.834  1.00  0.00    -0.082 C  
BRANCH  15  16
HETATM   16  C   UNL     1      -8.410   4.970  71.014  1.00  0.00    -0.118 C  
BRANCH  16  17
HETATM   17  C   UNL     1      -9.733   5.631  71.308  1.00  0.00    -0.211 C  
HETATM   18  C   UNL     1     -10.073   6.759  70.654  1.00  0.00    -0.204 C  
HETATM   19  C   UNL     1     -10.630   4.942  72.294  1.00  0.00    -0.251 C  
BRANCH  18  20
HETATM   20  C   UNL     1     -11.379   7.502  70.756  1.00  0.00    -0.300 C  
BRANCH  20  21
HETATM   21  C   UNL     1     -11.368   8.763  69.914  1.00  0.00     0.030 C  
HETATM   22  C   UNL     1     -11.769   9.978  70.344  1.00  0.00    -0.365 C  
HETATM   23  C   UNL     1     -12.339  10.280  71.705  1.00  0.00    -0.445 C  
HETATM   24  C   UNL     1     -11.648  11.181  69.470  1.00  0.00    -0.321 C  
HETATM   25  O   UNL     1     -12.050  12.275  69.841  1.00  0.00    -0.299 OA 
HETATM   26  C   UNL     1     -11.012  11.030  68.152  1.00  0.00    -0.301 A  
HETATM   27  C   UNL     1     -10.628   9.778  67.696  1.00  0.00    -0.333 A  
HETATM   28  C   UNL     1     -10.853   8.585  68.524  1.00  0.00     0.071 C  
HETATM   29  C   UNL     1     -10.032   9.644  66.436  1.00  0.00    -0.323 A  
HETATM   30  C   UNL     1      -9.816  10.771  65.639  1.00  0.00    -0.299 A  
HETATM   31  O   UNL     1     -10.602   7.477  68.064  1.00  0.00    -0.201 OA 
HETATM   32  C   UNL     1     -10.197  12.030  66.099  1.00  0.00    -0.255 A  
HETATM   33  C   UNL     1     -10.796  12.162  67.353  1.00  0.00    -0.286 A  
ENDBRANCH  20  21
ENDBRANCH  18  20
ENDBRANCH  16  17
ENDBRANCH  15  16
ENDBRANCH  13  15
ENDBRANCH  10  11
ENDBRANCH   9  10
ENDBRANCH   5   6
ENDBRANCH   4   5
TORSDOF 9
ENDMDL
MODEL      245
REMARK 921   NORMALIZED FREE ENERGY PREDICTED BY IDOCK:   -4.20 KCAL/MOL
REMARK 922        TOTAL FREE ENERGY PREDICTED BY IDOCK:   -9.61 KCAL/MOL
REMARK 923 INTER-LIGAND FREE ENERGY PREDICTED BY IDOCK:   -7.32 KCAL/MOL
REMARK 924 INTRA-LIGAND FREE ENERGY PREDICTED BY IDOCK:   -2.30 KCAL/MOL
REMARK 927      BINDING AFFINITY PREDICTED BY RF-SCORE:    0.00 PKD
ROOT
HETATM    1  C   UNL     1     -12.524  14.953  71.272  1.00  0.00    -0.396 C  
HETATM    2  C   UNL     1     -12.320  13.442  71.199  1.00  0.00    -0.348 C  
HETATM    3  C   UNL     1     -13.379  12.733  72.049  1.00  0.00    -0.565 C  
HETATM    4  C   UNL     1     -12.333  12.987  69.727  1.00  0.00    -0.141 C  
ENDROOT
BRANCH   4   5
HETATM    5  C   UNL     1     -12.124  11.485  69.597  1.00  0.00    -0.363 C  
BRANCH   5   6
HETATM    6  C   UNL     1     -10.706  11.119  69.169  1.00  0.00    -0.262 C  
HETATM    7  C   UNL     1     -10.669  10.604  67.717  1.00  0.00    -0.302 C  
HETATM    8  C   UNL     1     -11.195  11.649  66.721  1.00  0.00    -0.371 C  
HETATM    9  C   UNL     1      -9.234  10.165  67.375  1.00  0.00    -0.156 C  
BRANCH   9  10
HETATM   10  C   UNL     1      -9.134   9.646  65.945  1.00  0.00    -0.221 C  
BRANCH  10  11
HETATM   11  C   UNL     1      -7.823   8.920  65.687  1.00  0.00    -0.096 C  
HETATM   12  C   UNL     1      -7.915   7.991  64.461  1.00  0.00    -0.151 C  
HETATM   13  C   UNL     1      -6.626   7.163  64.300  1.00  0.00    -0.040 C  
HETATM   14  C   UNL     1      -8.208   8.758  63.165  1.00  0.00    -0.182 C  
BRANCH  13  15
HETATM   15  C   UNL     1      -6.283   6.266  65.496  1.00  0.00    -0.037 C  
BRANCH  15  16
HETATM   16  C   UNL     1      -6.335   4.777  65.152  1.00  0.00    -0.035 C  
BRANCH  16  17
HETATM   17  C   UNL     1      -7.436   4.064  65.896  1.00  0.00    -0.084 C  
HETATM   18  C   UNL     1      -8.540   4.745  66.261  1.00  0.00    -0.114 C  
HETATM   19  C   UNL     1      -7.249   2.596  66.139  1.00  0.00    -0.066 C  
BRANCH  18  20
HETATM   20  C   UNL     1      -9.768   4.182  66.929  1.00  0.00    -0.232 C  
BRANCH  20  21
HETATM   21  C   UNL     1     -10.029   4.849  68.265  1.00  0.00    -0.177 C  
HETATM   22  C   UNL     1     -10.645   6.040  68.420  1.00  0.00    -0.322 C  
HETATM   23  C   UNL     1     -11.128   6.929  67.305  1.00  0.00    -0.355 C  
HETATM   24  C   UNL     1     -10.931   6.585  69.780  1.00  0.00    -0.338 C  
HETATM   25  O   UNL     1     -11.449   7.684  69.925  1.00  0.00    -0.094 OA 
HETATM   26  C   UNL     1     -10.595   5.762  70.951  1.00  0.00    -0.329 A  
HETATM   27  C   UNL     1      -9.935   4.552  70.794  1.00  0.00    -0.269 A  
HETATM   28  C   UNL     1      -9.561   4.078  69.454  1.00  0.00    -0.187 C  
HETATM   29  C   UNL     1      -9.611   3.780  71.917  1.00  0.00    -0.220 A  
HETATM   30  C   UNL     1      -9.959   4.220  73.195  1.00  0.00    -0.191 A  
HETATM   31  O   UNL     1      -8.889   3.060  69.341  1.00  0.00    -0.074 OA 
HETATM   32  C   UNL     1     -10.627   5.434  73.353  1.00  0.00    -0.297 A  
HETATM   33  C   UNL     1     -10.944   6.206  72.235  1.00  0.00    -0.302 A  
ENDBRANCH  20  21
ENDBRANCH  18  20
ENDBRANCH  16  17
ENDBRANCH  15  16
ENDBRANCH  13  15
ENDBRANCH  10  11
ENDBRANCH   9  10
ENDBRANCH   5   6
ENDBRANCH   4   5
TORSDOF 9
ENDMDL
MODEL      246
REMARK 921   NORMALIZED FREE ENERGY PREDICTED BY IDOCK:   -4.19 KCAL/MOL
REMARK 922        TOTAL FREE ENERGY PREDICTED BY IDOCK:   -9.60 KCAL/MOL
REMARK 923 INTER-LIGAND FREE ENERGY PREDICTED BY IDOCK:   -8.89 KCAL/MOL
REMARK 924 INTRA-LIGAND FREE ENERGY PREDICTED BY IDOCK:   -0.71 KCAL/MOL
REMARK 927      BINDING AFFINITY PREDICTED BY RF-SCORE:    0.00 PKD
ROOT
HETATM    1  C   UNL     1     -12.221  13.313  65.157  1.00  0.00    -0.487 C  
HETATM    2  C   UNL     1     -11.658  12.137  64.362  1.00  0.00    -0.422 C  
HETATM    3  C   UNL     1     -12.618  11.774  63.224  1.00  0.00    -0.382 C  
HETATM    4  C   UNL     1     -10.242  12.480  63.862  1.00  0.00    -0.386 C  
ENDROOT
BRANCH   4   5
HETATM    5  C   UNL     1      -9.630  11.334  63.068  1.00  0.00    -0.397 C  
BRANCH   5   6
HETATM    6  C   UNL     1      -9.742   9.991  63.783  1.00  0.00    -0.065 C  
HETATM    7  C   UNL     1      -8.604   9.796  64.803  1.00  0.00    -0.195 C  
HETATM    8  C   UNL     1      -8.600  10.892  65.879  1.00  0.00    -0.179 C  
HETATM    9  C   UNL     1      -8.716   8.392  65.421  1.00  0.00    -0.175 C  
BRANCH   9  10
HETATM   10  C   UNL     1      -7.613   8.141  66.444  1.00  0.00    -0.091 C  
BRANCH  10  11
HETATM   11  C   UNL     1      -6.883   9.418  66.828  1.00  0.00    -0.080 C  
HETATM   12  C   UNL     1      -6.232   9.307  68.219  1.00  0.00    -0.053 C  
HETATM   13  C   UNL     1      -5.617  10.654  68.648  1.00  0.00    -0.040 C  
HETATM   14  C   UNL     1      -5.167   8.205  68.283  1.00  0.00    -0.033 C  
BRANCH  13  15
HETATM   15  C   UNL     1      -6.612  11.819  68.728  1.00  0.00    -0.074 C  
BRANCH  15  16
HETATM   16  C   UNL     1      -6.158  13.041  67.928  1.00  0.00    -0.131 C  
BRANCH  16  17
HETATM   17  C   UNL     1      -7.297  13.992  67.659  1.00  0.00    -0.188 C  
HETATM   18  C   UNL     1      -8.565  13.588  67.870  1.00  0.00    -0.182 C  
HETATM   19  C   UNL     1      -6.930  15.377  67.215  1.00  0.00    -0.180 C  
BRANCH  18  20
HETATM   20  C   UNL     1      -9.811  14.424  67.739  1.00  0.00    -0.221 C  
BRANCH  20  21
HETATM   21  C   UNL     1     -10.758  14.194  68.900  1.00  0.00    -0.270 C  
HETATM   22  C   UNL     1     -11.393  13.030  69.155  1.00  0.00    -0.328 C  
HETATM   23  C   UNL     1     -11.314  11.787  68.310  1.00  0.00    -0.343 C  
HETATM   24  C   UNL     1     -12.247  12.871  70.368  1.00  0.00    -0.304 C  
HETATM   25  O   UNL     1     -12.859  11.832  70.579  1.00  0.00    -0.094 OA 
HETATM   26  C   UNL     1     -12.323  13.985  71.324  1.00  0.00    -0.436 A  
HETATM   27  C   UNL     1     -11.696  15.191  71.049  1.00  0.00    -0.385 A  
HETATM   28  C   UNL     1     -10.949  15.372  69.797  1.00  0.00    -0.287 C  
HETATM   29  C   UNL     1     -11.783  16.250  71.963  1.00  0.00    -0.528 A  
HETATM   30  C   UNL     1     -12.493  16.091  73.155  1.00  0.00    -0.633 A  
HETATM   31  O   UNL     1     -10.488  16.474  69.524  1.00  0.00    -0.298 OA 
HETATM   32  C   UNL     1     -13.120  14.877  73.434  1.00  0.00    -0.506 A  
HETATM   33  C   UNL     1     -13.037  13.824  72.521  1.00  0.00    -0.517 A  
ENDBRANCH  20  21
ENDBRANCH  18  20
ENDBRANCH  16  17
ENDBRANCH  15  16
ENDBRANCH  13  15
ENDBRANCH  10  11
ENDBRANCH   9  10
ENDBRANCH   5   6
ENDBRANCH   4   5
TORSDOF 9
ENDMDL
MODEL      247
REMARK 921   NORMALIZED FREE ENERGY PREDICTED BY IDOCK:   -4.17 KCAL/MOL
REMARK 922        TOTAL FREE ENERGY PREDICTED BY IDOCK:   -9.57 KCAL/MOL
REMARK 923 INTER-LIGAND FREE ENERGY PREDICTED BY IDOCK:   -8.01 KCAL/MOL
REMARK 924 INTRA-LIGAND FREE ENERGY PREDICTED BY IDOCK:   -1.56 KCAL/MOL
REMARK 927      BINDING AFFINITY PREDICTED BY RF-SCORE:    0.00 PKD
ROOT
HETATM    1  C   UNL     1      -9.206  17.408  66.479  1.00  0.00    -0.286 C  
HETATM    2  C   UNL     1     -10.501  16.600  66.495  1.00  0.00    -0.262 C  
HETATM    3  C   UNL     1     -10.878  16.195  65.065  1.00  0.00    -0.380 C  
HETATM    4  C   UNL     1     -10.346  15.390  67.436  1.00  0.00    -0.262 C  
ENDROOT
BRANCH   4   5
HETATM    5  C   UNL     1     -11.616  14.553  67.495  1.00  0.00    -0.403 C  
BRANCH   5   6
HETATM    6  C   UNL     1     -11.832  13.898  68.856  1.00  0.00    -0.393 C  
HETATM    7  C   UNL     1     -11.726  12.363  68.769  1.00  0.00    -0.379 C  
HETATM    8  C   UNL     1     -10.352  11.909  68.252  1.00  0.00    -0.211 C  
HETATM    9  C   UNL     1     -12.044  11.758  70.147  1.00  0.00    -0.398 C  
BRANCH   9  10
HETATM   10  C   UNL     1     -11.952  10.235  70.123  1.00  0.00    -0.313 C  
BRANCH  10  11
HETATM   11  C   UNL     1     -11.405   9.672  71.425  1.00  0.00    -0.444 C  
HETATM   12  C   UNL     1     -10.177   8.773  71.188  1.00  0.00    -0.316 C  
HETATM   13  C   UNL     1      -9.724   8.103  72.500  1.00  0.00    -0.357 C  
HETATM   14  C   UNL     1      -9.004   9.536  70.559  1.00  0.00    -0.265 C  
BRANCH  13  15
HETATM   15  C   UNL     1     -10.783   7.219  73.171  1.00  0.00    -0.411 C  
BRANCH  15  16
HETATM   16  C   UNL     1     -11.388   6.192  72.213  1.00  0.00    -0.346 C  
BRANCH  16  17
HETATM   17  C   UNL     1     -10.359   5.205  71.722  1.00  0.00    -0.274 C  
HETATM   18  C   UNL     1     -10.136   5.079  70.399  1.00  0.00    -0.330 C  
HETATM   19  C   UNL     1      -9.593   4.449  72.767  1.00  0.00    -0.171 C  
BRANCH  18  20
HETATM   20  C   UNL     1      -9.094   4.215  69.738  1.00  0.00    -0.176 C  
BRANCH  20  21
HETATM   21  C   UNL     1      -9.086   4.408  68.235  1.00  0.00    -0.165 C  
HETATM   22  C   UNL     1      -8.816   5.575  67.612  1.00  0.00    -0.105 C  
HETATM   23  C   UNL     1      -8.530   6.887  68.295  1.00  0.00    -0.125 C  
HETATM   24  C   UNL     1      -8.752   5.654  66.123  1.00  0.00    -0.136 C  
HETATM   25  O   UNL     1      -8.551   6.719  65.554  1.00  0.00    -0.147 OA 
HETATM   26  C   UNL     1      -8.915   4.417  65.346  1.00  0.00    -0.137 A  
HETATM   27  C   UNL     1      -9.222   3.223  65.983  1.00  0.00    -0.151 A  
HETATM   28  C   UNL     1      -9.391   3.181  67.442  1.00  0.00    -0.191 C  
HETATM   29  C   UNL     1      -9.385   2.051  65.232  1.00  0.00    -0.007 A  
HETATM   30  C   UNL     1      -9.230   2.080  63.845  1.00  0.00    -0.110 A  
HETATM   31  O   UNL     1      -9.763   2.142  67.976  1.00  0.00    -0.134 OA 
HETATM   32  C   UNL     1      -8.916   3.278  63.205  1.00  0.00    -0.092 A  
HETATM   33  C   UNL     1      -8.759   4.447  63.953  1.00  0.00    -0.133 A  
ENDBRANCH  20  21
ENDBRANCH  18  20
ENDBRANCH  16  17
ENDBRANCH  15  16
ENDBRANCH  13  15
ENDBRANCH  10  11
ENDBRANCH   9  10
ENDBRANCH   5   6
ENDBRANCH   4   5
TORSDOF 9
ENDMDL
MODEL      248
REMARK 921   NORMALIZED FREE ENERGY PREDICTED BY IDOCK:   -4.14 KCAL/MOL
REMARK 922        TOTAL FREE ENERGY PREDICTED BY IDOCK:   -9.52 KCAL/MOL
REMARK 923 INTER-LIGAND FREE ENERGY PREDICTED BY IDOCK:   -7.53 KCAL/MOL
REMARK 924 INTRA-LIGAND FREE ENERGY PREDICTED BY IDOCK:   -1.99 KCAL/MOL
REMARK 927      BINDING AFFINITY PREDICTED BY RF-SCORE:    0.00 PKD
ROOT
HETATM    1  C   UNL     1     -10.330  10.407  65.720  1.00  0.00    -0.257 C  
HETATM    2  C   UNL     1     -10.459  11.733  64.974  1.00  0.00    -0.332 C  
HETATM    3  C   UNL     1      -9.990  11.559  63.525  1.00  0.00    -0.429 C  
HETATM    4  C   UNL     1     -11.908  12.246  65.075  1.00  0.00    -0.412 C  
ENDROOT
BRANCH   4   5
HETATM    5  C   UNL     1     -12.090  13.574  64.352  1.00  0.00    -0.468 C  
BRANCH   5   6
HETATM    6  C   UNL     1     -10.975  14.571  64.655  1.00  0.00    -0.351 C  
HETATM    7  C   UNL     1     -11.390  15.564  65.757  1.00  0.00    -0.039 C  
HETATM    8  C   UNL     1     -11.742  14.853  67.073  1.00  0.00    -0.274 C  
HETATM    9  C   UNL     1     -10.267  16.598  65.952  1.00  0.00    -0.358 C  
BRANCH   9  10
HETATM   10  C   UNL     1     -10.620  17.610  67.036  1.00  0.00    -0.254 C  
BRANCH  10  11
HETATM   11  C   UNL     1      -9.524  17.739  68.082  1.00  0.00    -0.282 C  
HETATM   12  C   UNL     1      -8.483  18.805  67.691  1.00  0.00    -0.292 C  
HETATM   13  C   UNL     1      -7.311  18.823  68.692  1.00  0.00    -0.335 C  
HETATM   14  C   UNL     1      -9.094  20.208  67.579  1.00  0.00    -0.465 C  
BRANCH  13  15
HETATM   15  C   UNL     1      -6.547  17.498  68.812  1.00  0.00    -0.216 C  
BRANCH  15  16
HETATM   16  C   UNL     1      -7.395  16.380  69.420  1.00  0.00    -0.150 C  
BRANCH  16  17
HETATM   17  C   UNL     1      -7.612  15.246  68.449  1.00  0.00    -0.116 C  
HETATM   18  C   UNL     1      -8.411  14.218  68.795  1.00  0.00    -0.094 C  
HETATM   19  C   UNL     1      -6.952  15.368  67.108  1.00  0.00    -0.085 C  
BRANCH  18  20
HETATM   20  C   UNL     1      -8.809  13.053  67.927  1.00  0.00    -0.193 C  
BRANCH  20  21
HETATM   21  C   UNL     1      -9.190  11.845  68.760  1.00  0.00     0.025 C  
HETATM   22  C   UNL     1     -10.452  11.527  69.119  1.00  0.00    -0.135 C  
HETATM   23  C   UNL     1     -11.683  12.334  68.801  1.00  0.00    -0.390 C  
HETATM   24  C   UNL     1     -10.743  10.273  69.874  1.00  0.00    -0.294 C  
HETATM   25  O   UNL     1     -11.880  10.004  70.239  1.00  0.00    -0.252 OA 
HETATM   26  C   UNL     1      -9.634   9.350  70.157  1.00  0.00    -0.275 A  
HETATM   27  C   UNL     1      -8.333   9.690  69.816  1.00  0.00    -0.183 A  
HETATM   28  C   UNL     1      -8.046  10.978  69.170  1.00  0.00    -0.061 C  
HETATM   29  C   UNL     1      -7.282   8.807  70.098  1.00  0.00    -0.054 A  
HETATM   30  C   UNL     1      -7.542   7.581  70.714  1.00  0.00    -0.081 A  
HETATM   31  O   UNL     1      -6.882  11.306  68.969  1.00  0.00    -0.081 OA 
HETATM   32  C   UNL     1      -8.850   7.238  71.052  1.00  0.00    -0.144 A  
HETATM   33  C   UNL     1      -9.896   8.119  70.776  1.00  0.00    -0.201 A  
ENDBRANCH  20  21
ENDBRANCH  18  20
ENDBRANCH  16  17
ENDBRANCH  15  16
ENDBRANCH  13  15
ENDBRANCH  10  11
ENDBRANCH   9  10
ENDBRANCH   5   6
ENDBRANCH   4   5
TORSDOF 9
ENDMDL
MODEL      249
REMARK 921   NORMALIZED FREE ENERGY PREDICTED BY IDOCK:   -4.13 KCAL/MOL
REMARK 922        TOTAL FREE ENERGY PREDICTED BY IDOCK:   -9.50 KCAL/MOL
REMARK 923 INTER-LIGAND FREE ENERGY PREDICTED BY IDOCK:   -6.55 KCAL/MOL
REMARK 924 INTRA-LIGAND FREE ENERGY PREDICTED BY IDOCK:   -2.95 KCAL/MOL
REMARK 927      BINDING AFFINITY PREDICTED BY RF-SCORE:    0.00 PKD
ROOT
HETATM    1  C   UNL     1      -6.848   7.617  70.279  1.00  0.00    -0.047 C  
HETATM    2  C   UNL     1      -6.750   9.082  70.696  1.00  0.00    -0.064 C  
HETATM    3  C   UNL     1      -5.706   9.237  71.807  1.00  0.00    -0.071 C  
HETATM    4  C   UNL     1      -6.442   9.953  69.463  1.00  0.00    -0.048 C  
ENDROOT
BRANCH   4   5
HETATM    5  C   UNL     1      -6.343  11.429  69.823  1.00  0.00    -0.139 C  
BRANCH   5   6
HETATM    6  C   UNL     1      -6.208  12.330  68.599  1.00  0.00    -0.067 C  
HETATM    7  C   UNL     1      -6.918  13.681  68.812  1.00  0.00    -0.106 C  
HETATM    8  C   UNL     1      -6.348  14.449  70.014  1.00  0.00    -0.160 C  
HETATM    9  C   UNL     1      -6.829  14.506  67.516  1.00  0.00    -0.168 C  
BRANCH   9  10
HETATM   10  C   UNL     1      -7.514  15.860  67.666  1.00  0.00    -0.174 C  
BRANCH  10  11
HETATM   11  C   UNL     1      -8.983  15.808  67.276  1.00  0.00    -0.211 C  
HETATM   12  C   UNL     1      -9.903  16.112  68.473  1.00  0.00    -0.226 C  
HETATM   13  C   UNL     1     -11.384  15.919  68.091  1.00  0.00    -0.311 C  
HETATM   14  C   UNL     1      -9.690  17.523  69.034  1.00  0.00    -0.187 C  
BRANCH  13  15
HETATM   15  C   UNL     1     -11.747  14.506  67.616  1.00  0.00    -0.410 C  
BRANCH  15  16
HETATM   16  C   UNL     1     -11.831  14.399  66.092  1.00  0.00    -0.391 C  
BRANCH  16  17
HETATM   17  C   UNL     1     -11.143  13.160  65.577  1.00  0.00    -0.299 C  
HETATM   18  C   UNL     1      -9.935  12.818  66.066  1.00  0.00    -0.277 C  
HETATM   19  C   UNL     1     -11.893  12.340  64.568  1.00  0.00    -0.441 C  
BRANCH  18  20
HETATM   20  C   UNL     1      -9.146  11.578  65.734  1.00  0.00    -0.164 C  
BRANCH  20  21
HETATM   21  C   UNL     1      -9.469  10.444  66.685  1.00  0.00    -0.199 C  
HETATM   22  C   UNL     1      -9.732  10.596  68.001  1.00  0.00    -0.170 C  
HETATM   23  C   UNL     1      -9.701  11.899  68.755  1.00  0.00    -0.051 C  
HETATM   24  C   UNL     1     -10.119   9.429  68.847  1.00  0.00    -0.190 C  
HETATM   25  O   UNL     1     -10.316   9.556  70.048  1.00  0.00    -0.212 OA 
HETATM   26  C   UNL     1     -10.281   8.117  68.202  1.00  0.00    -0.253 A  
HETATM   27  C   UNL     1      -9.981   7.953  66.858  1.00  0.00    -0.332 A  
HETATM   28  C   UNL     1      -9.496   9.088  66.061  1.00  0.00    -0.256 C  
HETATM   29  C   UNL     1     -10.130   6.697  66.256  1.00  0.00     0.055 A  
HETATM   30  C   UNL     1     -10.587   5.610  67.004  1.00  0.00    -0.358 A  
HETATM   31  O   UNL     1      -9.139   8.903  64.903  1.00  0.00    -0.143 OA 
HETATM   32  C   UNL     1     -10.893   5.776  68.354  1.00  0.00    -0.251 A  
HETATM   33  C   UNL     1     -10.740   7.027  68.955  1.00  0.00    -0.227 A  
ENDBRANCH  20  21
ENDBRANCH  18  20
ENDBRANCH  16  17
ENDBRANCH  15  16
ENDBRANCH  13  15
ENDBRANCH  10  11
ENDBRANCH   9  10
ENDBRANCH   5   6
ENDBRANCH   4   5
TORSDOF 9
ENDMDL
MODEL      250
REMARK 921   NORMALIZED FREE ENERGY PREDICTED BY IDOCK:   -4.13 KCAL/MOL
REMARK 922        TOTAL FREE ENERGY PREDICTED BY IDOCK:   -9.50 KCAL/MOL
REMARK 923 INTER-LIGAND FREE ENERGY PREDICTED BY IDOCK:   -8.20 KCAL/MOL
REMARK 924 INTRA-LIGAND FREE ENERGY PREDICTED BY IDOCK:   -1.30 KCAL/MOL
REMARK 927      BINDING AFFINITY PREDICTED BY RF-SCORE:    0.00 PKD
ROOT
HETATM    1  C   UNL     1      -8.401  16.834  66.299  1.00  0.00    -0.353 C  
HETATM    2  C   UNL     1      -9.813  16.326  66.585  1.00  0.00    -0.265 C  
HETATM    3  C   UNL     1     -10.240  15.341  65.492  1.00  0.00    -0.417 C  
HETATM    4  C   UNL     1      -9.867  15.712  67.997  1.00  0.00    -0.209 C  
ENDROOT
BRANCH   4   5
HETATM    5  C   UNL     1     -11.259  15.197  68.337  1.00  0.00    -0.307 C  
BRANCH   5   6
HETATM    6  C   UNL     1     -11.255  14.191  69.482  1.00  0.00    -0.267 C  
HETATM    7  C   UNL     1     -12.035  12.913  69.115  1.00  0.00    -0.308 C  
HETATM    8  C   UNL     1     -11.445  12.211  67.883  1.00  0.00    -0.392 C  
HETATM    9  C   UNL     1     -12.076  11.980  70.337  1.00  0.00    -0.407 C  
BRANCH   9  10
HETATM   10  C   UNL     1     -12.836  10.693  70.033  1.00  0.00    -0.067 C  
BRANCH  10  11
HETATM   11  C   UNL     1     -12.196   9.479  70.686  1.00  0.00    -0.191 C  
HETATM   12  C   UNL     1     -12.688   9.282  72.133  1.00  0.00    -0.465 C  
HETATM   13  C   UNL     1     -11.927   8.132  72.822  1.00  0.00    -0.252 C  
HETATM   14  C   UNL     1     -14.199   9.026  72.209  1.00  0.00    -0.432 C  
BRANCH  13  15
HETATM   15  C   UNL     1     -10.407   8.326  72.905  1.00  0.00    -0.241 C  
BRANCH  15  16
HETATM   16  C   UNL     1      -9.719   7.248  73.744  1.00  0.00    -0.344 C  
BRANCH  16  17
HETATM   17  C   UNL     1      -9.884   5.876  73.142  1.00  0.00    -0.176 C  
HETATM   18  C   UNL     1      -9.421   5.634  71.900  1.00  0.00    -0.171 C  
HETATM   19  C   UNL     1     -10.520   4.829  74.008  1.00  0.00    -0.328 C  
BRANCH  18  20
HETATM   20  C   UNL     1      -9.420   4.312  71.178  1.00  0.00    -0.233 C  
BRANCH  20  21
HETATM   21  C   UNL     1      -9.517   4.499  69.677  1.00  0.00    -0.244 C  
HETATM   22  C   UNL     1     -10.335   5.381  69.064  1.00  0.00    -0.282 C  
HETATM   23  C   UNL     1     -11.321   6.286  69.753  1.00  0.00    -0.506 C  
HETATM   24  C   UNL     1     -10.306   5.553  67.581  1.00  0.00    -0.200 C  
HETATM   25  O   UNL     1     -11.076   6.319  67.019  1.00  0.00    -0.362 OA 
HETATM   26  C   UNL     1      -9.312   4.795  66.806  1.00  0.00    -0.148 A  
HETATM   27  C   UNL     1      -8.493   3.867  67.431  1.00  0.00    -0.103 A  
HETATM   28  C   UNL     1      -8.607   3.628  68.876  1.00  0.00    -0.085 C  
HETATM   29  C   UNL     1      -7.556   3.143  66.681  1.00  0.00    -0.076 A  
HETATM   30  C   UNL     1      -7.440   3.360  65.306  1.00  0.00    -0.076 A  
HETATM   31  O   UNL     1      -7.948   2.733  69.393  1.00  0.00    -0.045 OA 
HETATM   32  C   UNL     1      -8.261   4.296  64.679  1.00  0.00    -0.104 A  
HETATM   33  C   UNL     1      -9.197   5.013  65.426  1.00  0.00    -0.144 A  
ENDBRANCH  20  21
ENDBRANCH  18  20
ENDBRANCH  16  17
ENDBRANCH  15  16
ENDBRANCH  13  15
ENDBRANCH  10  11
ENDBRANCH   9  10
ENDBRANCH   5   6
ENDBRANCH   4   5
TORSDOF 9
ENDMDL
MODEL      251
REMARK 921   NORMALIZED FREE ENERGY PREDICTED BY IDOCK:   -4.12 KCAL/MOL
REMARK 922        TOTAL FREE ENERGY PREDICTED BY IDOCK:   -9.50 KCAL/MOL
REMARK 923 INTER-LIGAND FREE ENERGY PREDICTED BY IDOCK:   -8.37 KCAL/MOL
REMARK 924 INTRA-LIGAND FREE ENERGY PREDICTED BY IDOCK:   -1.12 KCAL/MOL
REMARK 927      BINDING AFFINITY PREDICTED BY RF-SCORE:    0.00 PKD
ROOT
HETATM    1  C   UNL     1      -5.129  11.396  70.694  1.00  0.00    -0.107 C  
HETATM    2  C   UNL     1      -6.085  12.555  70.420  1.00  0.00    -0.014 C  
HETATM    3  C   UNL     1      -5.603  13.809  71.156  1.00  0.00    -0.217 C  
HETATM    4  C   UNL     1      -6.218  12.768  68.900  1.00  0.00    -0.085 C  
ENDROOT
BRANCH   4   5
HETATM    5  C   UNL     1      -7.170  13.910  68.571  1.00  0.00    -0.107 C  
BRANCH   5   6
HETATM    6  C   UNL     1      -6.714  14.736  67.372  1.00  0.00    -0.060 C  
HETATM    7  C   UNL     1      -6.793  16.247  67.664  1.00  0.00    -0.165 C  
HETATM    8  C   UNL     1      -5.918  16.650  68.861  1.00  0.00    -0.149 C  
HETATM    9  C   UNL     1      -6.412  17.026  66.393  1.00  0.00    -0.176 C  
BRANCH   9  10
HETATM   10  C   UNL     1      -6.470  18.532  66.621  1.00  0.00    -0.209 C  
BRANCH  10  11
HETATM   11  C   UNL     1      -7.897  19.040  66.753  1.00  0.00    -0.263 C  
HETATM   12  C   UNL     1      -8.292  19.257  68.226  1.00  0.00    -0.373 C  
HETATM   13  C   UNL     1      -9.781  19.637  68.346  1.00  0.00    -0.497 C  
HETATM   14  C   UNL     1      -7.426  20.318  68.916  1.00  0.00     0.071 C  
BRANCH  13  15
HETATM   15  C   UNL     1     -10.758  18.596  67.786  1.00  0.00    -0.394 C  
BRANCH  15  16
HETATM   16  C   UNL     1     -10.498  18.272  66.314  1.00  0.00    -0.397 C  
BRANCH  16  17
HETATM   17  C   UNL     1     -10.644  16.799  66.027  1.00  0.00    -0.232 C  
HETATM   18  C   UNL     1     -10.407  15.904  67.007  1.00  0.00    -0.297 C  
HETATM   19  C   UNL     1     -11.109  16.420  64.652  1.00  0.00    -0.202 C  
BRANCH  18  20
HETATM   20  C   UNL     1     -10.586  14.411  66.926  1.00  0.00    -0.278 C  
BRANCH  20  21
HETATM   21  C   UNL     1     -11.210  13.857  68.193  1.00  0.00    -0.293 C  
HETATM   22  C   UNL     1     -11.061  12.589  68.631  1.00  0.00    -0.305 C  
HETATM   23  C   UNL     1     -10.303  11.500  67.920  1.00  0.00    -0.203 C  
HETATM   24  C   UNL     1     -11.647  12.153  69.933  1.00  0.00    -0.221 C  
HETATM   25  O   UNL     1     -11.552  10.993  70.312  1.00  0.00    -0.306 OA 
HETATM   26  C   UNL     1     -12.327  13.154  70.767  1.00  0.00    -0.404 A  
HETATM   27  C   UNL     1     -12.507  14.450  70.305  1.00  0.00    -0.413 A  
HETATM   28  C   UNL     1     -12.020  14.837  68.973  1.00  0.00    -0.273 C  
HETATM   29  C   UNL     1     -13.164  15.393  71.104  1.00  0.00    -0.583 A  
HETATM   30  C   UNL     1     -13.633  15.036  72.370  1.00  0.00    -0.565 A  
HETATM   31  O   UNL     1     -12.278  15.955  68.540  1.00  0.00    -0.075 OA 
HETATM   32  C   UNL     1     -13.448  13.735  72.837  1.00  0.00    -0.314 A  
HETATM   33  C   UNL     1     -12.798  12.794  72.038  1.00  0.00    -0.269 A  
ENDBRANCH  20  21
ENDBRANCH  18  20
ENDBRANCH  16  17
ENDBRANCH  15  16
ENDBRANCH  13  15
ENDBRANCH  10  11
ENDBRANCH   9  10
ENDBRANCH   5   6
ENDBRANCH   4   5
TORSDOF 9
ENDMDL
MODEL      252
REMARK 921   NORMALIZED FREE ENERGY PREDICTED BY IDOCK:   -4.12 KCAL/MOL
REMARK 922        TOTAL FREE ENERGY PREDICTED BY IDOCK:   -9.49 KCAL/MOL
REMARK 923 INTER-LIGAND FREE ENERGY PREDICTED BY IDOCK:   -7.43 KCAL/MOL
REMARK 924 INTRA-LIGAND FREE ENERGY PREDICTED BY IDOCK:   -2.06 KCAL/MOL
REMARK 927      BINDING AFFINITY PREDICTED BY RF-SCORE:    0.00 PKD
ROOT
HETATM    1  C   UNL     1     -12.444  13.684  71.171  1.00  0.00    -0.442 C  
HETATM    2  C   UNL     1     -12.190  13.408  69.691  1.00  0.00    -0.279 C  
HETATM    3  C   UNL     1     -11.164  14.406  69.145  1.00  0.00    -0.300 C  
HETATM    4  C   UNL     1     -11.754  11.941  69.504  1.00  0.00    -0.410 C  
ENDROOT
BRANCH   4   5
HETATM    5  C   UNL     1     -11.496  11.610  68.041  1.00  0.00    -0.385 C  
BRANCH   5   6
HETATM    6  C   UNL     1     -10.302  10.681  67.845  1.00  0.00    -0.231 C  
HETATM    7  C   UNL     1      -9.334  11.223  66.775  1.00  0.00    -0.191 C  
HETATM    8  C   UNL     1      -8.784  12.609  67.144  1.00  0.00    -0.201 C  
HETATM    9  C   UNL     1      -8.204  10.202  66.556  1.00  0.00    -0.124 C  
BRANCH   9  10
HETATM   10  C   UNL     1      -7.209  10.686  65.506  1.00  0.00    -0.052 C  
BRANCH  10  11
HETATM   11  C   UNL     1      -7.036   9.686  64.374  1.00  0.00    -0.118 C  
HETATM   12  C   UNL     1      -8.381   9.067  63.948  1.00  0.00    -0.178 C  
HETATM   13  C   UNL     1      -8.168   7.958  62.898  1.00  0.00    -0.067 C  
HETATM   14  C   UNL     1      -9.364  10.113  63.408  1.00  0.00    -0.334 C  
BRANCH  13  15
HETATM   15  C   UNL     1      -7.285   6.793  63.362  1.00  0.00    -0.065 C  
BRANCH  15  16
HETATM   16  C   UNL     1      -7.298   6.610  64.880  1.00  0.00    -0.080 C  
BRANCH  16  17
HETATM   17  C   UNL     1      -8.324   5.595  65.316  1.00  0.00    -0.146 C  
HETATM   18  C   UNL     1      -8.765   5.599  66.590  1.00  0.00    -0.118 C  
HETATM   19  C   UNL     1      -8.842   4.660  64.263  1.00  0.00    -0.146 C  
BRANCH  18  20
HETATM   20  C   UNL     1      -9.842   4.723  67.174  1.00  0.00    -0.222 C  
BRANCH  20  21
HETATM   21  C   UNL     1     -10.152   5.107  68.607  1.00  0.00    -0.220 C  
HETATM   22  C   UNL     1      -9.857   4.350  69.686  1.00  0.00    -0.272 C  
HETATM   23  C   UNL     1      -9.222   2.985  69.651  1.00  0.00    -0.219 C  
HETATM   24  C   UNL     1     -10.128   4.844  71.068  1.00  0.00    -0.218 C  
HETATM   25  O   UNL     1      -9.902   4.143  72.045  1.00  0.00    -0.158 OA 
HETATM   26  C   UNL     1     -10.656   6.206  71.236  1.00  0.00    -0.295 A  
HETATM   27  C   UNL     1     -10.988   6.972  70.129  1.00  0.00    -0.306 A  
HETATM   28  C   UNL     1     -10.818   6.432  68.773  1.00  0.00    -0.317 C  
HETATM   29  C   UNL     1     -11.499   8.266  70.300  1.00  0.00    -0.065 A  
HETATM   30  C   UNL     1     -11.667   8.789  71.583  1.00  0.00    -0.402 A  
HETATM   31  O   UNL     1     -11.212   7.082  67.811  1.00  0.00    -0.125 OA 
HETATM   32  C   UNL     1     -11.329   8.021  72.697  1.00  0.00    -0.469 A  
HETATM   33  C   UNL     1     -10.824   6.730  72.526  1.00  0.00    -0.271 A  
ENDBRANCH  20  21
ENDBRANCH  18  20
ENDBRANCH  16  17
ENDBRANCH  15  16
ENDBRANCH  13  15
ENDBRANCH  10  11
ENDBRANCH   9  10
ENDBRANCH   5   6
ENDBRANCH   4   5
TORSDOF 9
ENDMDL
MODEL      253
REMARK 921   NORMALIZED FREE ENERGY PREDICTED BY IDOCK:   -4.11 KCAL/MOL
REMARK 922        TOTAL FREE ENERGY PREDICTED BY IDOCK:   -9.48 KCAL/MOL
REMARK 923 INTER-LIGAND FREE ENERGY PREDICTED BY IDOCK:   -8.15 KCAL/MOL
REMARK 924 INTRA-LIGAND FREE ENERGY PREDICTED BY IDOCK:   -1.33 KCAL/MOL
REMARK 927      BINDING AFFINITY PREDICTED BY RF-SCORE:    0.00 PKD
ROOT
HETATM    1  C   UNL     1      -8.383   3.691  68.637  1.00  0.00    -0.093 C  
HETATM    2  C   UNL     1      -8.947   3.200  69.968  1.00  0.00    -0.170 C  
HETATM    3  C   UNL     1      -9.526   1.791  69.797  1.00  0.00    -0.124 C  
HETATM    4  C   UNL     1      -7.855   3.270  71.052  1.00  0.00    -0.050 C  
ENDROOT
BRANCH   4   5
HETATM    5  C   UNL     1      -8.370   2.798  72.405  1.00  0.00    -0.066 C  
BRANCH   5   6
HETATM    6  C   UNL     1      -8.463   3.924  73.429  1.00  0.00    -0.088 C  
HETATM    7  C   UNL     1      -9.465   5.008  72.987  1.00  0.00    -0.156 C  
HETATM    8  C   UNL     1     -10.880   4.443  72.794  1.00  0.00    -0.214 C  
HETATM    9  C   UNL     1      -9.446   6.158  74.010  1.00  0.00    -0.163 C  
BRANCH   9  10
HETATM   10  C   UNL     1     -10.423   7.264  73.626  1.00  0.00    -0.391 C  
BRANCH  10  11
HETATM   11  C   UNL     1     -10.304   7.654  72.161  1.00  0.00    -0.270 C  
HETATM   12  C   UNL     1      -9.297   8.802  71.955  1.00  0.00    -0.343 C  
HETATM   13  C   UNL     1      -9.294   9.274  70.487  1.00  0.00    -0.316 C  
HETATM   14  C   UNL     1      -7.875   8.419  72.382  1.00  0.00    -0.155 C  
BRANCH  13  15
HETATM   15  C   UNL     1     -10.645   9.787  69.973  1.00  0.00    -0.320 C  
BRANCH  15  16
HETATM   16  C   UNL     1     -11.224   8.914  68.859  1.00  0.00     0.291 C  
BRANCH  16  17
HETATM   17  C   UNL     1     -10.575   9.196  67.528  1.00  0.00    -0.317 C  
HETATM   18  C   UNL     1     -10.785  10.382  66.924  1.00  0.00    -0.272 C  
HETATM   19  C   UNL     1      -9.672   8.132  66.976  1.00  0.00    -0.275 C  
BRANCH  18  20
HETATM   20  C   UNL     1     -10.154  10.867  65.645  1.00  0.00    -0.318 C  
BRANCH  20  21
HETATM   21  C   UNL     1     -10.428  12.340  65.415  1.00  0.00    -0.302 C  
HETATM   22  C   UNL     1     -11.402  12.824  64.615  1.00  0.00    -0.362 C  
HETATM   23  C   UNL     1     -12.343  11.996  63.781  1.00  0.00    -0.602 C  
HETATM   24  C   UNL     1     -11.650  14.292  64.510  1.00  0.00    -0.387 C  
HETATM   25  O   UNL     1     -12.502  14.737  63.753  1.00  0.00    -0.782 OA 
HETATM   26  C   UNL     1     -10.859  15.200  65.355  1.00  0.00    -0.393 A  
HETATM   27  C   UNL     1      -9.839  14.707  66.153  1.00  0.00    -0.334 A  
HETATM   28  C   UNL     1      -9.533  13.270  66.165  1.00  0.00    -0.139 C  
HETATM   29  C   UNL     1      -9.086  15.581  66.947  1.00  0.00    -0.264 A  
HETATM   30  C   UNL     1      -9.366  16.950  66.943  1.00  0.00    -0.254 A  
HETATM   31  O   UNL     1      -8.563  12.865  66.796  1.00  0.00    -0.168 OA 
HETATM   32  C   UNL     1     -10.395  17.445  66.144  1.00  0.00    -0.329 A  
HETATM   33  C   UNL     1     -11.142  16.574  65.349  1.00  0.00    -0.021 A  
ENDBRANCH  20  21
ENDBRANCH  18  20
ENDBRANCH  16  17
ENDBRANCH  15  16
ENDBRANCH  13  15
ENDBRANCH  10  11
ENDBRANCH   9  10
ENDBRANCH   5   6
ENDBRANCH   4   5
TORSDOF 9
ENDMDL
MODEL      254
REMARK 921   NORMALIZED FREE ENERGY PREDICTED BY IDOCK:   -4.10 KCAL/MOL
REMARK 922        TOTAL FREE ENERGY PREDICTED BY IDOCK:   -9.46 KCAL/MOL
REMARK 923 INTER-LIGAND FREE ENERGY PREDICTED BY IDOCK:   -8.36 KCAL/MOL
REMARK 924 INTRA-LIGAND FREE ENERGY PREDICTED BY IDOCK:   -1.10 KCAL/MOL
REMARK 927      BINDING AFFINITY PREDICTED BY RF-SCORE:    0.00 PKD
ROOT
HETATM    1  C   UNL     1      -7.425  20.284  66.740  1.00  0.00    -0.333 C  
HETATM    2  C   UNL     1      -7.954  19.270  67.751  1.00  0.00    -0.312 C  
HETATM    3  C   UNL     1      -7.115  19.329  69.032  1.00  0.00    -0.391 C  
HETATM    4  C   UNL     1      -9.452  19.525  68.006  1.00  0.00    -0.424 C  
ENDROOT
BRANCH   4   5
HETATM    5  C   UNL     1     -10.033  18.531  69.003  1.00  0.00    -0.323 C  
BRANCH   5   6
HETATM    6  C   UNL     1     -10.699  17.336  68.330  1.00  0.00    -0.332 C  
HETATM    7  C   UNL     1     -10.654  16.084  69.227  1.00  0.00    -0.265 C  
HETATM    8  C   UNL     1     -11.364  16.311  70.571  1.00  0.00    -0.318 C  
HETATM    9  C   UNL     1     -11.254  14.893  68.461  1.00  0.00    -0.292 C  
BRANCH   9  10
HETATM   10  C   UNL     1     -11.239  13.621  69.302  1.00  0.00    -0.284 C  
BRANCH  10  11
HETATM   11  C   UNL     1     -11.185  12.366  68.445  1.00  0.00    -0.316 C  
HETATM   12  C   UNL     1     -11.034  11.095  69.302  1.00  0.00    -0.300 C  
HETATM   13  C   UNL     1     -10.842   9.851  68.413  1.00  0.00    -0.263 C  
HETATM   14  C   UNL     1     -12.221  10.881  70.249  1.00  0.00    -0.432 C  
BRANCH  13  15
HETATM   15  C   UNL     1      -9.615   9.900  67.493  1.00  0.00    -0.183 C  
BRANCH  15  16
HETATM   16  C   UNL     1      -9.812   9.105  66.202  1.00  0.00    -0.363 C  
BRANCH  16  17
HETATM   17  C   UNL     1      -9.604   7.626  66.414  1.00  0.00    -0.223 C  
HETATM   18  C   UNL     1     -10.598   6.883  66.939  1.00  0.00    -0.372 C  
HETATM   19  C   UNL     1      -8.292   7.056  65.964  1.00  0.00    -0.134 C  
BRANCH  18  20
HETATM   20  C   UNL     1     -10.599   5.390  67.140  1.00  0.00    -0.274 C  
BRANCH  20  21
HETATM   21  C   UNL     1      -9.972   5.008  68.465  1.00  0.00    -0.207 C  
HETATM   22  C   UNL     1      -8.874   4.235  68.601  1.00  0.00    -0.136 C  
HETATM   23  C   UNL     1      -8.119   3.581  67.474  1.00  0.00    -0.081 C  
HETATM   24  C   UNL     1      -8.278   3.975  69.944  1.00  0.00    -0.057 C  
HETATM   25  O   UNL     1      -7.309   3.239  70.075  1.00  0.00    -0.041 OA 
HETATM   26  C   UNL     1      -8.868   4.641  71.114  1.00  0.00    -0.149 A  
HETATM   27  C   UNL     1     -10.014   5.411  70.981  1.00  0.00    -0.261 A  
HETATM   28  C   UNL     1     -10.654   5.570  69.668  1.00  0.00    -0.305 C  
HETATM   29  C   UNL     1     -10.573   6.034  72.104  1.00  0.00    -0.256 A  
HETATM   30  C   UNL     1      -9.975   5.889  73.358  1.00  0.00    -0.182 A  
HETATM   31  O   UNL     1     -11.721   6.167  69.586  1.00  0.00    -0.331 OA 
HETATM   32  C   UNL     1      -8.820   5.118  73.491  1.00  0.00    -0.116 A  
HETATM   33  C   UNL     1      -8.266   4.494  72.373  1.00  0.00    -0.109 A  
ENDBRANCH  20  21
ENDBRANCH  18  20
ENDBRANCH  16  17
ENDBRANCH  15  16
ENDBRANCH  13  15
ENDBRANCH  10  11
ENDBRANCH   9  10
ENDBRANCH   5   6
ENDBRANCH   4   5
TORSDOF 9
ENDMDL
MODEL      255
REMARK 921   NORMALIZED FREE ENERGY PREDICTED BY IDOCK:   -4.10 KCAL/MOL
REMARK 922        TOTAL FREE ENERGY PREDICTED BY IDOCK:   -9.46 KCAL/MOL
REMARK 923 INTER-LIGAND FREE ENERGY PREDICTED BY IDOCK:   -7.19 KCAL/MOL
REMARK 924 INTRA-LIGAND FREE ENERGY PREDICTED BY IDOCK:   -2.27 KCAL/MOL
REMARK 927      BINDING AFFINITY PREDICTED BY RF-SCORE:    0.00 PKD
ROOT
HETATM    1  C   UNL     1      -7.085   4.839  63.288  1.00  0.00    -0.047 C  
HETATM    2  C   UNL     1      -7.718   5.889  64.198  1.00  0.00    -0.106 C  
HETATM    3  C   UNL     1      -8.157   5.237  65.514  1.00  0.00    -0.119 C  
HETATM    4  C   UNL     1      -6.733   7.054  64.409  1.00  0.00    -0.046 C  
ENDROOT
BRANCH   4   5
HETATM    5  C   UNL     1      -7.320   8.136  65.306  1.00  0.00    -0.073 C  
BRANCH   5   6
HETATM    6  C   UNL     1      -8.703   8.594  64.854  1.00  0.00    -0.126 C  
HETATM    7  C   UNL     1      -8.722  10.101  64.533  1.00  0.00    -0.211 C  
HETATM    8  C   UNL     1      -7.729  10.467  63.419  1.00  0.00    -0.077 C  
HETATM    9  C   UNL     1     -10.158  10.522  64.175  1.00  0.00    -0.351 C  
BRANCH   9  10
HETATM   10  C   UNL     1     -10.240  12.008  63.845  1.00  0.00    -0.424 C  
BRANCH  10  11
HETATM   11  C   UNL     1     -10.294  12.873  65.094  1.00  0.00    -0.320 C  
HETATM   12  C   UNL     1     -10.742  14.312  64.774  1.00  0.00    -0.435 C  
HETATM   13  C   UNL     1     -10.658  15.206  66.026  1.00  0.00    -0.329 C  
HETATM   14  C   UNL     1     -12.159  14.369  64.188  1.00  0.00    -0.405 C  
BRANCH  13  15
HETATM   15  C   UNL     1      -9.258  15.317  66.644  1.00  0.00    -0.302 C  
BRANCH  15  16
HETATM   16  C   UNL     1      -9.170  14.673  68.028  1.00  0.00    -0.197 C  
BRANCH  16  17
HETATM   17  C   UNL     1      -8.365  13.398  68.005  1.00  0.00    -0.165 C  
HETATM   18  C   UNL     1      -8.994  12.212  68.116  1.00  0.00    -0.195 C  
HETATM   19  C   UNL     1      -6.885  13.535  67.798  1.00  0.00    -0.168 C  
BRANCH  18  20
HETATM   20  C   UNL     1      -8.366  10.845  68.027  1.00  0.00    -0.122 C  
BRANCH  20  21
HETATM   21  C   UNL     1      -8.560  10.061  69.310  1.00  0.00    -0.172 C  
HETATM   22  C   UNL     1      -7.579   9.783  70.195  1.00  0.00    -0.180 C  
HETATM   23  C   UNL     1      -6.128  10.153  70.040  1.00  0.00    -0.065 C  
HETATM   24  C   UNL     1      -7.878   9.071  71.473  1.00  0.00     0.020 C  
HETATM   25  O   UNL     1      -6.985   8.779  72.257  1.00  0.00    -0.246 OA 
HETATM   26  C   UNL     1      -9.277   8.745  71.784  1.00  0.00    -0.332 A  
HETATM   27  C   UNL     1     -10.281   9.003  70.863  1.00  0.00    -0.324 A  
HETATM   28  C   UNL     1      -9.958   9.604  69.562  1.00  0.00    -0.209 C  
HETATM   29  C   UNL     1     -11.610   8.679  71.166  1.00  0.00    -0.330 A  
HETATM   30  C   UNL     1     -11.928   8.104  72.398  1.00  0.00    -0.431 A  
HETATM   31  O   UNL     1     -10.841   9.731  68.721  1.00  0.00    -0.220 OA 
HETATM   32  C   UNL     1     -10.920   7.849  73.327  1.00  0.00    -0.146 A  
HETATM   33  C   UNL     1      -9.595   8.167  73.022  1.00  0.00    -0.336 A  
ENDBRANCH  20  21
ENDBRANCH  18  20
ENDBRANCH  16  17
ENDBRANCH  15  16
ENDBRANCH  13  15
ENDBRANCH  10  11
ENDBRANCH   9  10
ENDBRANCH   5   6
ENDBRANCH   4   5
TORSDOF 9
ENDMDL
MODEL      256
REMARK 921   NORMALIZED FREE ENERGY PREDICTED BY IDOCK:   -4.10 KCAL/MOL
REMARK 922        TOTAL FREE ENERGY PREDICTED BY IDOCK:   -9.46 KCAL/MOL
REMARK 923 INTER-LIGAND FREE ENERGY PREDICTED BY IDOCK:   -8.13 KCAL/MOL
REMARK 924 INTRA-LIGAND FREE ENERGY PREDICTED BY IDOCK:   -1.33 KCAL/MOL
REMARK 927      BINDING AFFINITY PREDICTED BY RF-SCORE:    0.00 PKD
ROOT
HETATM    1  C   UNL     1      -6.360  19.802  64.866  1.00  0.00    -0.320 C  
HETATM    2  C   UNL     1      -6.632  18.619  65.792  1.00  0.00    -0.304 C  
HETATM    3  C   UNL     1      -5.346  18.230  66.529  1.00  0.00    -0.174 C  
HETATM    4  C   UNL     1      -7.788  18.965  66.750  1.00  0.00    -0.262 C  
ENDROOT
BRANCH   4   5
HETATM    5  C   UNL     1      -8.107  17.811  67.692  1.00  0.00    -0.223 C  
BRANCH   5   6
HETATM    6  C   UNL     1      -9.593  17.466  67.724  1.00  0.00    -0.264 C  
HETATM    7  C   UNL     1      -9.818  15.941  67.729  1.00  0.00    -0.222 C  
HETATM    8  C   UNL     1      -9.161  15.265  68.943  1.00  0.00    -0.211 C  
HETATM    9  C   UNL     1     -11.328  15.655  67.667  1.00  0.00    -0.228 C  
BRANCH   9  10
HETATM   10  C   UNL     1     -11.615  14.157  67.672  1.00  0.00    -0.394 C  
BRANCH  10  11
HETATM   11  C   UNL     1     -10.796  13.411  66.631  1.00  0.00    -0.285 C  
HETATM   12  C   UNL     1     -11.675  12.490  65.765  1.00  0.00    -0.478 C  
HETATM   13  C   UNL     1     -10.811  11.641  64.811  1.00  0.00    -0.367 C  
HETATM   14  C   UNL     1     -12.727  13.266  64.963  1.00  0.00    -0.438 C  
BRANCH  13  15
HETATM   15  C   UNL     1      -9.788  10.734  65.506  1.00  0.00    -0.309 C  
BRANCH  15  16
HETATM   16  C   UNL     1      -9.097   9.772  64.538  1.00  0.00    -0.297 C  
BRANCH  16  17
HETATM   17  C   UNL     1      -8.502   8.585  65.252  1.00  0.00    -0.192 C  
HETATM   18  C   UNL     1      -8.415   8.593  66.597  1.00  0.00    -0.115 C  
HETATM   19  C   UNL     1      -8.088   7.421  64.401  1.00  0.00    -0.070 C  
BRANCH  18  20
HETATM   20  C   UNL     1      -7.933   7.469  67.476  1.00  0.00    -0.116 C  
BRANCH  20  21
HETATM   21  C   UNL     1      -8.750   7.372  68.750  1.00  0.00    -0.128 C  
HETATM   22  C   UNL     1      -9.966   6.792  68.840  1.00  0.00    -0.159 C  
HETATM   23  C   UNL     1     -10.738   6.193  67.694  1.00  0.00    -0.388 C  
HETATM   24  C   UNL     1     -10.664   6.671  70.154  1.00  0.00    -0.239 C  
HETATM   25  O   UNL     1     -11.784   6.186  70.232  1.00  0.00    -0.319 OA 
HETATM   26  C   UNL     1      -9.966   7.130  71.364  1.00  0.00    -0.193 A  
HETATM   27  C   UNL     1      -8.731   7.753  71.269  1.00  0.00    -0.140 A  
HETATM   28  C   UNL     1      -8.104   7.964  69.957  1.00  0.00    -0.117 C  
HETATM   29  C   UNL     1      -8.079   8.196  72.428  1.00  0.00    -0.198 A  
HETATM   30  C   UNL     1      -8.666   8.003  73.680  1.00  0.00    -0.332 A  
HETATM   31  O   UNL     1      -7.062   8.607  69.883  1.00  0.00    -0.048 OA 
HETATM   32  C   UNL     1      -9.906   7.372  73.776  1.00  0.00    -0.331 A  
HETATM   33  C   UNL     1     -10.558   6.936  72.621  1.00  0.00    -0.262 A  
ENDBRANCH  20  21
ENDBRANCH  18  20
ENDBRANCH  16  17
ENDBRANCH  15  16
ENDBRANCH  13  15
ENDBRANCH  10  11
ENDBRANCH   9  10
ENDBRANCH   5   6
ENDBRANCH   4   5
TORSDOF 9
ENDMDL
MODEL      257
REMARK 921   NORMALIZED FREE ENERGY PREDICTED BY IDOCK:   -4.10 KCAL/MOL
REMARK 922        TOTAL FREE ENERGY PREDICTED BY IDOCK:   -9.46 KCAL/MOL
REMARK 923 INTER-LIGAND FREE ENERGY PREDICTED BY IDOCK:   -6.69 KCAL/MOL
REMARK 924 INTRA-LIGAND FREE ENERGY PREDICTED BY IDOCK:   -2.76 KCAL/MOL
REMARK 927      BINDING AFFINITY PREDICTED BY RF-SCORE:    0.00 PKD
ROOT
HETATM    1  C   UNL     1      -9.056  14.299  67.866  1.00  0.00    -0.190 C  
HETATM    2  C   UNL     1      -7.807  13.453  67.626  1.00  0.00    -0.174 C  
HETATM    3  C   UNL     1      -6.553  14.298  67.875  1.00  0.00    -0.175 C  
HETATM    4  C   UNL     1      -7.860  12.189  68.506  1.00  0.00    -0.122 C  
ENDROOT
BRANCH   4   5
HETATM    5  C   UNL     1      -6.639  11.304  68.298  1.00  0.00    -0.058 C  
BRANCH   5   6
HETATM    6  C   UNL     1      -6.942  10.062  67.466  1.00  0.00    -0.086 C  
HETATM    7  C   UNL     1      -5.929   8.935  67.744  1.00  0.00    -0.047 C  
HETATM    8  C   UNL     1      -5.927   8.511  69.221  1.00  0.00    -0.041 C  
HETATM    9  C   UNL     1      -6.228   7.748  66.812  1.00  0.00    -0.049 C  
BRANCH   9  10
HETATM   10  C   UNL     1      -5.255   6.596  67.042  1.00  0.00    -0.009 C  
BRANCH  10  11
HETATM   11  C   UNL     1      -5.968   5.260  67.179  1.00  0.00    -0.026 C  
HETATM   12  C   UNL     1      -6.897   4.983  65.981  1.00  0.00    -0.061 C  
HETATM   13  C   UNL     1      -7.712   3.694  66.204  1.00  0.00    -0.088 C  
HETATM   14  C   UNL     1      -6.132   4.893  64.655  1.00  0.00    -0.026 C  
BRANCH  13  15
HETATM   15  C   UNL     1      -8.607   3.705  67.450  1.00  0.00    -0.114 C  
BRANCH  15  16
HETATM   16  C   UNL     1      -9.873   4.541  67.261  1.00  0.00    -0.216 C  
BRANCH  16  17
HETATM   17  C   UNL     1      -9.951   5.677  68.249  1.00  0.00    -0.197 C  
HETATM   18  C   UNL     1      -9.802   6.945  67.817  1.00  0.00    -0.161 C  
HETATM   19  C   UNL     1     -10.251   5.316  69.673  1.00  0.00    -0.348 C  
BRANCH  18  20
HETATM   20  C   UNL     1      -9.934   8.200  68.641  1.00  0.00    -0.201 C  
BRANCH  20  21
HETATM   21  C   UNL     1     -10.424   9.364  67.803  1.00  0.00    -0.310 C  
HETATM   22  C   UNL     1     -11.110  10.422  68.285  1.00  0.00    -0.338 C  
HETATM   23  C   UNL     1     -11.550  10.603  69.714  1.00  0.00    -0.385 C  
HETATM   24  C   UNL     1     -11.484  11.564  67.399  1.00  0.00    -0.274 C  
HETATM   25  O   UNL     1     -12.144  12.503  67.823  1.00  0.00    -0.409 OA 
HETATM   26  C   UNL     1     -11.023  11.549  66.003  1.00  0.00    -0.316 A  
HETATM   27  C   UNL     1     -10.344  10.450  65.499  1.00  0.00    -0.265 A  
HETATM   28  C   UNL     1     -10.078   9.284  66.353  1.00  0.00    -0.267 C  
HETATM   29  C   UNL     1      -9.917  10.442  64.165  1.00  0.00    -0.337 A  
HETATM   30  C   UNL     1     -10.167  11.543  63.342  1.00  0.00    -0.462 A  
HETATM   31  O   UNL     1      -9.569   8.282  65.864  1.00  0.00    -0.137 OA 
HETATM   32  C   UNL     1     -10.845  12.650  63.851  1.00  0.00    -0.468 A  
HETATM   33  C   UNL     1     -11.274  12.655  65.179  1.00  0.00    -0.336 A  
ENDBRANCH  20  21
ENDBRANCH  18  20
ENDBRANCH  16  17
ENDBRANCH  15  16
ENDBRANCH  13  15
ENDBRANCH  10  11
ENDBRANCH   9  10
ENDBRANCH   5   6
ENDBRANCH   4   5
TORSDOF 9
ENDMDL
MODEL      258
REMARK 921   NORMALIZED FREE ENERGY PREDICTED BY IDOCK:   -4.09 KCAL/MOL
REMARK 922        TOTAL FREE ENERGY PREDICTED BY IDOCK:   -9.45 KCAL/MOL
REMARK 923 INTER-LIGAND FREE ENERGY PREDICTED BY IDOCK:   -7.75 KCAL/MOL
REMARK 924 INTRA-LIGAND FREE ENERGY PREDICTED BY IDOCK:   -1.70 KCAL/MOL
REMARK 927      BINDING AFFINITY PREDICTED BY RF-SCORE:    0.00 PKD
ROOT
HETATM    1  C   UNL     1      -7.474   4.601  72.033  1.00  0.00    -0.084 C  
HETATM    2  C   UNL     1      -7.230   5.306  70.701  1.00  0.00    -0.068 C  
HETATM    3  C   UNL     1      -5.755   5.173  70.307  1.00  0.00    -0.016 C  
HETATM    4  C   UNL     1      -8.187   4.743  69.633  1.00  0.00    -0.072 C  
ENDROOT
BRANCH   4   5
HETATM    5  C   UNL     1      -7.990   5.421  68.284  1.00  0.00    -0.088 C  
BRANCH   5   6
HETATM    6  C   UNL     1      -9.197   6.251  67.856  1.00  0.00    -0.116 C  
HETATM    7  C   UNL     1      -8.771   7.629  67.312  1.00  0.00    -0.124 C  
HETATM    8  C   UNL     1      -7.841   7.507  66.096  1.00  0.00    -0.096 C  
HETATM    9  C   UNL     1     -10.030   8.451  66.986  1.00  0.00    -0.323 C  
BRANCH   9  10
HETATM   10  C   UNL     1      -9.671   9.830  66.440  1.00  0.00    -0.275 C  
BRANCH  10  11
HETATM   11  C   UNL     1     -10.763  10.396  65.546  1.00  0.00     0.028 C  
HETATM   12  C   UNL     1     -10.196  11.375  64.501  1.00  0.00    -0.352 C  
HETATM   13  C   UNL     1     -11.330  12.041  63.698  1.00  0.00    -0.536 C  
HETATM   14  C   UNL     1      -9.205  10.702  63.543  1.00  0.00    -0.283 C  
BRANCH  13  15
HETATM   15  C   UNL     1     -12.331  12.842  64.541  1.00  0.00    -0.515 C  
BRANCH  15  16
HETATM   16  C   UNL     1     -11.898  14.293  64.753  1.00  0.00    -0.436 C  
BRANCH  16  17
HETATM   17  C   UNL     1     -11.128  14.469  66.037  1.00  0.00    -0.329 C  
HETATM   18  C   UNL     1      -9.930  15.085  66.015  1.00  0.00    -0.334 C  
HETATM   19  C   UNL     1     -11.788  13.984  67.294  1.00  0.00    -0.445 C  
BRANCH  18  20
HETATM   20  C   UNL     1      -9.067  15.422  67.203  1.00  0.00    -0.236 C  
BRANCH  20  21
HETATM   21  C   UNL     1      -8.774  16.908  67.271  1.00  0.00    -0.207 C  
HETATM   22  C   UNL     1      -9.686  17.858  67.566  1.00  0.00    -0.278 C  
HETATM   23  C   UNL     1     -11.149  17.617  67.826  1.00  0.00     0.045 C  
HETATM   24  C   UNL     1      -9.289  19.292  67.689  1.00  0.00    -0.307 C  
HETATM   25  O   UNL     1     -10.121  20.161  67.913  1.00  0.00    -0.406 OA 
HETATM   26  C   UNL     1      -7.867  19.641  67.556  1.00  0.00    -0.309 A  
HETATM   27  C   UNL     1      -6.934  18.671  67.223  1.00  0.00    -0.209 A  
HETATM   28  C   UNL     1      -7.355  17.281  66.997  1.00  0.00    -0.185 C  
HETATM   29  C   UNL     1      -5.583  19.016  67.090  1.00  0.00    -0.163 A  
HETATM   30  C   UNL     1      -5.171  20.333  67.299  1.00  0.00    -0.173 A  
HETATM   31  O   UNL     1      -6.535  16.459  66.604  1.00  0.00    -0.277 OA 
HETATM   32  C   UNL     1      -6.109  21.308  67.639  1.00  0.00    -0.420 A  
HETATM   33  C   UNL     1      -7.456  20.965  67.767  1.00  0.00    -0.157 A  
ENDBRANCH  20  21
ENDBRANCH  18  20
ENDBRANCH  16  17
ENDBRANCH  15  16
ENDBRANCH  13  15
ENDBRANCH  10  11
ENDBRANCH   9  10
ENDBRANCH   5   6
ENDBRANCH   4   5
TORSDOF 9
ENDMDL
MODEL      259
REMARK 921   NORMALIZED FREE ENERGY PREDICTED BY IDOCK:   -4.09 KCAL/MOL
REMARK 922        TOTAL FREE ENERGY PREDICTED BY IDOCK:   -9.45 KCAL/MOL
REMARK 923 INTER-LIGAND FREE ENERGY PREDICTED BY IDOCK:   -7.78 KCAL/MOL
REMARK 924 INTRA-LIGAND FREE ENERGY PREDICTED BY IDOCK:   -1.66 KCAL/MOL
REMARK 927      BINDING AFFINITY PREDICTED BY RF-SCORE:    0.00 PKD
ROOT
HETATM    1  C   UNL     1      -8.098  17.041  66.343  1.00  0.00    -0.335 C  
HETATM    2  C   UNL     1      -9.526  16.751  66.797  1.00  0.00    -0.261 C  
HETATM    3  C   UNL     1     -10.204  15.801  65.804  1.00  0.00    -0.394 C  
HETATM    4  C   UNL     1      -9.511  16.199  68.236  1.00  0.00    -0.208 C  
ENDROOT
BRANCH   4   5
HETATM    5  C   UNL     1     -10.916  15.901  68.742  1.00  0.00    -0.301 C  
BRANCH   5   6
HETATM    6  C   UNL     1     -10.947  14.784  69.780  1.00  0.00    -0.261 C  
HETATM    7  C   UNL     1     -11.865  13.627  69.339  1.00  0.00    -0.392 C  
HETATM    8  C   UNL     1     -11.413  13.007  68.008  1.00  0.00    -0.348 C  
HETATM    9  C   UNL     1     -11.929  12.579  70.463  1.00  0.00    -0.277 C  
BRANCH   9  10
HETATM   10  C   UNL     1     -12.825  11.404  70.082  1.00  0.00     0.049 C  
BRANCH  10  11
HETATM   11  C   UNL     1     -12.131  10.066  70.275  1.00  0.00    -0.226 C  
HETATM   12  C   UNL     1     -12.153   9.618  71.749  1.00  0.00    -0.446 C  
HETATM   13  C   UNL     1     -11.328   8.331  71.946  1.00  0.00    -0.372 C  
HETATM   14  C   UNL     1     -13.578   9.409  72.277  1.00  0.00    -0.532 C  
BRANCH  13  15
HETATM   15  C   UNL     1      -9.850   8.449  71.553  1.00  0.00    -0.274 C  
BRANCH  15  16
HETATM   16  C   UNL     1      -9.178   7.088  71.365  1.00  0.00    -0.151 C  
BRANCH  16  17
HETATM   17  C   UNL     1      -9.561   6.447  70.055  1.00  0.00    -0.171 C  
HETATM   18  C   UNL     1      -9.046   6.926  68.905  1.00  0.00    -0.134 C  
HETATM   19  C   UNL     1     -10.469   5.255  70.124  1.00  0.00    -0.338 C  
BRANCH  18  20
HETATM   20  C   UNL     1      -9.247   6.361  67.523  1.00  0.00    -0.112 C  
BRANCH  20  21
HETATM   21  C   UNL     1      -9.123   7.436  66.461  1.00  0.00    -0.195 C  
HETATM   22  C   UNL     1      -9.766   8.622  66.491  1.00  0.00    -0.325 C  
HETATM   23  C   UNL     1     -10.749   9.060  67.544  1.00  0.00    -0.239 C  
HETATM   24  C   UNL     1      -9.522   9.655  65.440  1.00  0.00    -0.278 C  
HETATM   25  O   UNL     1     -10.136  10.713  65.440  1.00  0.00    -0.264 OA 
HETATM   26  C   UNL     1      -8.508   9.383  64.411  1.00  0.00    -0.196 A  
HETATM   27  C   UNL     1      -7.868   8.153  64.362  1.00  0.00    -0.136 A  
HETATM   28  C   UNL     1      -8.198   7.105  65.337  1.00  0.00    -0.137 C  
HETATM   29  C   UNL     1      -6.910   7.901  63.372  1.00  0.00    -0.075 A  
HETATM   30  C   UNL     1      -6.591   8.889  62.437  1.00  0.00    -0.094 A  
HETATM   31  O   UNL     1      -7.700   5.991  65.217  1.00  0.00    -0.083 OA 
HETATM   32  C   UNL     1      -7.230  10.127  62.490  1.00  0.00    -0.141 A  
HETATM   33  C   UNL     1      -8.188  10.376  63.474  1.00  0.00    -0.135 A  
ENDBRANCH  20  21
ENDBRANCH  18  20
ENDBRANCH  16  17
ENDBRANCH  15  16
ENDBRANCH  13  15
ENDBRANCH  10  11
ENDBRANCH   9  10
ENDBRANCH   5   6
ENDBRANCH   4   5
TORSDOF 9
ENDMDL
MODEL      260
REMARK 921   NORMALIZED FREE ENERGY PREDICTED BY IDOCK:   -4.07 KCAL/MOL
REMARK 922        TOTAL FREE ENERGY PREDICTED BY IDOCK:   -9.42 KCAL/MOL
REMARK 923 INTER-LIGAND FREE ENERGY PREDICTED BY IDOCK:   -7.90 KCAL/MOL
REMARK 924 INTRA-LIGAND FREE ENERGY PREDICTED BY IDOCK:   -1.52 KCAL/MOL
REMARK 927      BINDING AFFINITY PREDICTED BY RF-SCORE:    0.00 PKD
ROOT
HETATM    1  C   UNL     1      -5.663   8.132  74.102  1.00  0.00    -0.082 C  
HETATM    2  C   UNL     1      -6.441   7.748  72.846  1.00  0.00    -0.067 C  
HETATM    3  C   UNL     1      -6.359   8.881  71.818  1.00  0.00    -0.070 C  
HETATM    4  C   UNL     1      -5.914   6.407  72.299  1.00  0.00    -0.038 C  
ENDROOT
BRANCH   4   5
HETATM    5  C   UNL     1      -6.664   5.972  71.048  1.00  0.00    -0.061 C  
BRANCH   5   6
HETATM    6  C   UNL     1      -8.048   5.407  71.353  1.00  0.00    -0.116 C  
HETATM    7  C   UNL     1      -9.162   6.284  70.747  1.00  0.00    -0.160 C  
HETATM    8  C   UNL     1      -9.038   6.400  69.220  1.00  0.00    -0.136 C  
HETATM    9  C   UNL     1     -10.530   5.718  71.165  1.00  0.00    -0.301 C  
BRANCH   9  10
HETATM   10  C   UNL     1     -11.676   6.545  70.592  1.00  0.00    -0.436 C  
BRANCH  10  11
HETATM   11  C   UNL     1     -11.905   7.830  71.372  1.00  0.00    -0.324 C  
HETATM   12  C   UNL     1     -13.335   8.369  71.180  1.00  0.00    -0.041 C  
HETATM   13  C   UNL     1     -13.503   9.740  71.864  1.00  0.00    -0.485 C  
HETATM   14  C   UNL     1     -14.403   7.395  71.694  1.00  0.00    -0.614 C  
BRANCH  13  15
HETATM   15  C   UNL     1     -12.558  10.834  71.354  1.00  0.00    -0.516 C  
BRANCH  15  16
HETATM   16  C   UNL     1     -12.942  12.228  71.853  1.00  0.00    -0.411 C  
BRANCH  16  17
HETATM   17  C   UNL     1     -12.574  13.302  70.861  1.00  0.00    -0.386 C  
HETATM   18  C   UNL     1     -12.224  12.957  69.606  1.00  0.00    -0.203 C  
HETATM   19  C   UNL     1     -12.677  14.723  71.333  1.00  0.00    -0.401 C  
BRANCH  18  20
HETATM   20  C   UNL     1     -11.912  13.893  68.468  1.00  0.00    -0.394 C  
BRANCH  20  21
HETATM   21  C   UNL     1     -10.484  14.397  68.540  1.00  0.00    -0.254 C  
HETATM   22  C   UNL     1      -9.388  13.618  68.423  1.00  0.00    -0.181 C  
HETATM   23  C   UNL     1      -9.390  12.122  68.256  1.00  0.00    -0.198 C  
HETATM   24  C   UNL     1      -8.019  14.213  68.427  1.00  0.00    -0.142 C  
HETATM   25  O   UNL     1      -7.022  13.506  68.366  1.00  0.00    -0.086 OA 
HETATM   26  C   UNL     1      -7.890  15.677  68.484  1.00  0.00    -0.133 A  
HETATM   27  C   UNL     1      -9.013  16.476  68.634  1.00  0.00    -0.236 A  
HETATM   28  C   UNL     1     -10.348  15.870  68.739  1.00  0.00    -0.228 C  
HETATM   29  C   UNL     1      -8.878  17.869  68.697  1.00  0.00    -0.267 A  
HETATM   30  C   UNL     1      -7.615  18.456  68.601  1.00  0.00    -0.321 A  
HETATM   31  O   UNL     1     -11.317  16.583  68.974  1.00  0.00    -0.282 OA 
HETATM   32  C   UNL     1      -6.486  17.653  68.446  1.00  0.00    -0.193 A  
HETATM   33  C   UNL     1      -6.620  16.265  68.388  1.00  0.00    -0.134 A  
ENDBRANCH  20  21
ENDBRANCH  18  20
ENDBRANCH  16  17
ENDBRANCH  15  16
ENDBRANCH  13  15
ENDBRANCH  10  11
ENDBRANCH   9  10
ENDBRANCH   5   6
ENDBRANCH   4   5
TORSDOF 9
ENDMDL
MODEL      261
REMARK 921   NORMALIZED FREE ENERGY PREDICTED BY IDOCK:   -4.07 KCAL/MOL
REMARK 922        TOTAL FREE ENERGY PREDICTED BY IDOCK:   -9.41 KCAL/MOL
REMARK 923 INTER-LIGAND FREE ENERGY PREDICTED BY IDOCK:   -6.70 KCAL/MOL
REMARK 924 INTRA-LIGAND FREE ENERGY PREDICTED BY IDOCK:   -2.71 KCAL/MOL
REMARK 927      BINDING AFFINITY PREDICTED BY RF-SCORE:    0.00 PKD
ROOT
HETATM    1  C   UNL     1     -10.514   7.567  73.635  1.00  0.00    -0.285 C  
HETATM    2  C   UNL     1     -11.310   7.738  72.342  1.00  0.00    -0.400 C  
HETATM    3  C   UNL     1     -11.980   6.412  71.967  1.00  0.00    -0.375 C  
HETATM    4  C   UNL     1     -12.317   8.892  72.502  1.00  0.00    -0.325 C  
ENDROOT
BRANCH   4   5
HETATM    5  C   UNL     1     -13.133   9.111  71.235  1.00  0.00    -0.297 C  
BRANCH   5   6
HETATM    6  C   UNL     1     -12.771  10.406  70.514  1.00  0.00    -0.355 C  
HETATM    7  C   UNL     1     -11.314  10.386  70.013  1.00  0.00    -0.384 C  
HETATM    8  C   UNL     1     -11.054   9.228  69.038  1.00  0.00     0.023 C  
HETATM    9  C   UNL     1     -10.981  11.748  69.380  1.00  0.00    -0.185 C  
BRANCH   9  10
HETATM   10  C   UNL     1      -9.547  11.789  68.863  1.00  0.00     0.030 C  
BRANCH  10  11
HETATM   11  C   UNL     1      -9.468  12.284  67.427  1.00  0.00    -0.181 C  
HETATM   12  C   UNL     1     -10.851  12.298  66.750  1.00  0.00    -0.291 C  
HETATM   13  C   UNL     1     -10.730  12.669  65.259  1.00  0.00    -0.318 C  
HETATM   14  C   UNL     1     -11.835  13.247  67.445  1.00  0.00    -0.413 C  
BRANCH  13  15
HETATM   15  C   UNL     1      -9.853  11.722  64.429  1.00  0.00    -0.227 C  
BRANCH  15  16
HETATM   16  C   UNL     1     -10.222  10.251  64.625  1.00  0.00    -0.204 C  
BRANCH  16  17
HETATM   17  C   UNL     1      -9.014   9.405  64.941  1.00  0.00    -0.256 C  
HETATM   18  C   UNL     1      -8.860   8.904  66.183  1.00  0.00    -0.193 C  
HETATM   19  C   UNL     1      -8.069   9.124  63.811  1.00  0.00    -0.156 C  
BRANCH  18  20
HETATM   20  C   UNL     1      -7.771   7.976  66.652  1.00  0.00    -0.094 C  
BRANCH  20  21
HETATM   21  C   UNL     1      -8.335   6.814  67.444  1.00  0.00    -0.122 C  
HETATM   22  C   UNL     1      -8.898   5.714  66.899  1.00  0.00    -0.113 C  
HETATM   23  C   UNL     1      -9.107   5.475  65.428  1.00  0.00    -0.064 C  
HETATM   24  C   UNL     1      -9.356   4.581  67.756  1.00  0.00    -0.147 C  
HETATM   25  O   UNL     1      -9.906   3.602  67.269  1.00  0.00    -0.138 OA 
HETATM   26  C   UNL     1      -9.114   4.653  69.204  1.00  0.00    -0.166 A  
HETATM   27  C   UNL     1      -8.564   5.794  69.769  1.00  0.00    -0.127 A  
HETATM   28  C   UNL     1      -8.217   6.947  68.926  1.00  0.00    -0.121 C  
HETATM   29  C   UNL     1      -8.345   5.856  71.151  1.00  0.00    -0.124 A  
HETATM   30  C   UNL     1      -8.673   4.768  71.963  1.00  0.00    -0.132 A  
HETATM   31  O   UNL     1      -7.829   7.984  69.453  1.00  0.00    -0.108 OA 
HETATM   32  C   UNL     1      -9.221   3.619  71.395  1.00  0.00    -0.196 A  
HETATM   33  C   UNL     1      -9.443   3.559  70.018  1.00  0.00    -0.253 A  
ENDBRANCH  20  21
ENDBRANCH  18  20
ENDBRANCH  16  17
ENDBRANCH  15  16
ENDBRANCH  13  15
ENDBRANCH  10  11
ENDBRANCH   9  10
ENDBRANCH   5   6
ENDBRANCH   4   5
TORSDOF 9
ENDMDL
MODEL      262
REMARK 921   NORMALIZED FREE ENERGY PREDICTED BY IDOCK:   -4.06 KCAL/MOL
REMARK 922        TOTAL FREE ENERGY PREDICTED BY IDOCK:   -9.40 KCAL/MOL
REMARK 923 INTER-LIGAND FREE ENERGY PREDICTED BY IDOCK:   -7.42 KCAL/MOL
REMARK 924 INTRA-LIGAND FREE ENERGY PREDICTED BY IDOCK:   -1.98 KCAL/MOL
REMARK 927      BINDING AFFINITY PREDICTED BY RF-SCORE:    0.00 PKD
ROOT
HETATM    1  C   UNL     1     -10.482   8.288  66.823  1.00  0.00    -0.313 C  
HETATM    2  C   UNL     1      -9.636   7.019  66.766  1.00  0.00    -0.221 C  
HETATM    3  C   UNL     1      -8.222   7.314  67.278  1.00  0.00    -0.115 C  
HETATM    4  C   UNL     1     -10.334   5.895  67.555  1.00  0.00    -0.269 C  
ENDROOT
BRANCH   4   5
HETATM    5  C   UNL     1      -9.534   4.599  67.523  1.00  0.00    -0.182 C  
BRANCH   5   6
HETATM    6  C   UNL     1      -9.738   3.745  68.770  1.00  0.00    -0.089 C  
HETATM    7  C   UNL     1      -9.775   4.608  70.046  1.00  0.00    -0.277 C  
HETATM    8  C   UNL     1     -10.907   5.646  70.008  1.00  0.00    -0.366 C  
HETATM    9  C   UNL     1      -9.887   3.688  71.273  1.00  0.00    -0.211 C  
BRANCH   9  10
HETATM   10  C   UNL     1      -9.931   4.487  72.571  1.00  0.00    -0.225 C  
BRANCH  10  11
HETATM   11  C   UNL     1      -8.690   5.345  72.760  1.00  0.00    -0.123 C  
HETATM   12  C   UNL     1      -9.047   6.784  73.177  1.00  0.00    -0.145 C  
HETATM   13  C   UNL     1      -7.788   7.671  73.229  1.00  0.00    -0.149 C  
HETATM   14  C   UNL     1      -9.779   6.840  74.524  1.00  0.00    -0.270 C  
BRANCH  13  15
HETATM   15  C   UNL     1      -7.025   7.783  71.903  1.00  0.00    -0.066 C  
BRANCH  15  16
HETATM   16  C   UNL     1      -7.915   8.236  70.745  1.00  0.00    -0.100 C  
BRANCH  16  17
HETATM   17  C   UNL     1      -7.397   9.494  70.095  1.00  0.00    -0.124 C  
HETATM   18  C   UNL     1      -8.132  10.101  69.142  1.00  0.00    -0.134 C  
HETATM   19  C   UNL     1      -6.092  10.031  70.604  1.00  0.00    -0.101 C  
BRANCH  18  20
HETATM   20  C   UNL     1      -7.815  11.402  68.451  1.00  0.00    -0.135 C  
BRANCH  20  21
HETATM   21  C   UNL     1      -8.538  11.516  67.124  1.00  0.00    -0.155 C  
HETATM   22  C   UNL     1      -8.102  10.981  65.963  1.00  0.00    -0.110 C  
HETATM   23  C   UNL     1      -6.810  10.232  65.776  1.00  0.00    -0.128 C  
HETATM   24  C   UNL     1      -8.920  11.076  64.719  1.00  0.00    -0.087 C  
HETATM   25  O   UNL     1      -8.508  10.631  63.656  1.00  0.00    -0.156 OA 
HETATM   26  C   UNL     1     -10.250  11.699  64.799  1.00  0.00    -0.321 A  
HETATM   27  C   UNL     1     -10.686  12.275  65.982  1.00  0.00    -0.296 A  
HETATM   28  C   UNL     1      -9.824  12.271  67.172  1.00  0.00    -0.203 C  
HETATM   29  C   UNL     1     -11.951  12.874  66.045  1.00  0.00    -0.505 A  
HETATM   30  C   UNL     1     -12.778  12.886  64.920  1.00  0.00    -0.474 A  
HETATM   31  O   UNL     1     -10.183  12.874  68.178  1.00  0.00    -0.226 OA 
HETATM   32  C   UNL     1     -12.341  12.302  63.731  1.00  0.00    -0.637 A  
HETATM   33  C   UNL     1     -11.079  11.710  63.667  1.00  0.00    -0.506 A  
ENDBRANCH  20  21
ENDBRANCH  18  20
ENDBRANCH  16  17
ENDBRANCH  15  16
ENDBRANCH  13  15
ENDBRANCH  10  11
ENDBRANCH   9  10
ENDBRANCH   5   6
ENDBRANCH   4   5
TORSDOF 9
ENDMDL
MODEL      263
REMARK 921   NORMALIZED FREE ENERGY PREDICTED BY IDOCK:   -4.04 KCAL/MOL
REMARK 922        TOTAL FREE ENERGY PREDICTED BY IDOCK:   -9.38 KCAL/MOL
REMARK 923 INTER-LIGAND FREE ENERGY PREDICTED BY IDOCK:   -7.10 KCAL/MOL
REMARK 924 INTRA-LIGAND FREE ENERGY PREDICTED BY IDOCK:   -2.27 KCAL/MOL
REMARK 927      BINDING AFFINITY PREDICTED BY RF-SCORE:    0.00 PKD
ROOT
HETATM    1  C   UNL     1     -10.658   5.451  74.162  1.00  0.00    -0.278 C  
HETATM    2  C   UNL     1     -10.569   6.443  73.005  1.00  0.00    -0.267 C  
HETATM    3  C   UNL     1     -10.205   7.832  73.540  1.00  0.00    -0.228 C  
HETATM    4  C   UNL     1      -9.567   5.927  71.954  1.00  0.00    -0.169 C  
ENDROOT
BRANCH   4   5
HETATM    5  C   UNL     1      -9.446   6.878  70.772  1.00  0.00    -0.165 C  
BRANCH   5   6
HETATM    6  C   UNL     1      -9.758   6.207  69.437  1.00  0.00    -0.172 C  
HETATM    7  C   UNL     1      -8.542   6.241  68.491  1.00  0.00    -0.114 C  
HETATM    8  C   UNL     1      -7.322   5.526  69.092  1.00  0.00    -0.077 C  
HETATM    9  C   UNL     1      -8.944   5.637  67.134  1.00  0.00    -0.112 C  
BRANCH   9  10
HETATM   10  C   UNL     1      -7.777   5.641  66.152  1.00  0.00    -0.095 C  
BRANCH  10  11
HETATM   11  C   UNL     1      -7.629   6.975  65.439  1.00  0.00    -0.097 C  
HETATM   12  C   UNL     1      -6.623   7.897  66.154  1.00  0.00    -0.050 C  
HETATM   13  C   UNL     1      -6.592   9.291  65.497  1.00  0.00    -0.069 C  
HETATM   14  C   UNL     1      -5.208   7.306  66.190  1.00  0.00    -0.024 C  
BRANCH  13  15
HETATM   15  C   UNL     1      -7.934  10.034  65.498  1.00  0.00    -0.139 C  
BRANCH  15  16
HETATM   16  C   UNL     1      -8.300  10.592  66.874  1.00  0.00    -0.126 C  
BRANCH  16  17
HETATM   17  C   UNL     1      -9.791  10.732  67.047  1.00  0.00    -0.221 C  
HETATM   18  C   UNL     1     -10.304  11.903  67.474  1.00  0.00    -0.219 C  
HETATM   19  C   UNL     1     -10.631   9.548  66.668  1.00  0.00    -0.174 C  
BRANCH  18  20
HETATM   20  C   UNL     1     -11.763  12.249  67.620  1.00  0.00    -0.403 C  
BRANCH  20  21
HETATM   21  C   UNL     1     -12.094  12.671  69.038  1.00  0.00    -0.183 C  
HETATM   22  C   UNL     1     -12.535  11.839  70.004  1.00  0.00    -0.135 C  
HETATM   23  C   UNL     1     -12.823  10.371  69.831  1.00  0.00     0.136 C  
HETATM   24  C   UNL     1     -12.761  12.328  71.396  1.00  0.00    -0.248 C  
HETATM   25  O   UNL     1     -13.203  11.586  72.263  1.00  0.00    -0.425 OA 
HETATM   26  C   UNL     1     -12.419  13.722  71.714  1.00  0.00    -0.254 A  
HETATM   27  C   UNL     1     -11.994  14.587  70.716  1.00  0.00    -0.388 A  
HETATM   28  C   UNL     1     -11.881  14.120  69.327  1.00  0.00    -0.338 C  
HETATM   29  C   UNL     1     -11.680  15.916  71.028  1.00  0.00    -0.473 A  
HETATM   30  C   UNL     1     -11.786  16.372  72.343  1.00  0.00    -0.548 A  
HETATM   31  O   UNL     1     -11.604  14.922  68.443  1.00  0.00    -0.301 OA 
HETATM   32  C   UNL     1     -12.209  15.501  73.348  1.00  0.00    -0.635 A  
HETATM   33  C   UNL     1     -12.526  14.178  73.036  1.00  0.00    -0.111 A  
ENDBRANCH  20  21
ENDBRANCH  18  20
ENDBRANCH  16  17
ENDBRANCH  15  16
ENDBRANCH  13  15
ENDBRANCH  10  11
ENDBRANCH   9  10
ENDBRANCH   5   6
ENDBRANCH   4   5
TORSDOF 9
ENDMDL
MODEL      264
REMARK 921   NORMALIZED FREE ENERGY PREDICTED BY IDOCK:   -4.02 KCAL/MOL
REMARK 922        TOTAL FREE ENERGY PREDICTED BY IDOCK:   -9.34 KCAL/MOL
REMARK 923 INTER-LIGAND FREE ENERGY PREDICTED BY IDOCK:   -7.55 KCAL/MOL
REMARK 924 INTRA-LIGAND FREE ENERGY PREDICTED BY IDOCK:   -1.79 KCAL/MOL
REMARK 927      BINDING AFFINITY PREDICTED BY RF-SCORE:    0.00 PKD
ROOT
HETATM    1  C   UNL     1      -9.380  15.876  66.040  1.00  0.00    -0.385 C  
HETATM    2  C   UNL     1     -10.446  14.790  66.166  1.00  0.00    -0.311 C  
HETATM    3  C   UNL     1     -10.016  13.547  65.380  1.00  0.00    -0.220 C  
HETATM    4  C   UNL     1     -10.711  14.493  67.655  1.00  0.00    -0.254 C  
ENDROOT
BRANCH   4   5
HETATM    5  C   UNL     1     -11.776  13.421  67.837  1.00  0.00    -0.396 C  
BRANCH   5   6
HETATM    6  C   UNL     1     -11.851  12.896  69.268  1.00  0.00    -0.363 C  
HETATM    7  C   UNL     1     -11.958  11.359  69.301  1.00  0.00    -0.400 C  
HETATM    8  C   UNL     1     -10.756  10.682  68.625  1.00  0.00    -0.239 C  
HETATM    9  C   UNL     1     -12.124  10.898  70.759  1.00  0.00    -0.469 C  
BRANCH   9  10
HETATM   10  C   UNL     1     -12.233   9.380  70.857  1.00  0.00    -0.297 C  
BRANCH  10  11
HETATM   11  C   UNL     1     -11.602   8.839  72.130  1.00  0.00    -0.434 C  
HETATM   12  C   UNL     1     -10.270   8.119  71.847  1.00  0.00    -0.289 C  
HETATM   13  C   UNL     1      -9.718   7.460  73.125  1.00  0.00    -0.281 C  
HETATM   14  C   UNL     1      -9.214   9.055  71.244  1.00  0.00    -0.314 C  
BRANCH  13  15
HETATM   15  C   UNL     1     -10.644   6.417  73.764  1.00  0.00    -0.271 C  
BRANCH  15  16
HETATM   16  C   UNL     1     -11.134   5.369  72.764  1.00  0.00    -0.349 C  
BRANCH  16  17
HETATM   17  C   UNL     1     -10.001   4.530  72.229  1.00  0.00    -0.239 C  
HETATM   18  C   UNL     1      -9.864   4.369  70.898  1.00  0.00    -0.266 C  
HETATM   19  C   UNL     1      -9.046   3.961  73.236  1.00  0.00    -0.115 C  
BRANCH  18  20
HETATM   20  C   UNL     1      -8.752   3.642  70.187  1.00  0.00    -0.122 C  
BRANCH  20  21
HETATM   21  C   UNL     1      -8.556   4.169  68.779  1.00  0.00    -0.112 C  
HETATM   22  C   UNL     1      -8.713   3.437  67.656  1.00  0.00    -0.131 C  
HETATM   23  C   UNL     1      -9.056   1.972  67.607  1.00  0.00    -0.199 C  
HETATM   24  C   UNL     1      -8.576   4.061  66.307  1.00  0.00    -0.110 C  
HETATM   25  O   UNL     1      -8.674   3.391  65.288  1.00  0.00    -0.113 OA 
HETATM   26  C   UNL     1      -8.340   5.509  66.224  1.00  0.00    -0.112 A  
HETATM   27  C   UNL     1      -8.148   6.257  67.376  1.00  0.00    -0.109 A  
HETATM   28  C   UNL     1      -8.177   5.610  68.695  1.00  0.00    -0.103 C  
HETATM   29  C   UNL     1      -7.915   7.635  67.286  1.00  0.00    -0.118 A  
HETATM   30  C   UNL     1      -7.883   8.261  66.038  1.00  0.00    -0.095 A  
HETATM   31  O   UNL     1      -7.904   6.266  69.694  1.00  0.00    -0.102 OA 
HETATM   32  C   UNL     1      -8.080   7.510  64.879  1.00  0.00    -0.121 A  
HETATM   33  C   UNL     1      -8.308   6.136  64.970  1.00  0.00    -0.112 A  
ENDBRANCH  20  21
ENDBRANCH  18  20
ENDBRANCH  16  17
ENDBRANCH  15  16
ENDBRANCH  13  15
ENDBRANCH  10  11
ENDBRANCH   9  10
ENDBRANCH   5   6
ENDBRANCH   4   5
TORSDOF 9
ENDMDL
MODEL      265
REMARK 921   NORMALIZED FREE ENERGY PREDICTED BY IDOCK:   -4.02 KCAL/MOL
REMARK 922        TOTAL FREE ENERGY PREDICTED BY IDOCK:   -9.33 KCAL/MOL
REMARK 923 INTER-LIGAND FREE ENERGY PREDICTED BY IDOCK:   -7.85 KCAL/MOL
REMARK 924 INTRA-LIGAND FREE ENERGY PREDICTED BY IDOCK:   -1.48 KCAL/MOL
REMARK 927      BINDING AFFINITY PREDICTED BY RF-SCORE:    0.00 PKD
ROOT
HETATM    1  C   UNL     1     -11.272   6.513  70.483  1.00  0.00    -0.401 C  
HETATM    2  C   UNL     1      -9.874   6.375  69.884  1.00  0.00    -0.191 C  
HETATM    3  C   UNL     1      -8.819   6.685  70.952  1.00  0.00    -0.146 C  
HETATM    4  C   UNL     1      -9.708   4.971  69.271  1.00  0.00    -0.249 C  
ENDROOT
BRANCH   4   5
HETATM    5  C   UNL     1      -8.330   4.783  68.651  1.00  0.00    -0.083 C  
BRANCH   5   6
HETATM    6  C   UNL     1      -8.361   4.793  67.126  1.00  0.00    -0.106 C  
HETATM    7  C   UNL     1      -7.874   6.141  66.559  1.00  0.00    -0.104 C  
HETATM    8  C   UNL     1      -6.436   6.464  66.993  1.00  0.00    -0.046 C  
HETATM    9  C   UNL     1      -8.016   6.123  65.027  1.00  0.00    -0.123 C  
BRANCH   9  10
HETATM   10  C   UNL     1      -7.546   7.435  64.407  1.00  0.00    -0.115 C  
BRANCH  10  11
HETATM   11  C   UNL     1      -8.706   8.356  64.061  1.00  0.00     0.211 C  
HETATM   12  C   UNL     1      -8.223   9.776  63.713  1.00  0.00    -0.162 C  
HETATM   13  C   UNL     1      -9.418  10.727  63.502  1.00  0.00    -0.331 C  
HETATM   14  C   UNL     1      -7.313   9.801  62.479  1.00  0.00    -0.120 C  
BRANCH  13  15
HETATM   15  C   UNL     1     -10.347  10.872  64.713  1.00  0.00    -0.391 C  
BRANCH  15  16
HETATM   16  C   UNL     1     -11.496  11.850  64.464  1.00  0.00    -0.363 C  
BRANCH  16  17
HETATM   17  C   UNL     1     -11.641  12.846  65.587  1.00  0.00    -0.401 C  
HETATM   18  C   UNL     1     -10.985  12.641  66.746  1.00  0.00    -0.296 C  
HETATM   19  C   UNL     1     -12.481  14.058  65.313  1.00  0.00    -0.495 C  
BRANCH  18  20
HETATM   20  C   UNL     1     -10.944  13.565  67.935  1.00  0.00    -0.275 C  
BRANCH  20  21
HETATM   21  C   UNL     1     -10.079  14.780  67.663  1.00  0.00    -0.227 C  
HETATM   22  C   UNL     1      -8.782  14.732  67.291  1.00  0.00    -0.226 C  
HETATM   23  C   UNL     1      -7.962  13.478  67.134  1.00  0.00    -0.058 C  
HETATM   24  C   UNL     1      -8.029  15.979  66.967  1.00  0.00    -0.227 C  
HETATM   25  O   UNL     1      -6.841  15.942  66.672  1.00  0.00    -0.204 OA 
HETATM   26  C   UNL     1      -8.750  17.260  66.988  1.00  0.00    -0.248 A  
HETATM   27  C   UNL     1     -10.073  17.315  67.398  1.00  0.00    -0.307 A  
HETATM   28  C   UNL     1     -10.772  16.093  67.820  1.00  0.00    -0.325 C  
HETATM   29  C   UNL     1     -10.748  18.542  67.423  1.00  0.00    -0.424 A  
HETATM   30  C   UNL     1     -10.094  19.710  67.027  1.00  0.00    -0.531 A  
HETATM   31  O   UNL     1     -11.906  16.174  68.277  1.00  0.00    -0.209 OA 
HETATM   32  C   UNL     1      -8.765  19.655  66.609  1.00  0.00    -0.392 A  
HETATM   33  C   UNL     1      -8.091  18.432  66.590  1.00  0.00    -0.282 A  
ENDBRANCH  20  21
ENDBRANCH  18  20
ENDBRANCH  16  17
ENDBRANCH  15  16
ENDBRANCH  13  15
ENDBRANCH  10  11
ENDBRANCH   9  10
ENDBRANCH   5   6
ENDBRANCH   4   5
TORSDOF 9
ENDMDL
MODEL      266
REMARK 921   NORMALIZED FREE ENERGY PREDICTED BY IDOCK:   -4.01 KCAL/MOL
REMARK 922        TOTAL FREE ENERGY PREDICTED BY IDOCK:   -9.33 KCAL/MOL
REMARK 923 INTER-LIGAND FREE ENERGY PREDICTED BY IDOCK:   -6.92 KCAL/MOL
REMARK 924 INTRA-LIGAND FREE ENERGY PREDICTED BY IDOCK:   -2.40 KCAL/MOL
REMARK 927      BINDING AFFINITY PREDICTED BY RF-SCORE:    0.00 PKD
ROOT
HETATM    1  C   UNL     1     -10.390  12.341  63.971  1.00  0.00    -0.423 C  
HETATM    2  C   UNL     1     -11.257  12.974  65.056  1.00  0.00    -0.324 C  
HETATM    3  C   UNL     1     -12.738  12.822  64.691  1.00  0.00    -0.439 C  
HETATM    4  C   UNL     1     -10.913  12.354  66.423  1.00  0.00    -0.315 C  
ENDROOT
BRANCH   4   5
HETATM    5  C   UNL     1     -11.746  12.959  67.545  1.00  0.00    -0.422 C  
BRANCH   5   6
HETATM    6  C   UNL     1     -11.837  12.055  68.770  1.00  0.00    -0.358 C  
HETATM    7  C   UNL     1     -10.811  10.906  68.702  1.00  0.00    -0.258 C  
HETATM    8  C   UNL     1      -9.368  11.426  68.619  1.00  0.00    -0.155 C  
HETATM    9  C   UNL     1     -11.014   9.979  69.912  1.00  0.00    -0.339 C  
BRANCH   9  10
HETATM   10  C   UNL     1     -10.022   8.820  69.902  1.00  0.00    -0.193 C  
BRANCH  10  11
HETATM   11  C   UNL     1     -10.689   7.490  70.213  1.00  0.00    -0.247 C  
HETATM   12  C   UNL     1     -10.390   7.022  71.649  1.00  0.00    -0.216 C  
HETATM   13  C   UNL     1     -10.958   5.611  71.899  1.00  0.00    -0.297 C  
HETATM   14  C   UNL     1     -10.928   7.995  72.707  1.00  0.00    -0.449 C  
BRANCH  13  15
HETATM   15  C   UNL     1     -10.408   4.523  70.968  1.00  0.00    -0.082 C  
BRANCH  15  16
HETATM   16  C   UNL     1      -8.882   4.433  71.000  1.00  0.00    -0.146 C  
BRANCH  16  17
HETATM   17  C   UNL     1      -8.289   4.437  69.613  1.00  0.00    -0.074 C  
HETATM   18  C   UNL     1      -9.105   4.415  68.541  1.00  0.00    -0.168 C  
HETATM   19  C   UNL     1      -6.794   4.522  69.516  1.00  0.00    -0.045 C  
BRANCH  18  20
HETATM   20  C   UNL     1      -8.695   4.502  67.094  1.00  0.00    -0.104 C  
BRANCH  20  21
HETATM   21  C   UNL     1      -8.571   5.942  66.637  1.00  0.00    -0.119 C  
HETATM   22  C   UNL     1      -9.588   6.830  66.612  1.00  0.00    -0.211 C  
HETATM   23  C   UNL     1     -11.018   6.534  66.979  1.00  0.00    -0.466 C  
HETATM   24  C   UNL     1      -9.356   8.252  66.222  1.00  0.00    -0.204 C  
HETATM   25  O   UNL     1     -10.283   9.048  66.155  1.00  0.00    -0.267 OA 
HETATM   26  C   UNL     1      -7.981   8.686  65.937  1.00  0.00    -0.105 A  
HETATM   27  C   UNL     1      -6.940   7.769  65.933  1.00  0.00    -0.061 A  
HETATM   28  C   UNL     1      -7.200   6.350  66.212  1.00  0.00    -0.072 C  
HETATM   29  C   UNL     1      -5.635   8.192  65.651  1.00  0.00    -0.040 A  
HETATM   30  C   UNL     1      -5.376   9.537  65.382  1.00  0.00    -0.043 A  
HETATM   31  O   UNL     1      -6.288   5.538  66.103  1.00  0.00    -0.033 OA 
HETATM   32  C   UNL     1      -6.421  10.461  65.391  1.00  0.00    -0.115 A  
HETATM   33  C   UNL     1      -7.723  10.038  65.667  1.00  0.00    -0.136 A  
ENDBRANCH  20  21
ENDBRANCH  18  20
ENDBRANCH  16  17
ENDBRANCH  15  16
ENDBRANCH  13  15
ENDBRANCH  10  11
ENDBRANCH   9  10
ENDBRANCH   5   6
ENDBRANCH   4   5
TORSDOF 9
ENDMDL
MODEL      267
REMARK 921   NORMALIZED FREE ENERGY PREDICTED BY IDOCK:   -4.01 KCAL/MOL
REMARK 922        TOTAL FREE ENERGY PREDICTED BY IDOCK:   -9.31 KCAL/MOL
REMARK 923 INTER-LIGAND FREE ENERGY PREDICTED BY IDOCK:   -8.06 KCAL/MOL
REMARK 924 INTRA-LIGAND FREE ENERGY PREDICTED BY IDOCK:   -1.26 KCAL/MOL
REMARK 927      BINDING AFFINITY PREDICTED BY RF-SCORE:    0.00 PKD
ROOT
HETATM    1  C   UNL     1      -7.124   6.297  71.626  1.00  0.00    -0.082 C  
HETATM    2  C   UNL     1      -7.409   7.797  71.590  1.00  0.00    -0.067 C  
HETATM    3  C   UNL     1      -7.310   8.378  73.004  1.00  0.00    -0.109 C  
HETATM    4  C   UNL     1      -6.453   8.482  70.594  1.00  0.00    -0.038 C  
ENDROOT
BRANCH   4   5
HETATM    5  C   UNL     1      -6.702   9.982  70.513  1.00  0.00    -0.118 C  
BRANCH   5   6
HETATM    6  C   UNL     1      -6.523  10.537  69.103  1.00  0.00    -0.054 C  
HETATM    7  C   UNL     1      -6.720  12.065  69.068  1.00  0.00    -0.100 C  
HETATM    8  C   UNL     1      -5.725  12.797  69.981  1.00  0.00    -0.136 C  
HETATM    9  C   UNL     1      -6.621  12.552  67.612  1.00  0.00    -0.136 C  
BRANCH   9  10
HETATM   10  C   UNL     1      -6.807  14.062  67.513  1.00  0.00    -0.150 C  
BRANCH  10  11
HETATM   11  C   UNL     1      -8.273  14.465  67.546  1.00  0.00    -0.201 C  
HETATM   12  C   UNL     1      -8.445  15.975  67.792  1.00  0.00    -0.168 C  
HETATM   13  C   UNL     1      -9.934  16.339  67.960  1.00  0.00    -0.240 C  
HETATM   14  C   UNL     1      -7.823  16.827  66.678  1.00  0.00    -0.307 C  
BRANCH  13  15
HETATM   15  C   UNL     1     -10.643  15.629  69.120  1.00  0.00    -0.237 C  
BRANCH  15  16
HETATM   16  C   UNL     1     -11.099  14.215  68.757  1.00  0.00    -0.283 C  
BRANCH  16  17
HETATM   17  C   UNL     1     -11.842  13.555  69.891  1.00  0.00    -0.386 C  
HETATM   18  C   UNL     1     -11.858  12.210  69.982  1.00  0.00    -0.383 C  
HETATM   19  C   UNL     1     -12.482  14.462  70.900  1.00  0.00    -0.424 C  
BRANCH  18  20
HETATM   20  C   UNL     1     -12.470  11.388  71.086  1.00  0.00    -0.465 C  
BRANCH  20  21
HETATM   21  C   UNL     1     -12.094   9.925  70.962  1.00  0.00    -0.450 C  
HETATM   22  C   UNL     1     -12.735   8.912  71.582  1.00  0.00    -0.403 C  
HETATM   23  C   UNL     1     -13.891   9.060  72.535  1.00  0.00    -0.491 C  
HETATM   24  C   UNL     1     -12.345   7.492  71.338  1.00  0.00    -0.345 C  
HETATM   25  O   UNL     1     -12.895   6.574  71.932  1.00  0.00    -0.301 OA 
HETATM   26  C   UNL     1     -11.293   7.213  70.349  1.00  0.00    -0.325 A  
HETATM   27  C   UNL     1     -10.613   8.253  69.734  1.00  0.00    -0.228 A  
HETATM   28  C   UNL     1     -10.933   9.649  70.065  1.00  0.00    -0.260 C  
HETATM   29  C   UNL     1      -9.607   7.976  68.800  1.00  0.00    -0.149 A  
HETATM   30  C   UNL     1      -9.291   6.654  68.480  1.00  0.00    -0.125 A  
HETATM   31  O   UNL     1     -10.254  10.551  69.590  1.00  0.00    -0.226 OA 
HETATM   32  C   UNL     1      -9.979   5.608  69.094  1.00  0.00    -0.244 A  
HETATM   33  C   UNL     1     -10.978   5.884  70.029  1.00  0.00    -0.430 A  
ENDBRANCH  20  21
ENDBRANCH  18  20
ENDBRANCH  16  17
ENDBRANCH  15  16
ENDBRANCH  13  15
ENDBRANCH  10  11
ENDBRANCH   9  10
ENDBRANCH   5   6
ENDBRANCH   4   5
TORSDOF 9
ENDMDL
MODEL      268
REMARK 921   NORMALIZED FREE ENERGY PREDICTED BY IDOCK:   -4.00 KCAL/MOL
REMARK 922        TOTAL FREE ENERGY PREDICTED BY IDOCK:   -9.31 KCAL/MOL
REMARK 923 INTER-LIGAND FREE ENERGY PREDICTED BY IDOCK:   -8.08 KCAL/MOL
REMARK 924 INTRA-LIGAND FREE ENERGY PREDICTED BY IDOCK:   -1.23 KCAL/MOL
REMARK 927      BINDING AFFINITY PREDICTED BY RF-SCORE:    0.00 PKD
ROOT
HETATM    1  C   UNL     1     -11.026   3.743  62.396  1.00  0.00    -0.073 C  
HETATM    2  C   UNL     1      -9.957   3.082  63.263  1.00  0.00    -0.123 C  
HETATM    3  C   UNL     1      -8.593   3.179  62.570  1.00  0.00    -0.074 C  
HETATM    4  C   UNL     1      -9.960   3.719  64.666  1.00  0.00    -0.199 C  
ENDROOT
BRANCH   4   5
HETATM    5  C   UNL     1      -8.915   3.088  65.576  1.00  0.00    -0.145 C  
BRANCH   5   6
HETATM    6  C   UNL     1      -7.734   4.013  65.855  1.00  0.00    -0.090 C  
HETATM    7  C   UNL     1      -8.202   5.449  66.161  1.00  0.00    -0.111 C  
HETATM    8  C   UNL     1      -9.129   5.505  67.384  1.00  0.00    -0.110 C  
HETATM    9  C   UNL     1      -6.969   6.352  66.340  1.00  0.00    -0.067 C  
BRANCH   9  10
HETATM   10  C   UNL     1      -7.370   7.791  66.648  1.00  0.00    -0.088 C  
BRANCH  10  11
HETATM   11  C   UNL     1      -8.069   8.458  65.475  1.00  0.00    -0.129 C  
HETATM   12  C   UNL     1      -7.216   9.588  64.869  1.00  0.00    -0.111 C  
HETATM   13  C   UNL     1      -7.997  10.340  63.773  1.00  0.00    -0.128 C  
HETATM   14  C   UNL     1      -5.884   9.079  64.302  1.00  0.00    -0.070 C  
BRANCH  13  15
HETATM   15  C   UNL     1      -9.303  10.991  64.246  1.00  0.00    -0.232 C  
BRANCH  15  16
HETATM   16  C   UNL     1     -10.250  11.323  63.093  1.00  0.00    -0.367 C  
BRANCH  16  17
HETATM   17  C   UNL     1     -11.383  12.215  63.533  1.00  0.00    -0.535 C  
HETATM   18  C   UNL     1     -11.111  13.376  64.161  1.00  0.00    -0.353 C  
HETATM   19  C   UNL     1     -12.772  11.766  63.186  1.00  0.00    -0.179 C  
BRANCH  18  20
HETATM   20  C   UNL     1     -12.104  14.423  64.592  1.00  0.00    -0.485 C  
BRANCH  20  21
HETATM   21  C   UNL     1     -11.614  15.188  65.805  1.00  0.00    -0.097 C  
HETATM   22  C   UNL     1     -11.581  14.696  67.062  1.00  0.00    -0.385 C  
HETATM   23  C   UNL     1     -12.070  13.335  67.482  1.00  0.00    -0.312 C  
HETATM   24  C   UNL     1     -11.007  15.494  68.184  1.00  0.00    -0.312 C  
HETATM   25  O   UNL     1     -11.016  15.069  69.332  1.00  0.00    -0.244 OA 
HETATM   26  C   UNL     1     -10.406  16.801  67.881  1.00  0.00    -0.319 A  
HETATM   27  C   UNL     1     -10.465  17.321  66.596  1.00  0.00    -0.257 A  
HETATM   28  C   UNL     1     -11.132  16.572  65.522  1.00  0.00     0.038 C  
HETATM   29  C   UNL     1      -9.898  18.572  66.320  1.00  0.00    -0.352 A  
HETATM   30  C   UNL     1      -9.264  19.294  67.333  1.00  0.00    -0.356 A  
HETATM   31  O   UNL     1     -11.265  17.090  64.419  1.00  0.00    -1.167 OA 
HETATM   32  C   UNL     1      -9.200  18.769  68.624  1.00  0.00    -0.386 A  
HETATM   33  C   UNL     1      -9.770  17.526  68.900  1.00  0.00    -0.259 A  
ENDBRANCH  20  21
ENDBRANCH  18  20
ENDBRANCH  16  17
ENDBRANCH  15  16
ENDBRANCH  13  15
ENDBRANCH  10  11
ENDBRANCH   9  10
ENDBRANCH   5   6
ENDBRANCH   4   5
TORSDOF 9
ENDMDL
MODEL      269
REMARK 921   NORMALIZED FREE ENERGY PREDICTED BY IDOCK:   -3.96 KCAL/MOL
REMARK 922        TOTAL FREE ENERGY PREDICTED BY IDOCK:   -9.25 KCAL/MOL
REMARK 923 INTER-LIGAND FREE ENERGY PREDICTED BY IDOCK:   -8.01 KCAL/MOL
REMARK 924 INTRA-LIGAND FREE ENERGY PREDICTED BY IDOCK:   -1.24 KCAL/MOL
REMARK 927      BINDING AFFINITY PREDICTED BY RF-SCORE:    0.00 PKD
ROOT
HETATM    1  C   UNL     1      -9.924   7.633  71.558  1.00  0.00    -0.200 C  
HETATM    2  C   UNL     1     -11.268   8.315  71.311  1.00  0.00    -0.302 C  
HETATM    3  C   UNL     1     -12.240   7.972  72.445  1.00  0.00    -0.337 C  
HETATM    4  C   UNL     1     -11.056   9.833  71.146  1.00  0.00    -0.414 C  
ENDROOT
BRANCH   4   5
HETATM    5  C   UNL     1     -12.368  10.562  70.888  1.00  0.00    -0.490 C  
BRANCH   5   6
HETATM    6  C   UNL     1     -12.183  11.852  70.095  1.00  0.00    -0.319 C  
HETATM    7  C   UNL     1     -10.905  11.808  69.235  1.00  0.00    -0.185 C  
HETATM    8  C   UNL     1     -10.926  10.647  68.229  1.00  0.00    -0.314 C  
HETATM    9  C   UNL     1     -10.723  13.165  68.534  1.00  0.00    -0.277 C  
BRANCH   9  10
HETATM   10  C   UNL     1      -9.471  13.182  67.663  1.00  0.00    -0.207 C  
BRANCH  10  11
HETATM   11  C   UNL     1      -9.789  13.460  66.203  1.00  0.00    -0.289 C  
HETATM   12  C   UNL     1     -11.287  13.267  65.898  1.00  0.00    -0.333 C  
HETATM   13  C   UNL     1     -11.565  13.418  64.390  1.00  0.00    -0.421 C  
HETATM   14  C   UNL     1     -12.176  14.233  66.691  1.00  0.00    -0.411 C  
BRANCH  13  15
HETATM   15  C   UNL     1     -10.811  12.427  63.494  1.00  0.00    -0.487 C  
BRANCH  15  16
HETATM   16  C   UNL     1     -10.947  10.979  63.969  1.00  0.00    -0.116 C  
BRANCH  16  17
HETATM   17  C   UNL     1      -9.604  10.341  64.218  1.00  0.00    -0.375 C  
HETATM   18  C   UNL     1      -9.411   9.612  65.336  1.00  0.00    -0.343 C  
HETATM   19  C   UNL     1      -8.562  10.517  63.153  1.00  0.00    -0.186 C  
BRANCH  18  20
HETATM   20  C   UNL     1      -8.174   8.837  65.704  1.00  0.00    -0.121 C  
BRANCH  20  21
HETATM   21  C   UNL     1      -8.465   7.355  65.832  1.00  0.00    -0.155 C  
HETATM   22  C   UNL     1      -8.317   6.454  64.837  1.00  0.00    -0.062 C  
HETATM   23  C   UNL     1      -7.891   6.769  63.428  1.00  0.00    -0.107 C  
HETATM   24  C   UNL     1      -8.552   5.000  65.076  1.00  0.00    -0.149 C  
HETATM   25  O   UNL     1      -8.462   4.187  64.166  1.00  0.00    -0.099 OA 
HETATM   26  C   UNL     1      -8.876   4.556  66.439  1.00  0.00    -0.113 A  
HETATM   27  C   UNL     1      -9.059   5.482  67.456  1.00  0.00    -0.107 A  
HETATM   28  C   UNL     1      -8.931   6.920  67.182  1.00  0.00    -0.120 C  
HETATM   29  C   UNL     1      -9.376   5.049  68.749  1.00  0.00    -0.175 A  
HETATM   30  C   UNL     1      -9.503   3.685  69.021  1.00  0.00    -0.226 A  
HETATM   31  O   UNL     1      -9.196   7.727  68.065  1.00  0.00    -0.138 OA 
HETATM   32  C   UNL     1      -9.315   2.753  68.001  1.00  0.00    -0.257 A  
HETATM   33  C   UNL     1      -9.003   3.186  66.711  1.00  0.00    -0.172 A  
ENDBRANCH  20  21
ENDBRANCH  18  20
ENDBRANCH  16  17
ENDBRANCH  15  16
ENDBRANCH  13  15
ENDBRANCH  10  11
ENDBRANCH   9  10
ENDBRANCH   5   6
ENDBRANCH   4   5
TORSDOF 9
ENDMDL
MODEL      270
REMARK 921   NORMALIZED FREE ENERGY PREDICTED BY IDOCK:   -3.96 KCAL/MOL
REMARK 922        TOTAL FREE ENERGY PREDICTED BY IDOCK:   -9.24 KCAL/MOL
REMARK 923 INTER-LIGAND FREE ENERGY PREDICTED BY IDOCK:   -6.97 KCAL/MOL
REMARK 924 INTRA-LIGAND FREE ENERGY PREDICTED BY IDOCK:   -2.27 KCAL/MOL
REMARK 927      BINDING AFFINITY PREDICTED BY RF-SCORE:    0.00 PKD
ROOT
HETATM    1  C   UNL     1     -10.833   6.927  73.078  1.00  0.00    -0.328 C  
HETATM    2  C   UNL     1     -11.454   6.374  71.798  1.00  0.00    -0.349 C  
HETATM    3  C   UNL     1     -12.726   7.158  71.457  1.00  0.00    -0.433 C  
HETATM    4  C   UNL     1     -10.413   6.402  70.662  1.00  0.00    -0.269 C  
ENDROOT
BRANCH   4   5
HETATM    5  C   UNL     1     -10.980   5.850  69.361  1.00  0.00    -0.421 C  
BRANCH   5   6
HETATM    6  C   UNL     1     -10.751   6.780  68.174  1.00  0.00    -0.295 C  
HETATM    7  C   UNL     1      -9.248   6.993  67.905  1.00  0.00    -0.125 C  
HETATM    8  C   UNL     1      -8.524   5.672  67.603  1.00  0.00    -0.102 C  
HETATM    9  C   UNL     1      -9.081   8.008  66.761  1.00  0.00    -0.189 C  
BRANCH   9  10
HETATM   10  C   UNL     1      -7.610   8.259  66.446  1.00  0.00    -0.091 C  
BRANCH  10  11
HETATM   11  C   UNL     1      -6.940   9.137  67.491  1.00  0.00    -0.078 C  
HETATM   12  C   UNL     1      -6.361   8.305  68.651  1.00  0.00    -0.053 C  
HETATM   13  C   UNL     1      -5.810   9.220  69.763  1.00  0.00    -0.035 C  
HETATM   14  C   UNL     1      -5.268   7.333  68.188  1.00  0.00    -0.024 C  
BRANCH  13  15
HETATM   15  C   UNL     1      -6.842  10.169  70.385  1.00  0.00    -0.129 C  
BRANCH  15  16
HETATM   16  C   UNL     1      -8.233   9.542  70.492  1.00  0.00    -0.203 C  
BRANCH  16  17
HETATM   17  C   UNL     1      -9.261  10.317  69.707  1.00  0.00    -0.101 C  
HETATM   18  C   UNL     1      -8.859  11.172  68.746  1.00  0.00    -0.128 C  
HETATM   19  C   UNL     1     -10.702  10.038  70.018  1.00  0.00    -0.348 C  
BRANCH  18  20
HETATM   20  C   UNL     1      -9.740  11.958  67.811  1.00  0.00    -0.189 C  
BRANCH  20  21
HETATM   21  C   UNL     1      -9.199  13.355  67.582  1.00  0.00    -0.212 C  
HETATM   22  C   UNL     1      -7.888  13.670  67.519  1.00  0.00    -0.185 C  
HETATM   23  C   UNL     1      -6.746  12.708  67.715  1.00  0.00    -0.127 C  
HETATM   24  C   UNL     1      -7.446  15.062  67.210  1.00  0.00    -0.181 C  
HETATM   25  O   UNL     1      -6.259  15.360  67.195  1.00  0.00    -0.307 OA 
HETATM   26  C   UNL     1      -8.469  16.070  66.899  1.00  0.00    -0.275 A  
HETATM   27  C   UNL     1      -9.817  15.756  66.993  1.00  0.00    -0.238 A  
HETATM   28  C   UNL     1     -10.239  14.411  67.405  1.00  0.00    -0.247 C  
HETATM   29  C   UNL     1     -10.784  16.728  66.704  1.00  0.00    -0.107 A  
HETATM   30  C   UNL     1     -10.395  18.011  66.314  1.00  0.00    -0.384 A  
HETATM   31  O   UNL     1     -11.430  14.181  67.582  1.00  0.00    -0.302 OA 
HETATM   32  C   UNL     1      -9.040  18.325  66.215  1.00  0.00    -0.205 A  
HETATM   33  C   UNL     1      -8.077  17.359  66.507  1.00  0.00    -0.312 A  
ENDBRANCH  20  21
ENDBRANCH  18  20
ENDBRANCH  16  17
ENDBRANCH  15  16
ENDBRANCH  13  15
ENDBRANCH  10  11
ENDBRANCH   9  10
ENDBRANCH   5   6
ENDBRANCH   4   5
TORSDOF 9
ENDMDL
MODEL      271
REMARK 921   NORMALIZED FREE ENERGY PREDICTED BY IDOCK:   -3.96 KCAL/MOL
REMARK 922        TOTAL FREE ENERGY PREDICTED BY IDOCK:   -9.24 KCAL/MOL
REMARK 923 INTER-LIGAND FREE ENERGY PREDICTED BY IDOCK:   -7.66 KCAL/MOL
REMARK 924 INTRA-LIGAND FREE ENERGY PREDICTED BY IDOCK:   -1.58 KCAL/MOL
REMARK 927      BINDING AFFINITY PREDICTED BY RF-SCORE:    0.00 PKD
ROOT
HETATM    1  C   UNL     1     -13.335   8.739  71.489  1.00  0.00    -0.355 C  
HETATM    2  C   UNL     1     -12.571  10.037  71.739  1.00  0.00    -0.504 C  
HETATM    3  C   UNL     1     -11.340  10.097  70.827  1.00  0.00    -0.436 C  
HETATM    4  C   UNL     1     -13.515  11.239  71.548  1.00  0.00    -0.014 C  
ENDROOT
BRANCH   4   5
HETATM    5  C   UNL     1     -12.803  12.563  71.794  1.00  0.00    -0.347 C  
BRANCH   5   6
HETATM    6  C   UNL     1     -12.074  13.083  70.559  1.00  0.00    -0.373 C  
HETATM    7  C   UNL     1     -12.176  14.616  70.447  1.00  0.00    -0.391 C  
HETATM    8  C   UNL     1     -11.574  15.326  71.669  1.00  0.00    -0.473 C  
HETATM    9  C   UNL     1     -11.506  15.071  69.138  1.00  0.00    -0.320 C  
BRANCH   9  10
HETATM   10  C   UNL     1     -11.573  16.585  68.972  1.00  0.00    -0.027 C  
BRANCH  10  11
HETATM   11  C   UNL     1     -10.197  17.230  69.010  1.00  0.00    -0.318 C  
HETATM   12  C   UNL     1      -9.811  17.834  67.647  1.00  0.00    -0.299 C  
HETATM   13  C   UNL     1      -8.362  18.358  67.668  1.00  0.00    -0.260 C  
HETATM   14  C   UNL     1     -10.764  18.954  67.210  1.00  0.00    -0.523 C  
BRANCH  13  15
HETATM   15  C   UNL     1      -7.299  17.299  67.987  1.00  0.00    -0.193 C  
BRANCH  15  16
HETATM   16  C   UNL     1      -7.230  16.194  66.932  1.00  0.00    -0.240 C  
BRANCH  16  17
HETATM   17  C   UNL     1      -7.363  14.822  67.545  1.00  0.00    -0.225 C  
HETATM   18  C   UNL     1      -8.514  14.137  67.398  1.00  0.00    -0.214 C  
HETATM   19  C   UNL     1      -6.156  14.274  68.247  1.00  0.00    -0.119 C  
BRANCH  18  20
HETATM   20  C   UNL     1      -8.793  12.732  67.863  1.00  0.00    -0.186 C  
BRANCH  20  21
HETATM   21  C   UNL     1      -8.231  11.707  66.899  1.00  0.00    -0.169 C  
HETATM   22  C   UNL     1      -7.192  10.888  67.168  1.00  0.00    -0.104 C  
HETATM   23  C   UNL     1      -6.385  10.885  68.439  1.00  0.00    -0.053 C  
HETATM   24  C   UNL     1      -6.757   9.852  66.185  1.00  0.00    -0.092 C  
HETATM   25  O   UNL     1      -5.788   9.138  66.407  1.00  0.00    -0.056 OA 
HETATM   26  C   UNL     1      -7.531   9.689  64.946  1.00  0.00    -0.118 A  
HETATM   27  C   UNL     1      -8.580  10.549  64.655  1.00  0.00    -0.167 A  
HETATM   28  C   UNL     1      -8.929  11.635  65.581  1.00  0.00    -0.015 C  
HETATM   29  C   UNL     1      -9.305  10.391  63.467  1.00  0.00    -0.333 A  
HETATM   30  C   UNL     1      -8.981   9.365  62.578  1.00  0.00    -0.241 A  
HETATM   31  O   UNL     1      -9.789  12.447  65.260  1.00  0.00    -0.245 OA 
HETATM   32  C   UNL     1      -7.930   8.497  62.873  1.00  0.00    -0.159 A  
HETATM   33  C   UNL     1      -7.204   8.658  64.054  1.00  0.00    -0.092 A  
ENDBRANCH  20  21
ENDBRANCH  18  20
ENDBRANCH  16  17
ENDBRANCH  15  16
ENDBRANCH  13  15
ENDBRANCH  10  11
ENDBRANCH   9  10
ENDBRANCH   5   6
ENDBRANCH   4   5
TORSDOF 9
ENDMDL
MODEL      272
REMARK 921   NORMALIZED FREE ENERGY PREDICTED BY IDOCK:   -3.94 KCAL/MOL
REMARK 922        TOTAL FREE ENERGY PREDICTED BY IDOCK:   -9.21 KCAL/MOL
REMARK 923 INTER-LIGAND FREE ENERGY PREDICTED BY IDOCK:   -5.41 KCAL/MOL
REMARK 924 INTRA-LIGAND FREE ENERGY PREDICTED BY IDOCK:   -3.80 KCAL/MOL
REMARK 927      BINDING AFFINITY PREDICTED BY RF-SCORE:    0.00 PKD
ROOT
HETATM    1  C   UNL     1     -12.235  15.227  64.292  1.00  0.00    -0.205 C  
HETATM    2  C   UNL     1     -11.085  14.314  64.712  1.00  0.00    -0.398 C  
HETATM    3  C   UNL     1     -10.980  14.282  66.240  1.00  0.00    -0.317 C  
HETATM    4  C   UNL     1     -11.283  12.915  64.098  1.00  0.00    -0.432 C  
ENDROOT
BRANCH   4   5
HETATM    5  C   UNL     1     -10.156  11.965  64.479  1.00  0.00    -0.302 C  
BRANCH   5   6
HETATM    6  C   UNL     1     -10.596  10.888  65.466  1.00  0.00    -0.240 C  
HETATM    7  C   UNL     1      -9.436  10.453  66.383  1.00  0.00    -0.209 C  
HETATM    8  C   UNL     1      -8.876  11.627  67.201  1.00  0.00    -0.172 C  
HETATM    9  C   UNL     1      -9.914   9.305  67.289  1.00  0.00    -0.264 C  
BRANCH   9  10
HETATM   10  C   UNL     1      -8.806   8.832  68.224  1.00  0.00    -0.141 C  
BRANCH  10  11
HETATM   11  C   UNL     1      -7.749   8.016  67.497  1.00  0.00    -0.106 C  
HETATM   12  C   UNL     1      -6.353   8.658  67.610  1.00  0.00    -0.053 C  
HETATM   13  C   UNL     1      -5.325   7.894  66.754  1.00  0.00    -0.028 C  
HETATM   14  C   UNL     1      -5.863   8.743  69.061  1.00  0.00    -0.040 C  
BRANCH  13  15
HETATM   15  C   UNL     1      -5.652   7.834  65.256  1.00  0.00    -0.037 C  
BRANCH  15  16
HETATM   16  C   UNL     1      -5.556   6.418  64.686  1.00  0.00    -0.025 C  
BRANCH  16  17
HETATM   17  C   UNL     1      -6.605   5.505  65.268  1.00  0.00    -0.040 C  
HETATM   18  C   UNL     1      -6.267   4.641  66.245  1.00  0.00    -0.032 C  
HETATM   19  C   UNL     1      -8.003   5.661  64.747  1.00  0.00    -0.119 C  
BRANCH  18  20
HETATM   20  C   UNL     1      -7.194   3.722  66.998  1.00  0.00    -0.064 C  
BRANCH  20  21
HETATM   21  C   UNL     1      -7.744   4.387  68.244  1.00  0.00    -0.075 C  
HETATM   22  C   UNL     1      -7.009   4.711  69.329  1.00  0.00    -0.051 C  
HETATM   23  C   UNL     1      -5.542   4.424  69.511  1.00  0.00    -0.016 C  
HETATM   24  C   UNL     1      -7.620   5.438  70.481  1.00  0.00    -0.080 C  
HETATM   25  O   UNL     1      -6.968   5.694  71.485  1.00  0.00    -0.064 OA 
HETATM   26  C   UNL     1      -9.024   5.862  70.379  1.00  0.00    -0.154 A  
HETATM   27  C   UNL     1      -9.788   5.504  69.278  1.00  0.00    -0.233 A  
HETATM   28  C   UNL     1      -9.204   4.694  68.200  1.00  0.00    -0.128 C  
HETATM   29  C   UNL     1     -11.127   5.906  69.195  1.00  0.00    -0.328 A  
HETATM   30  C   UNL     1     -11.694   6.673  70.214  1.00  0.00    -0.432 A  
HETATM   31  O   UNL     1      -9.920   4.301  67.286  1.00  0.00    -0.179 OA 
HETATM   32  C   UNL     1     -10.925   7.038  71.319  1.00  0.00    -0.270 A  
HETATM   33  C   UNL     1      -9.591   6.633  71.404  1.00  0.00    -0.174 A  
ENDBRANCH  20  21
ENDBRANCH  18  20
ENDBRANCH  16  17
ENDBRANCH  15  16
ENDBRANCH  13  15
ENDBRANCH  10  11
ENDBRANCH   9  10
ENDBRANCH   5   6
ENDBRANCH   4   5
TORSDOF 9
ENDMDL
MODEL      273
REMARK 921   NORMALIZED FREE ENERGY PREDICTED BY IDOCK:   -3.94 KCAL/MOL
REMARK 922        TOTAL FREE ENERGY PREDICTED BY IDOCK:   -9.21 KCAL/MOL
REMARK 923 INTER-LIGAND FREE ENERGY PREDICTED BY IDOCK:   -7.90 KCAL/MOL
REMARK 924 INTRA-LIGAND FREE ENERGY PREDICTED BY IDOCK:   -1.31 KCAL/MOL
REMARK 927      BINDING AFFINITY PREDICTED BY RF-SCORE:    0.00 PKD
ROOT
HETATM    1  C   UNL     1      -6.408  20.652  64.699  1.00  0.00    -0.340 C  
HETATM    2  C   UNL     1      -6.701  19.607  65.773  1.00  0.00    -0.283 C  
HETATM    3  C   UNL     1      -5.961  19.969  67.065  1.00  0.00    -0.189 C  
HETATM    4  C   UNL     1      -8.224  19.482  65.972  1.00  0.00    -0.280 C  
ENDROOT
BRANCH   4   5
HETATM    5  C   UNL     1      -8.572  18.443  67.030  1.00  0.00    -0.264 C  
BRANCH   5   6
HETATM    6  C   UNL     1      -9.891  17.730  66.748  1.00  0.00    -0.320 C  
HETATM    7  C   UNL     1      -9.839  16.252  67.182  1.00  0.00    -0.243 C  
HETATM    8  C   UNL     1      -9.545  16.102  68.683  1.00  0.00    -0.226 C  
HETATM    9  C   UNL     1     -11.157  15.565  66.789  1.00  0.00    -0.206 C  
BRANCH   9  10
HETATM   10  C   UNL     1     -11.166  14.095  67.196  1.00  0.00    -0.330 C  
BRANCH  10  11
HETATM   11  C   UNL     1     -10.443  13.215  66.189  1.00  0.00    -0.287 C  
HETATM   12  C   UNL     1     -11.361  12.111  65.632  1.00  0.00    -0.395 C  
HETATM   13  C   UNL     1     -10.574  11.148  64.721  1.00  0.00    -0.371 C  
HETATM   14  C   UNL     1     -12.567  12.679  64.872  1.00  0.00    -0.525 C  
BRANCH  13  15
HETATM   15  C   UNL     1      -9.402  10.431  65.403  1.00  0.00    -0.252 C  
BRANCH  15  16
HETATM   16  C   UNL     1      -8.545   9.632  64.420  1.00  0.00    -0.208 C  
BRANCH  16  17
HETATM   17  C   UNL     1      -8.337   8.212  64.881  1.00  0.00    -0.133 C  
HETATM   18  C   UNL     1      -8.760   7.841  66.106  1.00  0.00    -0.177 C  
HETATM   19  C   UNL     1      -7.707   7.267  63.901  1.00  0.00    -0.120 C  
BRANCH  18  20
HETATM   20  C   UNL     1      -8.714   6.455  66.695  1.00  0.00    -0.127 C  
BRANCH  20  21
HETATM   21  C   UNL     1      -8.901   6.485  68.199  1.00  0.00    -0.115 C  
HETATM   22  C   UNL     1      -7.898   6.594  69.096  1.00  0.00    -0.111 C  
HETATM   23  C   UNL     1      -6.431   6.652  68.766  1.00  0.00    -0.046 C  
HETATM   24  C   UNL     1      -8.183   6.695  70.558  1.00  0.00    -0.118 C  
HETATM   25  O   UNL     1      -7.275   6.750  71.376  1.00  0.00    -0.078 OA 
HETATM   26  C   UNL     1      -9.585   6.750  70.998  1.00  0.00    -0.175 A  
HETATM   27  C   UNL     1     -10.615   6.608  70.081  1.00  0.00    -0.264 A  
HETATM   28  C   UNL     1     -10.319   6.399  68.657  1.00  0.00    -0.199 C  
HETATM   29  C   UNL     1     -11.947   6.653  70.512  1.00  0.00    -0.377 A  
HETATM   30  C   UNL     1     -12.241   6.849  71.863  1.00  0.00    -0.370 A  
HETATM   31  O   UNL     1     -11.238   6.173  67.877  1.00  0.00    -0.304 OA 
HETATM   32  C   UNL     1     -11.205   6.996  72.785  1.00  0.00    -0.294 A  
HETATM   33  C   UNL     1      -9.878   6.947  72.355  1.00  0.00    -0.172 A  
ENDBRANCH  20  21
ENDBRANCH  18  20
ENDBRANCH  16  17
ENDBRANCH  15  16
ENDBRANCH  13  15
ENDBRANCH  10  11
ENDBRANCH   9  10
ENDBRANCH   5   6
ENDBRANCH   4   5
TORSDOF 9
ENDMDL
MODEL      274
REMARK 921   NORMALIZED FREE ENERGY PREDICTED BY IDOCK:   -3.93 KCAL/MOL
REMARK 922        TOTAL FREE ENERGY PREDICTED BY IDOCK:   -9.20 KCAL/MOL
REMARK 923 INTER-LIGAND FREE ENERGY PREDICTED BY IDOCK:   -9.25 KCAL/MOL
REMARK 924 INTRA-LIGAND FREE ENERGY PREDICTED BY IDOCK:    0.05 KCAL/MOL
REMARK 927      BINDING AFFINITY PREDICTED BY RF-SCORE:    0.00 PKD
ROOT
HETATM    1  C   UNL     1      -7.286  20.029  68.146  1.00  0.00    -0.315 C  
HETATM    2  C   UNL     1      -7.782  19.106  67.035  1.00  0.00    -0.259 C  
HETATM    3  C   UNL     1      -6.878  19.244  65.805  1.00  0.00    -0.306 C  
HETATM    4  C   UNL     1      -7.861  17.659  67.559  1.00  0.00    -0.211 C  
ENDROOT
BRANCH   4   5
HETATM    5  C   UNL     1      -8.360  16.697  66.490  1.00  0.00    -0.322 C  
BRANCH   5   6
HETATM    6  C   UNL     1      -9.795  16.239  66.728  1.00  0.00    -0.254 C  
HETATM    7  C   UNL     1     -10.142  16.224  68.229  1.00  0.00    -0.243 C  
HETATM    8  C   UNL     1      -9.989  17.611  68.871  1.00  0.00    -0.324 C  
HETATM    9  C   UNL     1     -11.565  15.667  68.411  1.00  0.00    -0.358 C  
BRANCH   9  10
HETATM   10  C   UNL     1     -11.967  15.629  69.882  1.00  0.00    -0.376 C  
BRANCH  10  11
HETATM   11  C   UNL     1     -12.658  14.328  70.256  1.00  0.00    -0.378 C  
HETATM   12  C   UNL     1     -13.076  14.309  71.738  1.00  0.00    -0.435 C  
HETATM   13  C   UNL     1     -13.648  12.932  72.131  1.00  0.00    -0.589 C  
HETATM   14  C   UNL     1     -14.090  15.410  72.076  1.00  0.00    -0.647 C  
BRANCH  13  15
HETATM   15  C   UNL     1     -12.683  11.756  71.940  1.00  0.00    -0.215 C  
BRANCH  15  16
HETATM   16  C   UNL     1     -12.836  11.081  70.576  1.00  0.00    -0.255 C  
BRANCH  16  17
HETATM   17  C   UNL     1     -11.502  10.733  69.967  1.00  0.00    -0.412 C  
HETATM   18  C   UNL     1     -10.787   9.708  70.472  1.00  0.00    -0.371 C  
HETATM   19  C   UNL     1     -11.073  11.535  68.774  1.00  0.00    -0.288 C  
BRANCH  18  20
HETATM   20  C   UNL     1      -9.485   9.169  69.939  1.00  0.00    -0.199 C  
BRANCH  20  21
HETATM   21  C   UNL     1      -9.629   7.734  69.471  1.00  0.00    -0.160 C  
HETATM   22  C   UNL     1     -10.015   7.366  68.231  1.00  0.00    -0.182 C  
HETATM   23  C   UNL     1     -10.416   8.305  67.124  1.00  0.00    -0.386 C  
HETATM   24  C   UNL     1     -10.053   5.928  67.834  1.00  0.00    -0.162 C  
HETATM   25  O   UNL     1     -10.444   5.588  66.725  1.00  0.00    -0.240 OA 
HETATM   26  C   UNL     1      -9.587   4.921  68.798  1.00  0.00    -0.219 A  
HETATM   27  C   UNL     1      -9.219   5.294  70.082  1.00  0.00    -0.181 A  
HETATM   28  C   UNL     1      -9.291   6.702  70.496  1.00  0.00    -0.166 C  
HETATM   29  C   UNL     1      -8.786   4.325  70.996  1.00  0.00    -0.127 A  
HETATM   30  C   UNL     1      -8.716   2.983  70.616  1.00  0.00    -0.131 A  
HETATM   31  O   UNL     1      -9.061   7.001  71.662  1.00  0.00    -0.139 OA 
HETATM   32  C   UNL     1      -9.082   2.608  69.324  1.00  0.00    -0.188 A  
HETATM   33  C   UNL     1      -9.518   3.573  68.415  1.00  0.00    -0.209 A  
ENDBRANCH  20  21
ENDBRANCH  18  20
ENDBRANCH  16  17
ENDBRANCH  15  16
ENDBRANCH  13  15
ENDBRANCH  10  11
ENDBRANCH   9  10
ENDBRANCH   5   6
ENDBRANCH   4   5
TORSDOF 9
ENDMDL
MODEL      275
REMARK 921   NORMALIZED FREE ENERGY PREDICTED BY IDOCK:   -3.92 KCAL/MOL
REMARK 922        TOTAL FREE ENERGY PREDICTED BY IDOCK:   -9.18 KCAL/MOL
REMARK 923 INTER-LIGAND FREE ENERGY PREDICTED BY IDOCK:   -7.70 KCAL/MOL
REMARK 924 INTRA-LIGAND FREE ENERGY PREDICTED BY IDOCK:   -1.48 KCAL/MOL
REMARK 927      BINDING AFFINITY PREDICTED BY RF-SCORE:    0.00 PKD
ROOT
HETATM    1  C   UNL     1      -9.256   7.491  71.715  1.00  0.00    -0.162 C  
HETATM    2  C   UNL     1     -10.653   8.006  71.377  1.00  0.00    -0.258 C  
HETATM    3  C   UNL     1     -11.656   7.511  72.425  1.00  0.00    -0.356 C  
HETATM    4  C   UNL     1     -10.625   9.542  71.256  1.00  0.00    -0.358 C  
ENDROOT
BRANCH   4   5
HETATM    5  C   UNL     1     -11.996  10.107  70.911  1.00  0.00    -0.461 C  
BRANCH   5   6
HETATM    6  C   UNL     1     -11.918  11.426  70.148  1.00  0.00    -0.460 C  
HETATM    7  C   UNL     1     -10.690  11.470  69.219  1.00  0.00    -0.171 C  
HETATM    8  C   UNL     1     -10.711  10.338  68.181  1.00  0.00    -0.287 C  
HETATM    9  C   UNL     1     -10.613  12.853  68.551  1.00  0.00    -0.270 C  
BRANCH   9  10
HETATM   10  C   UNL     1      -9.414  12.957  67.614  1.00  0.00    -0.197 C  
BRANCH  10  11
HETATM   11  C   UNL     1      -9.817  13.369  66.207  1.00  0.00    -0.295 C  
HETATM   12  C   UNL     1     -11.328  13.189  65.970  1.00  0.00    -0.337 C  
HETATM   13  C   UNL     1     -11.693  13.480  64.501  1.00  0.00    -0.431 C  
HETATM   14  C   UNL     1     -12.176  14.066  66.901  1.00  0.00    -0.415 C  
BRANCH  13  15
HETATM   15  C   UNL     1     -10.986  12.586  63.474  1.00  0.00    -0.472 C  
BRANCH  15  16
HETATM   16  C   UNL     1     -10.978  11.112  63.879  1.00  0.00    -0.271 C  
BRANCH  16  17
HETATM   17  C   UNL     1      -9.584  10.538  63.891  1.00  0.00    -0.363 C  
HETATM   18  C   UNL     1      -9.127   9.924  65.000  1.00  0.00    -0.264 C  
HETATM   19  C   UNL     1      -8.798  10.643  62.617  1.00  0.00    -0.293 C  
BRANCH  18  20
HETATM   20  C   UNL     1      -7.803   9.223  65.162  1.00  0.00    -0.110 C  
BRANCH  20  21
HETATM   21  C   UNL     1      -7.989   7.750  65.465  1.00  0.00    -0.121 C  
HETATM   22  C   UNL     1      -8.034   7.221  66.706  1.00  0.00    -0.118 C  
HETATM   23  C   UNL     1      -7.857   7.985  67.991  1.00  0.00    -0.126 C  
HETATM   24  C   UNL     1      -8.301   5.766  66.912  1.00  0.00    -0.108 C  
HETATM   25  O   UNL     1      -8.299   5.276  68.033  1.00  0.00    -0.099 OA 
HETATM   26  C   UNL     1      -8.590   4.932  65.736  1.00  0.00    -0.128 A  
HETATM   27  C   UNL     1      -8.515   5.468  64.459  1.00  0.00    -0.094 A  
HETATM   28  C   UNL     1      -8.143   6.876  64.264  1.00  0.00    -0.040 C  
HETATM   29  C   UNL     1      -8.783   4.662  63.345  1.00  0.00    -0.132 A  
HETATM   30  C   UNL     1      -9.134   3.321  63.517  1.00  0.00    -0.092 A  
HETATM   31  O   UNL     1      -7.981   7.305  63.128  1.00  0.00    -0.130 OA 
HETATM   32  C   UNL     1      -9.215   2.784  64.802  1.00  0.00    -0.143 A  
HETATM   33  C   UNL     1      -8.943   3.586  65.911  1.00  0.00    -0.142 A  
ENDBRANCH  20  21
ENDBRANCH  18  20
ENDBRANCH  16  17
ENDBRANCH  15  16
ENDBRANCH  13  15
ENDBRANCH  10  11
ENDBRANCH   9  10
ENDBRANCH   5   6
ENDBRANCH   4   5
TORSDOF 9
ENDMDL
MODEL      276
REMARK 921   NORMALIZED FREE ENERGY PREDICTED BY IDOCK:   -3.91 KCAL/MOL
REMARK 922        TOTAL FREE ENERGY PREDICTED BY IDOCK:   -9.16 KCAL/MOL
REMARK 923 INTER-LIGAND FREE ENERGY PREDICTED BY IDOCK:   -7.78 KCAL/MOL
REMARK 924 INTRA-LIGAND FREE ENERGY PREDICTED BY IDOCK:   -1.38 KCAL/MOL
REMARK 927      BINDING AFFINITY PREDICTED BY RF-SCORE:    0.00 PKD
ROOT
HETATM    1  C   UNL     1      -7.676  13.253  67.620  1.00  0.00    -0.171 C  
HETATM    2  C   UNL     1      -6.595  12.223  67.940  1.00  0.00    -0.087 C  
HETATM    3  C   UNL     1      -5.231  12.739  67.471  1.00  0.00    -0.072 C  
HETATM    4  C   UNL     1      -6.623  11.892  69.445  1.00  0.00    -0.108 C  
ENDROOT
BRANCH   4   5
HETATM    5  C   UNL     1      -5.568  10.860  69.817  1.00  0.00    -0.046 C  
BRANCH   5   6
HETATM    6  C   UNL     1      -5.651   9.595  68.969  1.00  0.00    -0.036 C  
HETATM    7  C   UNL     1      -6.355   8.452  69.727  1.00  0.00    -0.035 C  
HETATM    8  C   UNL     1      -7.787   8.828  70.136  1.00  0.00    -0.094 C  
HETATM    9  C   UNL     1      -6.326   7.181  68.861  1.00  0.00    -0.032 C  
BRANCH   9  10
HETATM   10  C   UNL     1      -7.012   6.012  69.560  1.00  0.00    -0.067 C  
BRANCH  10  11
HETATM   11  C   UNL     1      -8.332   5.643  68.902  1.00  0.00    -0.103 C  
HETATM   12  C   UNL     1      -8.137   4.630  67.758  1.00  0.00    -0.096 C  
HETATM   13  C   UNL     1      -9.464   4.376  67.016  1.00  0.00    -0.194 C  
HETATM   14  C   UNL     1      -7.550   3.300  68.246  1.00  0.00    -0.056 C  
BRANCH  13  15
HETATM   15  C   UNL     1     -10.098   5.622  66.385  1.00  0.00    -0.199 C  
BRANCH  15  16
HETATM   16  C   UNL     1     -10.803   6.511  67.411  1.00  0.00    -0.449 C  
BRANCH  16  17
HETATM   17  C   UNL     1     -10.288   7.928  67.376  1.00  0.00    -0.349 C  
HETATM   18  C   UNL     1     -10.880   8.869  68.138  1.00  0.00    -0.062 C  
HETATM   19  C   UNL     1      -9.088   8.191  66.516  1.00  0.00    -0.216 C  
BRANCH  18  20
HETATM   20  C   UNL     1     -10.449  10.304  68.294  1.00  0.00    -0.230 C  
BRANCH  20  21
HETATM   21  C   UNL     1     -11.317  11.038  69.297  1.00  0.00    -0.350 C  
HETATM   22  C   UNL     1     -11.902  10.464  70.370  1.00  0.00    -0.418 C  
HETATM   23  C   UNL     1     -11.839   9.003  70.726  1.00  0.00    -0.251 C  
HETATM   24  C   UNL     1     -12.677  11.281  71.351  1.00  0.00    -0.396 C  
HETATM   25  O   UNL     1     -13.245  10.758  72.300  1.00  0.00    -0.402 OA 
HETATM   26  C   UNL     1     -12.727  12.739  71.165  1.00  0.00    -0.355 A  
HETATM   27  C   UNL     1     -12.152  13.325  70.048  1.00  0.00    -0.385 A  
HETATM   28  C   UNL     1     -11.487  12.497  69.033  1.00  0.00    -0.304 C  
HETATM   29  C   UNL     1     -12.214  14.714  69.876  1.00  0.00    -0.365 A  
HETATM   30  C   UNL     1     -12.846  15.512  70.832  1.00  0.00    -0.535 A  
HETATM   31  O   UNL     1     -11.076  13.019  68.003  1.00  0.00    -0.239 OA 
HETATM   32  C   UNL     1     -13.419  14.923  71.959  1.00  0.00    -0.487 A  
HETATM   33  C   UNL     1     -13.362  13.538  72.127  1.00  0.00    -0.593 A  
ENDBRANCH  20  21
ENDBRANCH  18  20
ENDBRANCH  16  17
ENDBRANCH  15  16
ENDBRANCH  13  15
ENDBRANCH  10  11
ENDBRANCH   9  10
ENDBRANCH   5   6
ENDBRANCH   4   5
TORSDOF 9
ENDMDL
MODEL      277
REMARK 921   NORMALIZED FREE ENERGY PREDICTED BY IDOCK:   -3.89 KCAL/MOL
REMARK 922        TOTAL FREE ENERGY PREDICTED BY IDOCK:   -9.14 KCAL/MOL
REMARK 923 INTER-LIGAND FREE ENERGY PREDICTED BY IDOCK:   -7.30 KCAL/MOL
REMARK 924 INTRA-LIGAND FREE ENERGY PREDICTED BY IDOCK:   -1.84 KCAL/MOL
REMARK 927      BINDING AFFINITY PREDICTED BY RF-SCORE:    0.00 PKD
ROOT
HETATM    1  C   UNL     1      -5.513   7.893  73.420  1.00  0.00    -0.045 C  
HETATM    2  C   UNL     1      -6.351   7.556  72.188  1.00  0.00    -0.043 C  
HETATM    3  C   UNL     1      -6.156   8.636  71.118  1.00  0.00    -0.043 C  
HETATM    4  C   UNL     1      -5.990   6.145  71.685  1.00  0.00    -0.035 C  
ENDROOT
BRANCH   4   5
HETATM    5  C   UNL     1      -6.806   5.755  70.460  1.00  0.00    -0.056 C  
BRANCH   5   6
HETATM    6  C   UNL     1      -8.218   5.294  70.810  1.00  0.00    -0.110 C  
HETATM    7  C   UNL     1      -9.280   6.285  70.295  1.00  0.00    -0.163 C  
HETATM    8  C   UNL     1      -9.216   6.458  68.770  1.00  0.00    -0.127 C  
HETATM    9  C   UNL     1     -10.670   5.817  70.757  1.00  0.00    -0.342 C  
BRANCH   9  10
HETATM   10  C   UNL     1     -11.767   6.760  70.274  1.00  0.00    -0.397 C  
BRANCH  10  11
HETATM   11  C   UNL     1     -11.958   7.945  71.207  1.00  0.00    -0.321 C  
HETATM   12  C   UNL     1     -13.414   8.448  71.202  1.00  0.00    -0.043 C  
HETATM   13  C   UNL     1     -13.557   9.731  72.043  1.00  0.00    -0.436 C  
HETATM   14  C   UNL     1     -14.403   7.386  71.700  1.00  0.00    -0.614 C  
BRANCH  13  15
HETATM   15  C   UNL     1     -12.693  10.908  71.573  1.00  0.00    -0.533 C  
BRANCH  15  16
HETATM   16  C   UNL     1     -13.247  12.263  72.017  1.00  0.00    -0.508 C  
BRANCH  16  17
HETATM   17  C   UNL     1     -12.716  13.392  71.171  1.00  0.00    -0.411 C  
HETATM   18  C   UNL     1     -12.604  13.230  69.838  1.00  0.00     0.007 C  
HETATM   19  C   UNL     1     -12.392  14.674  71.880  1.00  0.00    -0.410 C  
BRANCH  18  20
HETATM   20  C   UNL     1     -12.179  14.270  68.835  1.00  0.00    -0.240 C  
BRANCH  20  21
HETATM   21  C   UNL     1     -10.712  14.132  68.480  1.00  0.00    -0.262 C  
HETATM   22  C   UNL     1      -9.762  15.045  68.775  1.00  0.00    -0.227 C  
HETATM   23  C   UNL     1      -9.998  16.367  69.454  1.00  0.00    -0.214 C  
HETATM   24  C   UNL     1      -8.326  14.789  68.457  1.00  0.00    -0.160 C  
HETATM   25  O   UNL     1      -7.468  15.632  68.684  1.00  0.00    -0.119 OA 
HETATM   26  C   UNL     1      -7.956  13.487  67.883  1.00  0.00    -0.162 A  
HETATM   27  C   UNL     1      -8.934  12.561  67.551  1.00  0.00    -0.185 A  
HETATM   28  C   UNL     1     -10.354  12.870  67.769  1.00  0.00    -0.222 C  
HETATM   29  C   UNL     1      -8.570  11.328  66.996  1.00  0.00    -0.148 A  
HETATM   30  C   UNL     1      -7.224  11.023  66.782  1.00  0.00    -0.139 A  
HETATM   31  O   UNL     1     -11.208  12.084  67.376  1.00  0.00    -0.268 OA 
HETATM   32  C   UNL     1      -6.241  11.952  67.119  1.00  0.00    -0.154 A  
HETATM   33  C   UNL     1      -6.603  13.183  67.668  1.00  0.00    -0.165 A  
ENDBRANCH  20  21
ENDBRANCH  18  20
ENDBRANCH  16  17
ENDBRANCH  15  16
ENDBRANCH  13  15
ENDBRANCH  10  11
ENDBRANCH   9  10
ENDBRANCH   5   6
ENDBRANCH   4   5
TORSDOF 9
ENDMDL
MODEL      278
REMARK 921   NORMALIZED FREE ENERGY PREDICTED BY IDOCK:   -3.88 KCAL/MOL
REMARK 922        TOTAL FREE ENERGY PREDICTED BY IDOCK:   -9.13 KCAL/MOL
REMARK 923 INTER-LIGAND FREE ENERGY PREDICTED BY IDOCK:   -7.11 KCAL/MOL
REMARK 924 INTRA-LIGAND FREE ENERGY PREDICTED BY IDOCK:   -2.02 KCAL/MOL
REMARK 927      BINDING AFFINITY PREDICTED BY RF-SCORE:    0.00 PKD
ROOT
HETATM    1  C   UNL     1      -8.731  20.215  67.563  1.00  0.00    -0.415 C  
HETATM    2  C   UNL     1      -9.716  19.048  67.547  1.00  0.00    -0.371 C  
HETATM    3  C   UNL     1     -11.149  19.581  67.435  1.00  0.00    -0.269 C  
HETATM    4  C   UNL     1      -9.350  18.077  66.409  1.00  0.00    -0.267 C  
ENDROOT
BRANCH   4   5
HETATM    5  C   UNL     1     -10.298  16.887  66.353  1.00  0.00    -0.302 C  
BRANCH   5   6
HETATM    6  C   UNL     1      -9.714  15.697  65.598  1.00  0.00    -0.348 C  
HETATM    7  C   UNL     1     -10.770  14.599  65.369  1.00  0.00    -0.382 C  
HETATM    8  C   UNL     1     -11.971  15.113  64.561  1.00  0.00    -0.326 C  
HETATM    9  C   UNL     1     -10.102  13.391  64.690  1.00  0.00    -0.256 C  
BRANCH   9  10
HETATM   10  C   UNL     1     -11.102  12.268  64.435  1.00  0.00    -0.381 C  
BRANCH  10  11
HETATM   11  C   UNL     1     -10.416  10.953  64.101  1.00  0.00    -0.397 C  
HETATM   12  C   UNL     1      -9.643  10.389  65.307  1.00  0.00    -0.316 C  
HETATM   13  C   UNL     1      -8.844   9.132  64.910  1.00  0.00    -0.215 C  
HETATM   14  C   UNL     1     -10.560  10.070  66.495  1.00  0.00    -0.165 C  
BRANCH  13  15
HETATM   15  C   UNL     1      -7.810   9.351  63.799  1.00  0.00    -0.132 C  
BRANCH  15  16
HETATM   16  C   UNL     1      -6.403   9.604  64.342  1.00  0.00    -0.100 C  
BRANCH  16  17
HETATM   17  C   UNL     1      -6.181   8.923  65.669  1.00  0.00    -0.052 C  
HETATM   18  C   UNL     1      -6.056   9.668  66.785  1.00  0.00    -0.063 C  
HETATM   19  C   UNL     1      -6.168   7.423  65.666  1.00  0.00    -0.038 C  
BRANCH  18  20
HETATM   20  C   UNL     1      -5.918   9.160  68.197  1.00  0.00    -0.045 C  
BRANCH  20  21
HETATM   21  C   UNL     1      -7.268   9.012  68.869  1.00  0.00    -0.073 C  
HETATM   22  C   UNL     1      -8.105  10.035  69.143  1.00  0.00    -0.126 C  
HETATM   23  C   UNL     1      -7.825  11.491  68.879  1.00  0.00    -0.071 C  
HETATM   24  C   UNL     1      -9.453   9.788  69.736  1.00  0.00    -0.228 C  
HETATM   25  O   UNL     1     -10.196  10.716  70.026  1.00  0.00    -0.091 OA 
HETATM   26  C   UNL     1      -9.882   8.398  69.947  1.00  0.00    -0.186 A  
HETATM   27  C   UNL     1      -9.012   7.347  69.694  1.00  0.00    -0.141 A  
HETATM   28  C   UNL     1      -7.649   7.611  69.214  1.00  0.00    -0.096 C  
HETATM   29  C   UNL     1      -9.428   6.027  69.907  1.00  0.00    -0.175 A  
HETATM   30  C   UNL     1     -10.721   5.764  70.366  1.00  0.00    -0.372 A  
HETATM   31  O   UNL     1      -6.861   6.679  69.094  1.00  0.00    -0.063 OA 
HETATM   32  C   UNL     1     -11.597   6.820  70.616  1.00  0.00    -0.422 A  
HETATM   33  C   UNL     1     -11.180   8.136  70.408  1.00  0.00    -0.221 A  
ENDBRANCH  20  21
ENDBRANCH  18  20
ENDBRANCH  16  17
ENDBRANCH  15  16
ENDBRANCH  13  15
ENDBRANCH  10  11
ENDBRANCH   9  10
ENDBRANCH   5   6
ENDBRANCH   4   5
TORSDOF 9
ENDMDL
MODEL      279
REMARK 921   NORMALIZED FREE ENERGY PREDICTED BY IDOCK:   -3.87 KCAL/MOL
REMARK 922        TOTAL FREE ENERGY PREDICTED BY IDOCK:   -9.11 KCAL/MOL
REMARK 923 INTER-LIGAND FREE ENERGY PREDICTED BY IDOCK:   -7.97 KCAL/MOL
REMARK 924 INTRA-LIGAND FREE ENERGY PREDICTED BY IDOCK:   -1.15 KCAL/MOL
REMARK 927      BINDING AFFINITY PREDICTED BY RF-SCORE:    0.00 PKD
ROOT
HETATM    1  C   UNL     1      -9.453  20.283  65.857  1.00  0.00    -0.188 C  
HETATM    2  C   UNL     1      -9.406  19.597  67.220  1.00  0.00    -0.429 C  
HETATM    3  C   UNL     1     -10.781  19.008  67.553  1.00  0.00    -0.532 C  
HETATM    4  C   UNL     1      -8.285  18.539  67.230  1.00  0.00    -0.254 C  
ENDROOT
BRANCH   4   5
HETATM    5  C   UNL     1      -8.189  17.829  68.573  1.00  0.00    -0.296 C  
BRANCH   5   6
HETATM    6  C   UNL     1      -7.350  16.557  68.513  1.00  0.00    -0.186 C  
HETATM    7  C   UNL     1      -8.230  15.309  68.302  1.00  0.00    -0.142 C  
HETATM    8  C   UNL     1      -9.041  15.389  66.999  1.00  0.00    -0.247 C  
HETATM    9  C   UNL     1      -7.341  14.054  68.343  1.00  0.00    -0.113 C  
BRANCH   9  10
HETATM   10  C   UNL     1      -8.158  12.783  68.137  1.00  0.00    -0.158 C  
BRANCH  10  11
HETATM   11  C   UNL     1      -7.536  11.581  68.829  1.00  0.00    -0.129 C  
HETATM   12  C   UNL     1      -6.088  11.340  68.364  1.00  0.00    -0.045 C  
HETATM   13  C   UNL     1      -5.524  10.040  68.971  1.00  0.00    -0.035 C  
HETATM   14  C   UNL     1      -5.161  12.516  68.698  1.00  0.00    -0.059 C  
BRANCH  13  15
HETATM   15  C   UNL     1      -6.308   8.771  68.615  1.00  0.00    -0.053 C  
BRANCH  15  16
HETATM   16  C   UNL     1      -6.662   7.931  69.843  1.00  0.00    -0.037 C  
BRANCH  16  17
HETATM   17  C   UNL     1      -8.124   7.565  69.872  1.00  0.00    -0.129 C  
HETATM   18  C   UNL     1      -9.013   8.325  69.203  1.00  0.00    -0.147 C  
HETATM   19  C   UNL     1      -8.495   6.317  70.618  1.00  0.00    -0.134 C  
BRANCH  18  20
HETATM   20  C   UNL     1     -10.489   8.063  69.050  1.00  0.00    -0.212 C  
BRANCH  20  21
HETATM   21  C   UNL     1     -11.314   9.066  69.833  1.00  0.00    -0.016 C  
HETATM   22  C   UNL     1     -12.000   8.781  70.961  1.00  0.00    -0.291 C  
HETATM   23  C   UNL     1     -12.107   7.423  71.602  1.00  0.00    -0.349 C  
HETATM   24  C   UNL     1     -12.721   9.851  71.711  1.00  0.00    -0.428 C  
HETATM   25  O   UNL     1     -13.380   9.590  72.709  1.00  0.00    -0.263 OA 
HETATM   26  C   UNL     1     -12.608  11.239  71.238  1.00  0.00    -0.487 A  
HETATM   27  C   UNL     1     -11.929  11.528  70.064  1.00  0.00    -0.435 A  
HETATM   28  C   UNL     1     -11.315  10.450  69.276  1.00  0.00    -0.235 C  
HETATM   29  C   UNL     1     -11.835  12.852  69.617  1.00  0.00    -0.387 A  
HETATM   30  C   UNL     1     -12.416  13.885  70.356  1.00  0.00    -0.404 A  
HETATM   31  O   UNL     1     -10.809  10.710  68.190  1.00  0.00    -0.206 OA 
HETATM   32  C   UNL     1     -13.094  13.595  71.540  1.00  0.00    -0.431 A  
HETATM   33  C   UNL     1     -13.192  12.275  71.982  1.00  0.00    -0.508 A  
ENDBRANCH  20  21
ENDBRANCH  18  20
ENDBRANCH  16  17
ENDBRANCH  15  16
ENDBRANCH  13  15
ENDBRANCH  10  11
ENDBRANCH   9  10
ENDBRANCH   5   6
ENDBRANCH   4   5
TORSDOF 9
ENDMDL
MODEL      280
REMARK 921   NORMALIZED FREE ENERGY PREDICTED BY IDOCK:   -3.86 KCAL/MOL
REMARK 922        TOTAL FREE ENERGY PREDICTED BY IDOCK:   -9.10 KCAL/MOL
REMARK 923 INTER-LIGAND FREE ENERGY PREDICTED BY IDOCK:   -7.24 KCAL/MOL
REMARK 924 INTRA-LIGAND FREE ENERGY PREDICTED BY IDOCK:   -1.86 KCAL/MOL
REMARK 927      BINDING AFFINITY PREDICTED BY RF-SCORE:    0.00 PKD
ROOT
HETATM    1  C   UNL     1      -7.931   3.767  74.385  1.00  0.00    -0.081 C  
HETATM    2  C   UNL     1      -8.885   4.875  73.945  1.00  0.00    -0.114 C  
HETATM    3  C   UNL     1      -8.284   6.243  74.286  1.00  0.00    -0.116 C  
HETATM    4  C   UNL     1      -9.205   4.720  72.446  1.00  0.00    -0.149 C  
ENDROOT
BRANCH   4   5
HETATM    5  C   UNL     1     -10.162   5.798  71.957  1.00  0.00    -0.245 C  
BRANCH   5   6
HETATM    6  C   UNL     1      -9.478   6.851  71.092  1.00  0.00    -0.166 C  
HETATM    7  C   UNL     1      -8.747   6.212  69.896  1.00  0.00    -0.136 C  
HETATM    8  C   UNL     1      -9.704   5.423  68.989  1.00  0.00    -0.208 C  
HETATM    9  C   UNL     1      -8.001   7.309  69.117  1.00  0.00    -0.119 C  
BRANCH   9  10
HETATM   10  C   UNL     1      -7.257   6.735  67.915  1.00  0.00    -0.091 C  
BRANCH  10  11
HETATM   11  C   UNL     1      -7.424   7.594  66.672  1.00  0.00    -0.093 C  
HETATM   12  C   UNL     1      -7.524   6.738  65.395  1.00  0.00    -0.084 C  
HETATM   13  C   UNL     1      -7.553   7.628  64.137  1.00  0.00    -0.113 C  
HETATM   14  C   UNL     1      -8.746   5.810  65.405  1.00  0.00    -0.122 C  
BRANCH  13  15
HETATM   15  C   UNL     1      -6.325   8.528  63.957  1.00  0.00    -0.072 C  
BRANCH  15  16
HETATM   16  C   UNL     1      -6.680  10.016  63.936  1.00  0.00    -0.128 C  
BRANCH  16  17
HETATM   17  C   UNL     1      -8.159  10.239  63.747  1.00  0.00    -0.143 C  
HETATM   18  C   UNL     1      -8.915  10.614  64.798  1.00  0.00    -0.218 C  
HETATM   19  C   UNL     1      -8.695  10.078  62.355  1.00  0.00    -0.234 C  
BRANCH  18  20
HETATM   20  C   UNL     1     -10.380  10.962  64.777  1.00  0.00    -0.391 C  
BRANCH  20  21
HETATM   21  C   UNL     1     -10.847  11.481  66.122  1.00  0.00    -0.330 C  
HETATM   22  C   UNL     1     -10.962  10.728  67.237  1.00  0.00    -0.359 C  
HETATM   23  C   UNL     1     -10.701   9.248  67.326  1.00  0.00    -0.244 C  
HETATM   24  C   UNL     1     -11.355  11.341  68.540  1.00  0.00    -0.276 C  
HETATM   25  O   UNL     1     -11.503  10.655  69.543  1.00  0.00    -0.250 OA 
HETATM   26  C   UNL     1     -11.540  12.798  68.603  1.00  0.00    -0.352 A  
HETATM   27  C   UNL     1     -11.452  13.568  67.453  1.00  0.00    -0.366 A  
HETATM   28  C   UNL     1     -11.172  12.937  66.156  1.00  0.00    -0.292 C  
HETATM   29  C   UNL     1     -11.639  14.955  67.523  1.00  0.00    -0.355 A  
HETATM   30  C   UNL     1     -11.908  15.566  68.749  1.00  0.00    -0.335 A  
HETATM   31  O   UNL     1     -11.199  13.617  65.137  1.00  0.00    -0.298 OA 
HETATM   32  C   UNL     1     -11.992  14.792  69.906  1.00  0.00    -0.378 A  
HETATM   33  C   UNL     1     -11.810  13.410  69.836  1.00  0.00    -0.385 A  
ENDBRANCH  20  21
ENDBRANCH  18  20
ENDBRANCH  16  17
ENDBRANCH  15  16
ENDBRANCH  13  15
ENDBRANCH  10  11
ENDBRANCH   9  10
ENDBRANCH   5   6
ENDBRANCH   4   5
TORSDOF 9
ENDMDL
MODEL      281
REMARK 921   NORMALIZED FREE ENERGY PREDICTED BY IDOCK:   -3.86 KCAL/MOL
REMARK 922        TOTAL FREE ENERGY PREDICTED BY IDOCK:   -9.09 KCAL/MOL
REMARK 923 INTER-LIGAND FREE ENERGY PREDICTED BY IDOCK:   -6.80 KCAL/MOL
REMARK 924 INTRA-LIGAND FREE ENERGY PREDICTED BY IDOCK:   -2.30 KCAL/MOL
REMARK 927      BINDING AFFINITY PREDICTED BY RF-SCORE:    0.00 PKD
ROOT
HETATM    1  C   UNL     1      -7.226   4.616  62.887  1.00  0.00    -0.040 C  
HETATM    2  C   UNL     1      -7.465   5.805  63.815  1.00  0.00    -0.069 C  
HETATM    3  C   UNL     1      -7.153   5.406  65.261  1.00  0.00    -0.066 C  
HETATM    4  C   UNL     1      -6.635   7.012  63.336  1.00  0.00    -0.044 C  
ENDROOT
BRANCH   4   5
HETATM    5  C   UNL     1      -6.845   8.231  64.224  1.00  0.00    -0.066 C  
BRANCH   5   6
HETATM    6  C   UNL     1      -8.313   8.622  64.357  1.00  0.00    -0.148 C  
HETATM    7  C   UNL     1      -8.526  10.122  64.075  1.00  0.00    -0.185 C  
HETATM    8  C   UNL     1      -8.070  10.515  62.662  1.00  0.00    -0.183 C  
HETATM    9  C   UNL     1     -10.004  10.475  64.315  1.00  0.00    -0.398 C  
BRANCH   9  10
HETATM   10  C   UNL     1     -10.277  11.952  64.049  1.00  0.00    -0.394 C  
BRANCH  10  11
HETATM   11  C   UNL     1     -10.589  12.717  65.325  1.00  0.00    -0.312 C  
HETATM   12  C   UNL     1     -10.907  14.197  65.041  1.00  0.00    -0.408 C  
HETATM   13  C   UNL     1     -11.083  14.985  66.354  1.00  0.00    -0.329 C  
HETATM   14  C   UNL     1     -12.149  14.372  64.158  1.00  0.00    -0.405 C  
BRANCH  13  15
HETATM   15  C   UNL     1      -9.859  14.976  67.279  1.00  0.00    -0.228 C  
BRANCH  15  16
HETATM   16  C   UNL     1      -9.982  13.957  68.412  1.00  0.00    -0.233 C  
BRANCH  16  17
HETATM   17  C   UNL     1      -9.000  12.823  68.258  1.00  0.00    -0.175 C  
HETATM   18  C   UNL     1      -9.426  11.552  68.394  1.00  0.00    -0.195 C  
HETATM   19  C   UNL     1      -7.591  13.192  67.901  1.00  0.00    -0.147 C  
BRANCH  18  20
HETATM   20  C   UNL     1      -8.612  10.301  68.190  1.00  0.00    -0.119 C  
BRANCH  20  21
HETATM   21  C   UNL     1      -9.154   9.146  69.008  1.00  0.00    -0.143 C  
HETATM   22  C   UNL     1     -10.067   8.255  68.568  1.00  0.00    -0.217 C  
HETATM   23  C   UNL     1     -10.739   8.283  67.221  1.00  0.00    -0.241 C  
HETATM   24  C   UNL     1     -10.486   7.101  69.417  1.00  0.00    -0.222 C  
HETATM   25  O   UNL     1     -11.345   6.317  69.039  1.00  0.00    -0.390 OA 
HETATM   26  C   UNL     1      -9.825   6.910  70.717  1.00  0.00    -0.190 A  
HETATM   27  C   UNL     1      -8.909   7.841  71.183  1.00  0.00    -0.143 A  
HETATM   28  C   UNL     1      -8.587   9.031  70.384  1.00  0.00    -0.193 C  
HETATM   29  C   UNL     1      -8.293   7.654  72.427  1.00  0.00    -0.147 A  
HETATM   30  C   UNL     1      -8.592   6.527  73.196  1.00  0.00    -0.126 A  
HETATM   31  O   UNL     1      -7.855   9.894  70.856  1.00  0.00    -0.235 OA 
HETATM   32  C   UNL     1      -9.510   5.589  72.725  1.00  0.00    -0.160 A  
HETATM   33  C   UNL     1     -10.127   5.778  71.488  1.00  0.00    -0.246 A  
ENDBRANCH  20  21
ENDBRANCH  18  20
ENDBRANCH  16  17
ENDBRANCH  15  16
ENDBRANCH  13  15
ENDBRANCH  10  11
ENDBRANCH   9  10
ENDBRANCH   5   6
ENDBRANCH   4   5
TORSDOF 9
ENDMDL
MODEL      282
REMARK 921   NORMALIZED FREE ENERGY PREDICTED BY IDOCK:   -3.86 KCAL/MOL
REMARK 922        TOTAL FREE ENERGY PREDICTED BY IDOCK:   -9.09 KCAL/MOL
REMARK 923 INTER-LIGAND FREE ENERGY PREDICTED BY IDOCK:   -6.70 KCAL/MOL
REMARK 924 INTRA-LIGAND FREE ENERGY PREDICTED BY IDOCK:   -2.39 KCAL/MOL
REMARK 927      BINDING AFFINITY PREDICTED BY RF-SCORE:    0.00 PKD
ROOT
HETATM    1  C   UNL     1     -12.127  13.617  66.190  1.00  0.00    -0.477 C  
HETATM    2  C   UNL     1     -11.581  12.203  66.007  1.00  0.00    -0.420 C  
HETATM    3  C   UNL     1     -11.259  11.957  64.529  1.00  0.00    -0.380 C  
HETATM    4  C   UNL     1     -10.361  11.995  66.926  1.00  0.00    -0.238 C  
ENDROOT
BRANCH   4   5
HETATM    5  C   UNL     1      -9.782  10.593  66.790  1.00  0.00    -0.222 C  
BRANCH   5   6
HETATM    6  C   UNL     1     -10.822   9.499  67.008  1.00  0.00    -0.125 C  
HETATM    7  C   UNL     1     -10.175   8.100  67.021  1.00  0.00    -0.378 C  
HETATM    8  C   UNL     1      -9.121   7.962  68.129  1.00  0.00    -0.133 C  
HETATM    9  C   UNL     1     -11.279   7.036  67.150  1.00  0.00    -0.129 C  
BRANCH   9  10
HETATM   10  C   UNL     1     -10.698   5.626  67.170  1.00  0.00    -0.316 C  
BRANCH  10  11
HETATM   11  C   UNL     1      -9.353   5.548  66.466  1.00  0.00    -0.154 C  
HETATM   12  C   UNL     1      -9.214   4.255  65.640  1.00  0.00    -0.148 C  
HETATM   13  C   UNL     1      -7.797   4.129  65.049  1.00  0.00    -0.089 C  
HETATM   14  C   UNL     1     -10.257   4.160  64.519  1.00  0.00    -0.172 C  
BRANCH  13  15
HETATM   15  C   UNL     1      -6.667   4.102  66.086  1.00  0.00    -0.049 C  
BRANCH  15  16
HETATM   16  C   UNL     1      -6.288   5.497  66.584  1.00  0.00    -0.036 C  
BRANCH  16  17
HETATM   17  C   UNL     1      -6.236   5.563  68.089  1.00  0.00    -0.033 C  
HETATM   18  C   UNL     1      -7.117   4.848  68.817  1.00  0.00    -0.053 C  
HETATM   19  C   UNL     1      -5.145   6.396  68.693  1.00  0.00    -0.004 C  
BRANCH  18  20
HETATM   20  C   UNL     1      -7.157   4.725  70.318  1.00  0.00    -0.049 C  
BRANCH  20  21
HETATM   21  C   UNL     1      -8.095   5.744  70.933  1.00  0.00    -0.119 C  
HETATM   22  C   UNL     1      -7.699   6.864  71.574  1.00  0.00    -0.095 C  
HETATM   23  C   UNL     1      -6.272   7.266  71.834  1.00  0.00    -0.040 C  
HETATM   24  C   UNL     1      -8.697   7.852  72.080  1.00  0.00    -0.142 C  
HETATM   25  O   UNL     1      -8.343   8.846  72.700  1.00  0.00    -0.392 OA 
HETATM   26  C   UNL     1     -10.121   7.619  71.799  1.00  0.00    -0.210 A  
HETATM   27  C   UNL     1     -10.531   6.455  71.167  1.00  0.00    -0.265 A  
HETATM   28  C   UNL     1      -9.547   5.438  70.772  1.00  0.00    -0.173 C  
HETATM   29  C   UNL     1     -11.892   6.239  70.913  1.00  0.00    -0.215 A  
HETATM   30  C   UNL     1     -12.836   7.197  71.286  1.00  0.00    -0.399 A  
HETATM   31  O   UNL     1      -9.936   4.372  70.309  1.00  0.00    -0.217 OA 
HETATM   32  C   UNL     1     -12.423   8.370  71.917  1.00  0.00    -0.390 A  
HETATM   33  C   UNL     1     -11.068   8.583  72.175  1.00  0.00    -0.436 A  
ENDBRANCH  20  21
ENDBRANCH  18  20
ENDBRANCH  16  17
ENDBRANCH  15  16
ENDBRANCH  13  15
ENDBRANCH  10  11
ENDBRANCH   9  10
ENDBRANCH   5   6
ENDBRANCH   4   5
TORSDOF 9
ENDMDL
MODEL      283
REMARK 921   NORMALIZED FREE ENERGY PREDICTED BY IDOCK:   -3.84 KCAL/MOL
REMARK 922        TOTAL FREE ENERGY PREDICTED BY IDOCK:   -9.06 KCAL/MOL
REMARK 923 INTER-LIGAND FREE ENERGY PREDICTED BY IDOCK:   -7.81 KCAL/MOL
REMARK 924 INTRA-LIGAND FREE ENERGY PREDICTED BY IDOCK:   -1.26 KCAL/MOL
REMARK 927      BINDING AFFINITY PREDICTED BY RF-SCORE:    0.00 PKD
ROOT
HETATM    1  C   UNL     1      -6.191  20.974  64.017  1.00  0.00    -0.348 C  
HETATM    2  C   UNL     1      -6.253  20.653  65.508  1.00  0.00    -0.277 C  
HETATM    3  C   UNL     1      -7.647  20.129  65.869  1.00  0.00    -0.272 C  
HETATM    4  C   UNL     1      -5.131  19.663  65.873  1.00  0.00    -0.165 C  
ENDROOT
BRANCH   4   5
HETATM    5  C   UNL     1      -5.142  19.315  67.355  1.00  0.00    -0.160 C  
BRANCH   5   6
HETATM    6  C   UNL     1      -5.132  17.812  67.612  1.00  0.00    -0.131 C  
HETATM    7  C   UNL     1      -6.330  17.379  68.480  1.00  0.00    -0.176 C  
HETATM    8  C   UNL     1      -7.674  17.726  67.821  1.00  0.00    -0.214 C  
HETATM    9  C   UNL     1      -6.216  15.875  68.782  1.00  0.00    -0.109 C  
BRANCH   9  10
HETATM   10  C   UNL     1      -7.379  15.386  69.639  1.00  0.00    -0.177 C  
BRANCH  10  11
HETATM   11  C   UNL     1      -8.646  15.179  68.824  1.00  0.00    -0.182 C  
HETATM   12  C   UNL     1      -8.387  14.318  67.573  1.00  0.00    -0.198 C  
HETATM   13  C   UNL     1      -9.648  14.235  66.691  1.00  0.00    -0.302 C  
HETATM   14  C   UNL     1      -7.902  12.905  67.924  1.00  0.00    -0.151 C  
BRANCH  13  15
HETATM   15  C   UNL     1     -10.169  15.586  66.185  1.00  0.00    -0.322 C  
BRANCH  15  16
HETATM   16  C   UNL     1     -11.025  15.455  64.925  1.00  0.00    -0.453 C  
BRANCH  16  17
HETATM   17  C   UNL     1     -11.626  14.078  64.793  1.00  0.00    -0.387 C  
HETATM   18  C   UNL     1     -10.928  13.104  64.176  1.00  0.00    -0.418 C  
HETATM   19  C   UNL     1     -12.970  13.863  65.422  1.00  0.00    -0.368 C  
BRANCH  18  20
HETATM   20  C   UNL     1     -11.330  11.660  64.031  1.00  0.00    -0.428 C  
BRANCH  20  21
HETATM   21  C   UNL     1     -10.366  10.740  64.753  1.00  0.00    -0.380 C  
HETATM   22  C   UNL     1      -9.322  10.112  64.172  1.00  0.00    -0.340 C  
HETATM   23  C   UNL     1      -8.966  10.173  62.710  1.00  0.00    -0.268 C  
HETATM   24  C   UNL     1      -8.376   9.286  64.979  1.00  0.00    -0.154 C  
HETATM   25  O   UNL     1      -7.454   8.680  64.448  1.00  0.00    -0.100 OA 
HETATM   26  C   UNL     1      -8.560   9.231  66.436  1.00  0.00    -0.141 A  
HETATM   27  C   UNL     1      -9.649   9.850  67.031  1.00  0.00    -0.218 A  
HETATM   28  C   UNL     1     -10.634  10.569  66.211  1.00  0.00    -0.133 C  
HETATM   29  C   UNL     1      -9.820   9.783  68.420  1.00  0.00    -0.168 A  
HETATM   30  C   UNL     1      -8.892   9.101  69.209  1.00  0.00    -0.144 A  
HETATM   31  O   UNL     1     -11.643  11.021  66.740  1.00  0.00    -0.319 OA 
HETATM   32  C   UNL     1      -7.794   8.482  68.612  1.00  0.00    -0.108 A  
HETATM   33  C   UNL     1      -7.627   8.545  67.227  1.00  0.00    -0.097 A  
ENDBRANCH  20  21
ENDBRANCH  18  20
ENDBRANCH  16  17
ENDBRANCH  15  16
ENDBRANCH  13  15
ENDBRANCH  10  11
ENDBRANCH   9  10
ENDBRANCH   5   6
ENDBRANCH   4   5
TORSDOF 9
ENDMDL
MODEL      284
REMARK 921   NORMALIZED FREE ENERGY PREDICTED BY IDOCK:   -3.84 KCAL/MOL
REMARK 922        TOTAL FREE ENERGY PREDICTED BY IDOCK:   -9.06 KCAL/MOL
REMARK 923 INTER-LIGAND FREE ENERGY PREDICTED BY IDOCK:   -6.21 KCAL/MOL
REMARK 924 INTRA-LIGAND FREE ENERGY PREDICTED BY IDOCK:   -2.86 KCAL/MOL
REMARK 927      BINDING AFFINITY PREDICTED BY RF-SCORE:    0.00 PKD
ROOT
HETATM    1  C   UNL     1     -11.879  12.921  66.803  1.00  0.00    -0.452 C  
HETATM    2  C   UNL     1     -10.380  12.786  66.540  1.00  0.00    -0.262 C  
HETATM    3  C   UNL     1      -9.598  13.634  67.548  1.00  0.00    -0.220 C  
HETATM    4  C   UNL     1      -9.980  11.298  66.574  1.00  0.00    -0.247 C  
ENDROOT
BRANCH   4   5
HETATM    5  C   UNL     1      -8.493  11.106  66.308  1.00  0.00    -0.168 C  
BRANCH   5   6
HETATM    6  C   UNL     1      -7.990   9.727  66.723  1.00  0.00    -0.105 C  
HETATM    7  C   UNL     1      -8.693   8.607  65.931  1.00  0.00    -0.201 C  
HETATM    8  C   UNL     1      -8.469   8.743  64.417  1.00  0.00    -0.146 C  
HETATM    9  C   UNL     1      -8.215   7.243  66.456  1.00  0.00    -0.117 C  
BRANCH   9  10
HETATM   10  C   UNL     1      -8.877   6.091  65.707  1.00  0.00    -0.143 C  
BRANCH  10  11
HETATM   11  C   UNL     1      -9.112   4.883  66.599  1.00  0.00    -0.119 C  
HETATM   12  C   UNL     1      -9.584   5.296  68.006  1.00  0.00    -0.163 C  
HETATM   13  C   UNL     1      -9.684   4.070  68.935  1.00  0.00    -0.151 C  
HETATM   14  C   UNL     1     -10.925   6.040  67.980  1.00  0.00    -0.340 C  
BRANCH  13  15
HETATM   15  C   UNL     1      -8.371   3.301  69.129  1.00  0.00    -0.085 C  
BRANCH  15  16
HETATM   16  C   UNL     1      -7.171   4.225  69.343  1.00  0.00    -0.051 C  
BRANCH  16  17
HETATM   17  C   UNL     1      -7.334   5.084  70.572  1.00  0.00    -0.061 C  
HETATM   18  C   UNL     1      -7.545   6.408  70.434  1.00  0.00    -0.096 C  
HETATM   19  C   UNL     1      -7.307   4.382  71.897  1.00  0.00    -0.069 C  
BRANCH  18  20
HETATM   20  C   UNL     1      -7.815   7.398  71.537  1.00  0.00    -0.087 C  
BRANCH  20  21
HETATM   21  C   UNL     1      -9.154   8.083  71.352  1.00  0.00    -0.175 C  
HETATM   22  C   UNL     1      -9.344   9.224  70.656  1.00  0.00    -0.329 C  
HETATM   23  C   UNL     1      -8.262  10.036  69.993  1.00  0.00    -0.139 C  
HETATM   24  C   UNL     1     -10.713   9.786  70.460  1.00  0.00    -0.317 C  
HETATM   25  O   UNL     1     -10.883  10.843  69.867  1.00  0.00    -0.235 OA 
HETATM   26  C   UNL     1     -11.863   9.029  70.976  1.00  0.00    -0.339 A  
HETATM   27  C   UNL     1     -11.668   7.873  71.716  1.00  0.00    -0.329 A  
HETATM   28  C   UNL     1     -10.309   7.390  71.996  1.00  0.00    -0.193 C  
HETATM   29  C   UNL     1     -12.770   7.164  72.211  1.00  0.00    -0.009 A  
HETATM   30  C   UNL     1     -14.067   7.615  71.954  1.00  0.00    -0.444 A  
HETATM   31  O   UNL     1     -10.152   6.426  72.737  1.00  0.00    -0.175 OA 
HETATM   32  C   UNL     1     -14.263   8.775  71.206  1.00  0.00    -0.203 A  
HETATM   33  C   UNL     1     -13.164   9.483  70.717  1.00  0.00    -0.038 A  
ENDBRANCH  20  21
ENDBRANCH  18  20
ENDBRANCH  16  17
ENDBRANCH  15  16
ENDBRANCH  13  15
ENDBRANCH  10  11
ENDBRANCH   9  10
ENDBRANCH   5   6
ENDBRANCH   4   5
TORSDOF 9
ENDMDL
MODEL      285
REMARK 921   NORMALIZED FREE ENERGY PREDICTED BY IDOCK:   -3.83 KCAL/MOL
REMARK 922        TOTAL FREE ENERGY PREDICTED BY IDOCK:   -9.05 KCAL/MOL
REMARK 923 INTER-LIGAND FREE ENERGY PREDICTED BY IDOCK:   -7.83 KCAL/MOL
REMARK 924 INTRA-LIGAND FREE ENERGY PREDICTED BY IDOCK:   -1.22 KCAL/MOL
REMARK 927      BINDING AFFINITY PREDICTED BY RF-SCORE:    0.00 PKD
ROOT
HETATM    1  C   UNL     1      -7.809  19.323  68.835  1.00  0.00    -0.367 C  
HETATM    2  C   UNL     1      -8.450  18.366  67.831  1.00  0.00    -0.274 C  
HETATM    3  C   UNL     1      -7.720  17.019  67.861  1.00  0.00    -0.180 C  
HETATM    4  C   UNL     1      -9.956  18.236  68.128  1.00  0.00    -0.377 C  
ENDROOT
BRANCH   4   5
HETATM    5  C   UNL     1     -10.646  17.297  67.147  1.00  0.00    -0.256 C  
BRANCH   5   6
HETATM    6  C   UNL     1     -10.943  15.927  67.747  1.00  0.00    -0.315 C  
HETATM    7  C   UNL     1     -11.052  14.844  66.656  1.00  0.00    -0.329 C  
HETATM    8  C   UNL     1      -9.759  14.718  65.837  1.00  0.00    -0.355 C  
HETATM    9  C   UNL     1     -11.444  13.508  67.311  1.00  0.00    -0.369 C  
BRANCH   9  10
HETATM   10  C   UNL     1     -11.565  12.393  66.277  1.00  0.00    -0.449 C  
BRANCH  10  11
HETATM   11  C   UNL     1     -10.326  11.514  66.232  1.00  0.00    -0.280 C  
HETATM   12  C   UNL     1     -10.398  10.483  65.090  1.00  0.00    -0.310 C  
HETATM   13  C   UNL     1      -9.201   9.514  65.146  1.00  0.00    -0.305 C  
HETATM   14  C   UNL     1     -10.470  11.143  63.707  1.00  0.00    -0.444 C  
BRANCH  13  15
HETATM   15  C   UNL     1      -9.084   8.709  66.446  1.00  0.00    -0.218 C  
BRANCH  15  16
HETATM   16  C   UNL     1     -10.264   7.761  66.663  1.00  0.00    -0.288 C  
BRANCH  16  17
HETATM   17  C   UNL     1     -10.575   7.574  68.126  1.00  0.00    -0.201 C  
HETATM   18  C   UNL     1     -10.146   8.488  69.019  1.00  0.00    -0.207 C  
HETATM   19  C   UNL     1     -11.410   6.383  68.494  1.00  0.00    -0.187 C  
BRANCH  18  20
HETATM   20  C   UNL     1     -10.436   8.509  70.497  1.00  0.00    -0.230 C  
BRANCH  20  21
HETATM   21  C   UNL     1      -9.620   7.468  71.238  1.00  0.00    -0.165 C  
HETATM   22  C   UNL     1      -8.274   7.480  71.343  1.00  0.00    -0.106 C  
HETATM   23  C   UNL     1      -7.354   8.489  70.709  1.00  0.00    -0.066 C  
HETATM   24  C   UNL     1      -7.558   6.456  72.160  1.00  0.00    -0.094 C  
HETATM   25  O   UNL     1      -6.336   6.437  72.223  1.00  0.00    -0.051 OA 
HETATM   26  C   UNL     1      -8.356   5.475  72.911  1.00  0.00    -0.116 A  
HETATM   27  C   UNL     1      -9.736   5.442  72.779  1.00  0.00    -0.169 A  
HETATM   28  C   UNL     1     -10.419   6.387  71.886  1.00  0.00    -0.209 C  
HETATM   29  C   UNL     1     -10.485   4.497  73.492  1.00  0.00    -0.272 A  
HETATM   30  C   UNL     1      -9.847   3.592  74.342  1.00  0.00    -0.169 A  
HETATM   31  O   UNL     1     -11.626   6.278  71.703  1.00  0.00    -0.297 OA 
HETATM   32  C   UNL     1      -8.459   3.628  74.479  1.00  0.00    -0.088 A  
HETATM   33  C   UNL     1      -7.712   4.566  73.764  1.00  0.00    -0.090 A  
ENDBRANCH  20  21
ENDBRANCH  18  20
ENDBRANCH  16  17
ENDBRANCH  15  16
ENDBRANCH  13  15
ENDBRANCH  10  11
ENDBRANCH   9  10
ENDBRANCH   5   6
ENDBRANCH   4   5
TORSDOF 9
ENDMDL
MODEL      286
REMARK 921   NORMALIZED FREE ENERGY PREDICTED BY IDOCK:   -3.83 KCAL/MOL
REMARK 922        TOTAL FREE ENERGY PREDICTED BY IDOCK:   -9.05 KCAL/MOL
REMARK 923 INTER-LIGAND FREE ENERGY PREDICTED BY IDOCK:   -7.10 KCAL/MOL
REMARK 924 INTRA-LIGAND FREE ENERGY PREDICTED BY IDOCK:   -1.95 KCAL/MOL
REMARK 927      BINDING AFFINITY PREDICTED BY RF-SCORE:    0.00 PKD
ROOT
HETATM    1  C   UNL     1     -13.491  14.309  72.797  1.00  0.00    -0.590 C  
HETATM    2  C   UNL     1     -12.804  14.483  71.444  1.00  0.00    -0.406 C  
HETATM    3  C   UNL     1     -11.549  15.347  71.607  1.00  0.00    -0.492 C  
HETATM    4  C   UNL     1     -12.501  13.100  70.836  1.00  0.00    -0.407 C  
ENDROOT
BRANCH   4   5
HETATM    5  C   UNL     1     -11.821  13.216  69.478  1.00  0.00    -0.383 C  
BRANCH   5   6
HETATM    6  C   UNL     1     -11.298  11.879  68.961  1.00  0.00    -0.337 C  
HETATM    7  C   UNL     1     -11.486  10.758  70.001  1.00  0.00    -0.412 C  
HETATM    8  C   UNL     1     -12.962  10.561  70.377  1.00  0.00    -0.208 C  
HETATM    9  C   UNL     1     -10.857   9.462  69.463  1.00  0.00    -0.231 C  
BRANCH   9  10
HETATM   10  C   UNL     1     -11.014   8.311  70.451  1.00  0.00    -0.244 C  
BRANCH  10  11
HETATM   11  C   UNL     1     -10.067   7.160  70.149  1.00  0.00    -0.195 C  
HETATM   12  C   UNL     1     -10.769   6.032  69.370  1.00  0.00    -0.403 C  
HETATM   13  C   UNL     1      -9.834   4.820  69.195  1.00  0.00    -0.254 C  
HETATM   14  C   UNL     1     -11.282   6.497  68.000  1.00  0.00    -0.251 C  
BRANCH  13  15
HETATM   15  C   UNL     1      -9.339   4.195  70.505  1.00  0.00    -0.211 C  
BRANCH  15  16
HETATM   16  C   UNL     1      -7.880   3.742  70.430  1.00  0.00    -0.047 C  
BRANCH  16  17
HETATM   17  C   UNL     1      -7.117   4.476  69.356  1.00  0.00    -0.051 C  
HETATM   18  C   UNL     1      -6.826   5.782  69.521  1.00  0.00    -0.061 C  
HETATM   19  C   UNL     1      -6.674   3.671  68.170  1.00  0.00    -0.046 C  
BRANCH  18  20
HETATM   20  C   UNL     1      -6.005   6.646  68.601  1.00  0.00    -0.022 C  
BRANCH  20  21
HETATM   21  C   UNL     1      -6.724   7.937  68.262  1.00  0.00    -0.063 C  
HETATM   22  C   UNL     1      -6.507   9.120  68.875  1.00  0.00    -0.048 C  
HETATM   23  C   UNL     1      -5.561   9.351  70.023  1.00  0.00    -0.035 C  
HETATM   24  C   UNL     1      -7.205  10.359  68.422  1.00  0.00    -0.080 C  
HETATM   25  O   UNL     1      -7.044  11.424  69.003  1.00  0.00    -0.102 OA 
HETATM   26  C   UNL     1      -8.081  10.280  67.243  1.00  0.00    -0.120 A  
HETATM   27  C   UNL     1      -8.328   9.060  66.632  1.00  0.00    -0.118 A  
HETATM   28  C   UNL     1      -7.720   7.829  67.156  1.00  0.00    -0.105 C  
HETATM   29  C   UNL     1      -9.171   8.995  65.515  1.00  0.00    -0.262 A  
HETATM   30  C   UNL     1      -9.758  10.157  65.010  1.00  0.00    -0.384 A  
HETATM   31  O   UNL     1      -8.030   6.749  66.668  1.00  0.00    -0.105 OA 
HETATM   32  C   UNL     1      -9.505  11.384  65.622  1.00  0.00    -0.253 A  
HETATM   33  C   UNL     1      -8.669  11.448  66.737  1.00  0.00    -0.174 A  
ENDBRANCH  20  21
ENDBRANCH  18  20
ENDBRANCH  16  17
ENDBRANCH  15  16
ENDBRANCH  13  15
ENDBRANCH  10  11
ENDBRANCH   9  10
ENDBRANCH   5   6
ENDBRANCH   4   5
TORSDOF 9
ENDMDL
MODEL      287
REMARK 921   NORMALIZED FREE ENERGY PREDICTED BY IDOCK:   -3.83 KCAL/MOL
REMARK 922        TOTAL FREE ENERGY PREDICTED BY IDOCK:   -9.04 KCAL/MOL
REMARK 923 INTER-LIGAND FREE ENERGY PREDICTED BY IDOCK:   -7.22 KCAL/MOL
REMARK 924 INTRA-LIGAND FREE ENERGY PREDICTED BY IDOCK:   -1.83 KCAL/MOL
REMARK 927      BINDING AFFINITY PREDICTED BY RF-SCORE:    0.00 PKD
ROOT
HETATM    1  C   UNL     1     -14.410   8.036  72.073  1.00  0.00    -0.511 C  
HETATM    2  C   UNL     1     -13.202   8.746  71.465  1.00  0.00    -0.356 C  
HETATM    3  C   UNL     1     -13.416  10.263  71.511  1.00  0.00    -0.336 C  
HETATM    4  C   UNL     1     -11.919   8.302  72.193  1.00  0.00    -0.429 C  
ENDROOT
BRANCH   4   5
HETATM    5  C   UNL     1     -10.681   8.976  71.618  1.00  0.00    -0.441 C  
BRANCH   5   6
HETATM    6  C   UNL     1     -10.620   8.905  70.096  1.00  0.00    -0.243 C  
HETATM    7  C   UNL     1      -9.718   7.750  69.619  1.00  0.00    -0.172 C  
HETATM    8  C   UNL     1     -10.212   6.386  70.124  1.00  0.00    -0.229 C  
HETATM    9  C   UNL     1      -9.621   7.788  68.084  1.00  0.00    -0.161 C  
BRANCH   9  10
HETATM   10  C   UNL     1      -8.740   6.663  67.551  1.00  0.00    -0.118 C  
BRANCH  10  11
HETATM   11  C   UNL     1      -7.377   7.164  67.102  1.00  0.00    -0.090 C  
HETATM   12  C   UNL     1      -6.522   7.640  68.291  1.00  0.00    -0.049 C  
HETATM   13  C   UNL     1      -5.203   8.270  67.803  1.00  0.00    -0.034 C  
HETATM   14  C   UNL     1      -6.224   6.512  69.288  1.00  0.00    -0.034 C  
BRANCH  13  15
HETATM   15  C   UNL     1      -5.372   9.484  66.881  1.00  0.00    -0.045 C  
BRANCH  15  16
HETATM   16  C   UNL     1      -5.416  10.807  67.646  1.00  0.00    -0.043 C  
BRANCH  16  17
HETATM   17  C   UNL     1      -6.802  11.118  68.152  1.00  0.00    -0.067 C  
HETATM   18  C   UNL     1      -7.702  11.682  67.322  1.00  0.00    -0.154 C  
HETATM   19  C   UNL     1      -7.113  10.719  69.564  1.00  0.00    -0.132 C  
BRANCH  18  20
HETATM   20  C   UNL     1      -9.146  11.981  67.627  1.00  0.00    -0.179 C  
BRANCH  20  21
HETATM   21  C   UNL     1      -9.625  13.216  66.891  1.00  0.00    -0.248 C  
HETATM   22  C   UNL     1     -10.605  13.225  65.962  1.00  0.00    -0.292 C  
HETATM   23  C   UNL     1     -11.350  12.015  65.463  1.00  0.00    -0.381 C  
HETATM   24  C   UNL     1     -11.066  14.503  65.344  1.00  0.00    -0.345 C  
HETATM   25  O   UNL     1     -11.923  14.510  64.471  1.00  0.00    -0.440 OA 
HETATM   26  C   UNL     1     -10.483  15.765  65.823  1.00  0.00    -0.384 A  
HETATM   27  C   UNL     1      -9.456  15.755  66.755  1.00  0.00    -0.259 A  
HETATM   28  C   UNL     1      -8.935  14.483  67.274  1.00  0.00    -0.210 C  
HETATM   29  C   UNL     1      -8.901  16.963  67.198  1.00  0.00    -0.221 A  
HETATM   30  C   UNL     1      -9.385  18.178  66.709  1.00  0.00    -0.286 A  
HETATM   31  O   UNL     1      -7.961  14.489  68.017  1.00  0.00    -0.118 OA 
HETATM   32  C   UNL     1     -10.421  18.188  65.776  1.00  0.00    -0.215 A  
HETATM   33  C   UNL     1     -10.970  16.985  65.332  1.00  0.00     0.004 A  
ENDBRANCH  20  21
ENDBRANCH  18  20
ENDBRANCH  16  17
ENDBRANCH  15  16
ENDBRANCH  13  15
ENDBRANCH  10  11
ENDBRANCH   9  10
ENDBRANCH   5   6
ENDBRANCH   4   5
TORSDOF 9
ENDMDL
MODEL      288
REMARK 921   NORMALIZED FREE ENERGY PREDICTED BY IDOCK:   -3.81 KCAL/MOL
REMARK 922        TOTAL FREE ENERGY PREDICTED BY IDOCK:   -9.01 KCAL/MOL
REMARK 923 INTER-LIGAND FREE ENERGY PREDICTED BY IDOCK:   -7.32 KCAL/MOL
REMARK 924 INTRA-LIGAND FREE ENERGY PREDICTED BY IDOCK:   -1.69 KCAL/MOL
REMARK 927      BINDING AFFINITY PREDICTED BY RF-SCORE:    0.00 PKD
ROOT
HETATM    1  C   UNL     1      -6.920   7.182  71.495  1.00  0.00    -0.064 C  
HETATM    2  C   UNL     1      -6.648   8.685  71.523  1.00  0.00    -0.075 C  
HETATM    3  C   UNL     1      -5.197   8.941  71.945  1.00  0.00    -0.046 C  
HETATM    4  C   UNL     1      -6.989   9.299  70.152  1.00  0.00    -0.067 C  
ENDROOT
BRANCH   4   5
HETATM    5  C   UNL     1      -6.743  10.801  70.128  1.00  0.00    -0.116 C  
BRANCH   5   6
HETATM    6  C   UNL     1      -6.729  11.377  68.716  1.00  0.00    -0.073 C  
HETATM    7  C   UNL     1      -7.181  12.851  68.702  1.00  0.00    -0.098 C  
HETATM    8  C   UNL     1      -6.278  13.739  69.571  1.00  0.00    -0.116 C  
HETATM    9  C   UNL     1      -7.236  13.346  67.247  1.00  0.00    -0.023 C  
BRANCH   9  10
HETATM   10  C   UNL     1      -7.677  14.804  67.168  1.00  0.00    -0.149 C  
BRANCH  10  11
HETATM   11  C   UNL     1      -9.174  14.942  66.940  1.00  0.00    -0.265 C  
HETATM   12  C   UNL     1      -9.915  15.332  68.232  1.00  0.00    -0.222 C  
HETATM   13  C   UNL     1     -11.441  15.331  68.013  1.00  0.00    -0.351 C  
HETATM   14  C   UNL     1      -9.469  16.695  68.776  1.00  0.00    -0.258 C  
BRANCH  13  15
HETATM   15  C   UNL     1     -12.026  13.984  67.570  1.00  0.00    -0.430 C  
BRANCH  15  16
HETATM   16  C   UNL     1     -12.403  13.962  66.088  1.00  0.00    -0.504 C  
BRANCH  16  17
HETATM   17  C   UNL     1     -11.585  12.958  65.314  1.00  0.00    -0.376 C  
HETATM   18  C   UNL     1     -10.875  12.025  65.979  1.00  0.00    -0.329 C  
HETATM   19  C   UNL     1     -11.663  13.031  63.818  1.00  0.00    -0.547 C  
BRANCH  18  20
HETATM   20  C   UNL     1     -10.077  10.900  65.374  1.00  0.00    -0.336 C  
BRANCH  20  21
HETATM   21  C   UNL     1      -9.978   9.720  66.320  1.00  0.00    -0.331 C  
HETATM   22  C   UNL     1      -9.227   8.619  66.099  1.00  0.00    -0.271 C  
HETATM   23  C   UNL     1      -8.408   8.351  64.865  1.00  0.00    -0.159 C  
HETATM   24  C   UNL     1      -9.127   7.539  67.125  1.00  0.00    -0.127 C  
HETATM   25  O   UNL     1      -8.484   6.521  66.910  1.00  0.00    -0.112 OA 
HETATM   26  C   UNL     1      -9.804   7.732  68.416  1.00  0.00    -0.180 A  
HETATM   27  C   UNL     1     -10.599   8.848  68.633  1.00  0.00    -0.182 A  
HETATM   28  C   UNL     1     -10.777   9.850  67.574  1.00  0.00    -0.272 C  
HETATM   29  C   UNL     1     -11.247   9.017  69.863  1.00  0.00    -0.092 A  
HETATM   30  C   UNL     1     -11.087   8.070  70.877  1.00  0.00    -0.271 A  
HETATM   31  O   UNL     1     -11.564  10.775  67.745  1.00  0.00    -0.521 OA 
HETATM   32  C   UNL     1     -10.284   6.951  70.661  1.00  0.00    -0.212 A  
HETATM   33  C   UNL     1      -9.643   6.780  69.432  1.00  0.00    -0.146 A  
ENDBRANCH  20  21
ENDBRANCH  18  20
ENDBRANCH  16  17
ENDBRANCH  15  16
ENDBRANCH  13  15
ENDBRANCH  10  11
ENDBRANCH   9  10
ENDBRANCH   5   6
ENDBRANCH   4   5
TORSDOF 9
ENDMDL
MODEL      289
REMARK 921   NORMALIZED FREE ENERGY PREDICTED BY IDOCK:   -3.80 KCAL/MOL
REMARK 922        TOTAL FREE ENERGY PREDICTED BY IDOCK:   -9.00 KCAL/MOL
REMARK 923 INTER-LIGAND FREE ENERGY PREDICTED BY IDOCK:   -6.64 KCAL/MOL
REMARK 924 INTRA-LIGAND FREE ENERGY PREDICTED BY IDOCK:   -2.36 KCAL/MOL
REMARK 927      BINDING AFFINITY PREDICTED BY RF-SCORE:    0.00 PKD
ROOT
HETATM    1  C   UNL     1      -9.585  15.943  66.087  1.00  0.00    -0.365 C  
HETATM    2  C   UNL     1      -8.457  15.128  66.717  1.00  0.00    -0.272 C  
HETATM    3  C   UNL     1      -7.257  16.037  67.002  1.00  0.00    -0.249 C  
HETATM    4  C   UNL     1      -8.978  14.412  67.978  1.00  0.00    -0.183 C  
ENDROOT
BRANCH   4   5
HETATM    5  C   UNL     1      -7.892  13.575  68.642  1.00  0.00    -0.084 C  
BRANCH   5   6
HETATM    6  C   UNL     1      -7.412  12.424  67.764  1.00  0.00    -0.126 C  
HETATM    7  C   UNL     1      -7.006  11.201  68.609  1.00  0.00    -0.081 C  
HETATM    8  C   UNL     1      -8.171  10.675  69.460  1.00  0.00    -0.036 C  
HETATM    9  C   UNL     1      -6.444  10.111  67.679  1.00  0.00    -0.063 C  
BRANCH   9  10
HETATM   10  C   UNL     1      -6.025   8.870  68.460  1.00  0.00    -0.045 C  
BRANCH  10  11
HETATM   11  C   UNL     1      -6.407   7.584  67.745  1.00  0.00    -0.053 C  
HETATM   12  C   UNL     1      -5.356   6.478  67.956  1.00  0.00    -0.008 C  
HETATM   13  C   UNL     1      -5.691   5.232  67.114  1.00  0.00    -0.017 C  
HETATM   14  C   UNL     1      -5.207   6.085  69.432  1.00  0.00    -0.004 C  
BRANCH  13  15
HETATM   15  C   UNL     1      -5.761   5.478  65.601  1.00  0.00    -0.014 C  
BRANCH  15  16
HETATM   16  C   UNL     1      -7.163   5.867  65.129  1.00  0.00    -0.066 C  
BRANCH  16  17
HETATM   17  C   UNL     1      -7.168   7.196  64.417  1.00  0.00    -0.067 C  
HETATM   18  C   UNL     1      -8.268   7.974  64.469  1.00  0.00    -0.097 C  
HETATM   19  C   UNL     1      -5.899   7.600  63.727  1.00  0.00    -0.049 C  
BRANCH  18  20
HETATM   20  C   UNL     1      -8.421   9.358  63.895  1.00  0.00    -0.204 C  
BRANCH  20  21
HETATM   21  C   UNL     1      -9.464  10.159  64.649  1.00  0.00    -0.357 C  
HETATM   22  C   UNL     1      -9.899   9.873  65.895  1.00  0.00    -0.342 C  
HETATM   23  C   UNL     1      -9.468   8.692  66.723  1.00  0.00    -0.250 C  
HETATM   24  C   UNL     1     -10.872  10.764  66.592  1.00  0.00    -0.164 C  
HETATM   25  O   UNL     1     -11.302  10.484  67.703  1.00  0.00    -0.394 OA 
HETATM   26  C   UNL     1     -11.292  12.004  65.923  1.00  0.00    -0.391 A  
HETATM   27  C   UNL     1     -10.870  12.284  64.632  1.00  0.00    -0.349 A  
HETATM   28  C   UNL     1      -9.998  11.343  63.915  1.00  0.00    -0.315 C  
HETATM   29  C   UNL     1     -11.283  13.464  64.001  1.00  0.00    -0.318 A  
HETATM   30  C   UNL     1     -12.114  14.365  64.671  1.00  0.00    -0.485 A  
HETATM   31  O   UNL     1      -9.719  11.556  62.741  1.00  0.00    -0.340 OA 
HETATM   32  C   UNL     1     -12.535  14.086  65.971  1.00  0.00    -0.489 A  
HETATM   33  C   UNL     1     -12.126  12.907  66.598  1.00  0.00    -0.360 A  
ENDBRANCH  20  21
ENDBRANCH  18  20
ENDBRANCH  16  17
ENDBRANCH  15  16
ENDBRANCH  13  15
ENDBRANCH  10  11
ENDBRANCH   9  10
ENDBRANCH   5   6
ENDBRANCH   4   5
TORSDOF 9
ENDMDL
MODEL      290
REMARK 921   NORMALIZED FREE ENERGY PREDICTED BY IDOCK:   -3.79 KCAL/MOL
REMARK 922        TOTAL FREE ENERGY PREDICTED BY IDOCK:   -8.99 KCAL/MOL
REMARK 923 INTER-LIGAND FREE ENERGY PREDICTED BY IDOCK:   -6.75 KCAL/MOL
REMARK 924 INTRA-LIGAND FREE ENERGY PREDICTED BY IDOCK:   -2.24 KCAL/MOL
REMARK 927      BINDING AFFINITY PREDICTED BY RF-SCORE:    0.00 PKD
ROOT
HETATM    1  C   UNL     1     -14.367   7.452  71.305  1.00  0.00    -0.408 C  
HETATM    2  C   UNL     1     -13.629   8.787  71.386  1.00  0.00    -0.292 C  
HETATM    3  C   UNL     1     -13.685   9.324  72.820  1.00  0.00    -0.254 C  
HETATM    4  C   UNL     1     -12.188   8.615  70.869  1.00  0.00    -0.123 C  
ENDROOT
BRANCH   4   5
HETATM    5  C   UNL     1     -11.409   9.922  70.920  1.00  0.00    -0.446 C  
BRANCH   5   6
HETATM    6  C   UNL     1     -12.218  11.114  70.418  1.00  0.00    -0.457 C  
HETATM    7  C   UNL     1     -11.378  12.018  69.495  1.00  0.00    -0.298 C  
HETATM    8  C   UNL     1     -10.859  11.262  68.263  1.00  0.00    -0.249 C  
HETATM    9  C   UNL     1     -12.214  13.247  69.099  1.00  0.00    -0.168 C  
BRANCH   9  10
HETATM   10  C   UNL     1     -11.434  14.182  68.180  1.00  0.00    -0.340 C  
BRANCH  10  11
HETATM   11  C   UNL     1     -10.348  14.944  68.923  1.00  0.00    -0.244 C  
HETATM   12  C   UNL     1      -9.664  15.989  68.020  1.00  0.00    -0.217 C  
HETATM   13  C   UNL     1      -8.478  16.652  68.748  1.00  0.00    -0.255 C  
HETATM   14  C   UNL     1     -10.639  17.065  67.525  1.00  0.00    -0.310 C  
BRANCH  13  15
HETATM   15  C   UNL     1      -7.377  15.683  69.198  1.00  0.00    -0.187 C  
BRANCH  15  16
HETATM   16  C   UNL     1      -7.356  14.390  68.382  1.00  0.00    -0.117 C  
BRANCH  16  17
HETATM   17  C   UNL     1      -6.703  13.259  69.136  1.00  0.00    -0.092 C  
HETATM   18  C   UNL     1      -6.760  12.008  68.639  1.00  0.00    -0.080 C  
HETATM   19  C   UNL     1      -5.966  13.619  70.392  1.00  0.00    -0.148 C  
BRANCH  18  20
HETATM   20  C   UNL     1      -6.096  10.781  69.206  1.00  0.00    -0.045 C  
BRANCH  20  21
HETATM   21  C   UNL     1      -7.065   9.618  69.298  1.00  0.00    -0.063 C  
HETATM   22  C   UNL     1      -7.332   8.929  70.428  1.00  0.00    -0.070 C  
HETATM   23  C   UNL     1      -6.684   9.159  71.768  1.00  0.00     0.055 C  
HETATM   24  C   UNL     1      -8.362   7.849  70.444  1.00  0.00    -0.121 C  
HETATM   25  O   UNL     1      -8.575   7.193  71.455  1.00  0.00    -0.116 OA 
HETATM   26  C   UNL     1      -9.135   7.599  69.218  1.00  0.00    -0.145 A  
HETATM   27  C   UNL     1      -8.841   8.284  68.049  1.00  0.00    -0.135 A  
HETATM   28  C   UNL     1      -7.750   9.269  68.020  1.00  0.00    -0.088 C  
HETATM   29  C   UNL     1      -9.578   8.031  66.885  1.00  0.00    -0.265 A  
HETATM   30  C   UNL     1     -10.614   7.096  66.900  1.00  0.00    -0.371 A  
HETATM   31  O   UNL     1      -7.437   9.789  66.955  1.00  0.00    -0.091 OA 
HETATM   32  C   UNL     1     -10.914   6.410  68.077  1.00  0.00    -0.400 A  
HETATM   33  C   UNL     1     -10.176   6.659  69.235  1.00  0.00    -0.206 A  
ENDBRANCH  20  21
ENDBRANCH  18  20
ENDBRANCH  16  17
ENDBRANCH  15  16
ENDBRANCH  13  15
ENDBRANCH  10  11
ENDBRANCH   9  10
ENDBRANCH   5   6
ENDBRANCH   4   5
TORSDOF 9
ENDMDL
MODEL      291
REMARK 921   NORMALIZED FREE ENERGY PREDICTED BY IDOCK:   -3.78 KCAL/MOL
REMARK 922        TOTAL FREE ENERGY PREDICTED BY IDOCK:   -8.97 KCAL/MOL
REMARK 923 INTER-LIGAND FREE ENERGY PREDICTED BY IDOCK:   -8.85 KCAL/MOL
REMARK 924 INTRA-LIGAND FREE ENERGY PREDICTED BY IDOCK:   -0.12 KCAL/MOL
REMARK 927      BINDING AFFINITY PREDICTED BY RF-SCORE:    0.00 PKD
ROOT
HETATM    1  C   UNL     1     -13.536  13.322  72.123  1.00  0.00    -0.655 C  
HETATM    2  C   UNL     1     -13.008  14.420  71.203  1.00  0.00    -0.419 C  
HETATM    3  C   UNL     1     -12.768  15.701  72.009  1.00  0.00    -0.508 C  
HETATM    4  C   UNL     1     -11.742  13.925  70.478  1.00  0.00    -0.231 C  
ENDROOT
BRANCH   4   5
HETATM    5  C   UNL     1     -11.178  14.982  69.538  1.00  0.00    -0.294 C  
BRANCH   5   6
HETATM    6  C   UNL     1     -11.890  15.016  68.189  1.00  0.00    -0.286 C  
HETATM    7  C   UNL     1     -11.506  13.806  67.317  1.00  0.00    -0.367 C  
HETATM    8  C   UNL     1     -11.861  12.472  67.991  1.00  0.00    -0.382 C  
HETATM    9  C   UNL     1     -12.178  13.944  65.940  1.00  0.00    -0.497 C  
BRANCH   9  10
HETATM   10  C   UNL     1     -11.835  12.770  65.029  1.00  0.00    -0.423 C  
BRANCH  10  11
HETATM   11  C   UNL     1     -10.543  12.082  65.439  1.00  0.00    -0.319 C  
HETATM   12  C   UNL     1     -10.293  10.801  64.621  1.00  0.00    -0.394 C  
HETATM   13  C   UNL     1      -9.055  10.047  65.144  1.00  0.00    -0.247 C  
HETATM   14  C   UNL     1     -10.136  11.083  63.122  1.00  0.00    -0.350 C  
BRANCH  13  15
HETATM   15  C   UNL     1      -9.139   9.612  66.613  1.00  0.00    -0.176 C  
BRANCH  15  16
HETATM   16  C   UNL     1      -8.177  10.386  67.515  1.00  0.00    -0.114 C  
BRANCH  16  17
HETATM   17  C   UNL     1      -7.686   9.547  68.667  1.00  0.00    -0.081 C  
HETATM   18  C   UNL     1      -8.008   9.895  69.928  1.00  0.00    -0.193 C  
HETATM   19  C   UNL     1      -6.899   8.317  68.321  1.00  0.00    -0.065 C  
BRANCH  18  20
HETATM   20  C   UNL     1      -7.682   9.132  71.186  1.00  0.00    -0.116 C  
BRANCH  20  21
HETATM   21  C   UNL     1      -8.850   8.277  71.635  1.00  0.00    -0.224 C  
HETATM   22  C   UNL     1     -10.149   8.592  71.447  1.00  0.00    -0.325 C  
HETATM   23  C   UNL     1     -10.661   9.858  70.812  1.00  0.00    -0.309 C  
HETATM   24  C   UNL     1     -11.234   7.651  71.853  1.00  0.00    -0.257 C  
HETATM   25  O   UNL     1     -12.413   7.952  71.724  1.00  0.00    -0.304 OA 
HETATM   26  C   UNL     1     -10.857   6.337  72.395  1.00  0.00    -0.277 A  
HETATM   27  C   UNL     1      -9.525   6.024  72.616  1.00  0.00    -0.150 A  
HETATM   28  C   UNL     1      -8.471   7.003  72.314  1.00  0.00    -0.110 C  
HETATM   29  C   UNL     1      -9.177   4.773  73.141  1.00  0.00    -0.123 A  
HETATM   30  C   UNL     1     -10.169   3.835  73.435  1.00  0.00    -0.218 A  
HETATM   31  O   UNL     1      -7.310   6.750  72.612  1.00  0.00    -0.085 OA 
HETATM   32  C   UNL     1     -11.509   4.148  73.208  1.00  0.00    -0.208 A  
HETATM   33  C   UNL     1     -11.855   5.397  72.689  1.00  0.00    -0.145 A  
ENDBRANCH  20  21
ENDBRANCH  18  20
ENDBRANCH  16  17
ENDBRANCH  15  16
ENDBRANCH  13  15
ENDBRANCH  10  11
ENDBRANCH   9  10
ENDBRANCH   5   6
ENDBRANCH   4   5
TORSDOF 9
ENDMDL
MODEL      292
REMARK 921   NORMALIZED FREE ENERGY PREDICTED BY IDOCK:   -3.78 KCAL/MOL
REMARK 922        TOTAL FREE ENERGY PREDICTED BY IDOCK:   -8.97 KCAL/MOL
REMARK 923 INTER-LIGAND FREE ENERGY PREDICTED BY IDOCK:   -7.04 KCAL/MOL
REMARK 924 INTRA-LIGAND FREE ENERGY PREDICTED BY IDOCK:   -1.93 KCAL/MOL
REMARK 927      BINDING AFFINITY PREDICTED BY RF-SCORE:    0.00 PKD
ROOT
HETATM    1  C   UNL     1     -11.772  15.685  70.919  1.00  0.00    -0.423 C  
HETATM    2  C   UNL     1     -12.341  14.441  71.598  1.00  0.00    -0.415 C  
HETATM    3  C   UNL     1     -13.691  14.773  72.242  1.00  0.00    -0.560 C  
HETATM    4  C   UNL     1     -12.433  13.290  70.578  1.00  0.00    -0.332 C  
ENDROOT
BRANCH   4   5
HETATM    5  C   UNL     1     -12.988  12.019  71.207  1.00  0.00    -0.315 C  
BRANCH   5   6
HETATM    6  C   UNL     1     -12.168  10.780  70.861  1.00  0.00    -0.487 C  
HETATM    7  C   UNL     1     -12.266   9.711  71.967  1.00  0.00    -0.330 C  
HETATM    8  C   UNL     1     -13.714   9.255  72.202  1.00  0.00    -0.517 C  
HETATM    9  C   UNL     1     -11.348   8.530  71.608  1.00  0.00    -0.362 C  
BRANCH   9  10
HETATM   10  C   UNL     1     -11.404   7.435  72.668  1.00  0.00    -0.360 C  
BRANCH  10  11
HETATM   11  C   UNL     1     -10.168   6.551  72.648  1.00  0.00    -0.205 C  
HETATM   12  C   UNL     1     -10.227   5.460  73.734  1.00  0.00    -0.246 C  
HETATM   13  C   UNL     1      -8.908   4.665  73.788  1.00  0.00    -0.104 C  
HETATM   14  C   UNL     1     -11.407   4.500  73.536  1.00  0.00    -0.355 C  
BRANCH  13  15
HETATM   15  C   UNL     1      -7.661   5.506  74.089  1.00  0.00    -0.099 C  
BRANCH  15  16
HETATM   16  C   UNL     1      -6.362   4.795  73.706  1.00  0.00    -0.051 C  
BRANCH  16  17
HETATM   17  C   UNL     1      -6.117   4.834  72.219  1.00  0.00    -0.021 C  
HETATM   18  C   UNL     1      -6.325   5.980  71.541  1.00  0.00    -0.048 C  
HETATM   19  C   UNL     1      -5.590   3.580  71.587  1.00  0.00    -0.008 C  
BRANCH  18  20
HETATM   20  C   UNL     1      -6.051   6.225  70.080  1.00  0.00    -0.030 C  
BRANCH  20  21
HETATM   21  C   UNL     1      -7.311   6.089  69.249  1.00  0.00    -0.083 C  
HETATM   22  C   UNL     1      -8.327   6.978  69.243  1.00  0.00    -0.129 C  
HETATM   23  C   UNL     1      -8.409   8.220  70.091  1.00  0.00    -0.124 C  
HETATM   24  C   UNL     1      -9.496   6.803  68.332  1.00  0.00    -0.126 C  
HETATM   25  O   UNL     1     -10.439   7.583  68.356  1.00  0.00    -0.194 OA 
HETATM   26  C   UNL     1      -9.484   5.680  67.383  1.00  0.00    -0.116 A  
HETATM   27  C   UNL     1      -8.456   4.749  67.408  1.00  0.00    -0.104 A  
HETATM   28  C   UNL     1      -7.366   4.873  68.385  1.00  0.00    -0.066 C  
HETATM   29  C   UNL     1      -8.459   3.678  66.506  1.00  0.00    -0.107 A  
HETATM   30  C   UNL     1      -9.492   3.548  65.574  1.00  0.00    -0.147 A  
HETATM   31  O   UNL     1      -6.522   3.987  68.462  1.00  0.00    -0.035 OA 
HETATM   32  C   UNL     1     -10.523   4.486  65.545  1.00  0.00    -0.241 A  
HETATM   33  C   UNL     1     -10.522   5.551  66.448  1.00  0.00    -0.294 A  
ENDBRANCH  20  21
ENDBRANCH  18  20
ENDBRANCH  16  17
ENDBRANCH  15  16
ENDBRANCH  13  15
ENDBRANCH  10  11
ENDBRANCH   9  10
ENDBRANCH   5   6
ENDBRANCH   4   5
TORSDOF 9
ENDMDL
MODEL      293
REMARK 921   NORMALIZED FREE ENERGY PREDICTED BY IDOCK:   -3.76 KCAL/MOL
REMARK 922        TOTAL FREE ENERGY PREDICTED BY IDOCK:   -8.94 KCAL/MOL
REMARK 923 INTER-LIGAND FREE ENERGY PREDICTED BY IDOCK:   -6.60 KCAL/MOL
REMARK 924 INTRA-LIGAND FREE ENERGY PREDICTED BY IDOCK:   -2.34 KCAL/MOL
REMARK 927      BINDING AFFINITY PREDICTED BY RF-SCORE:    0.00 PKD
ROOT
HETATM    1  C   UNL     1     -10.473  15.064  68.207  1.00  0.00    -0.237 C  
HETATM    2  C   UNL     1     -10.395  13.851  67.283  1.00  0.00    -0.257 C  
HETATM    3  C   UNL     1      -8.949  13.647  66.817  1.00  0.00    -0.196 C  
HETATM    4  C   UNL     1     -10.972  12.615  67.999  1.00  0.00    -0.266 C  
ENDROOT
BRANCH   4   5
HETATM    5  C   UNL     1     -10.925  11.376  67.115  1.00  0.00    -0.340 C  
BRANCH   5   6
HETATM    6  C   UNL     1     -10.676  10.095  67.904  1.00  0.00    -0.317 C  
HETATM    7  C   UNL     1     -10.768   8.849  67.001  1.00  0.00    -0.180 C  
HETATM    8  C   UNL     1      -9.747   8.890  65.854  1.00  0.00    -0.259 C  
HETATM    9  C   UNL     1     -10.602   7.587  67.866  1.00  0.00    -0.250 C  
BRANCH   9  10
HETATM   10  C   UNL     1     -10.682   6.318  67.025  1.00  0.00    -0.435 C  
BRANCH  10  11
HETATM   11  C   UNL     1      -9.321   5.670  66.830  1.00  0.00    -0.129 C  
HETATM   12  C   UNL     1      -9.442   4.250  66.245  1.00  0.00    -0.186 C  
HETATM   13  C   UNL     1      -8.065   3.560  66.185  1.00  0.00    -0.093 C  
HETATM   14  C   UNL     1     -10.089   4.243  64.854  1.00  0.00    -0.184 C  
BRANCH  13  15
HETATM   15  C   UNL     1      -7.362   3.409  67.540  1.00  0.00    -0.059 C  
BRANCH  15  16
HETATM   16  C   UNL     1      -8.179   2.593  68.543  1.00  0.00    -0.076 C  
BRANCH  16  17
HETATM   17  C   UNL     1      -8.363   3.327  69.847  1.00  0.00    -0.082 C  
HETATM   18  C   UNL     1      -7.282   3.740  70.536  1.00  0.00    -0.041 C  
HETATM   19  C   UNL     1      -9.775   3.603  70.274  1.00  0.00    -0.193 C  
BRANCH  18  20
HETATM   20  C   UNL     1      -7.277   4.556  71.803  1.00  0.00    -0.060 C  
BRANCH  20  21
HETATM   21  C   UNL     1      -7.942   5.902  71.598  1.00  0.00    -0.113 C  
HETATM   22  C   UNL     1      -7.459   6.885  70.809  1.00  0.00    -0.082 C  
HETATM   23  C   UNL     1      -6.164   6.837  70.043  1.00  0.00    -0.035 C  
HETATM   24  C   UNL     1      -8.223   8.151  70.604  1.00  0.00    -0.114 C  
HETATM   25  O   UNL     1      -7.768   9.061  69.925  1.00  0.00    -0.066 OA 
HETATM   26  C   UNL     1      -9.552   8.277  71.221  1.00  0.00    -0.219 A  
HETATM   27  C   UNL     1     -10.036   7.281  72.056  1.00  0.00    -0.207 A  
HETATM   28  C   UNL     1      -9.226   6.088  72.337  1.00  0.00    -0.142 C  
HETATM   29  C   UNL     1     -11.300   7.415  72.646  1.00  0.00    -0.360 A  
HETATM   30  C   UNL     1     -12.078   8.545  72.389  1.00  0.00    -0.436 A  
HETATM   31  O   UNL     1      -9.624   5.268  73.156  1.00  0.00    -0.144 OA 
HETATM   32  C   UNL     1     -11.593   9.545  71.545  1.00  0.00    -0.465 A  
HETATM   33  C   UNL     1     -10.332   9.413  70.962  1.00  0.00    -0.382 A  
ENDBRANCH  20  21
ENDBRANCH  18  20
ENDBRANCH  16  17
ENDBRANCH  15  16
ENDBRANCH  13  15
ENDBRANCH  10  11
ENDBRANCH   9  10
ENDBRANCH   5   6
ENDBRANCH   4   5
TORSDOF 9
ENDMDL
MODEL      294
REMARK 921   NORMALIZED FREE ENERGY PREDICTED BY IDOCK:   -3.74 KCAL/MOL
REMARK 922        TOTAL FREE ENERGY PREDICTED BY IDOCK:   -8.91 KCAL/MOL
REMARK 923 INTER-LIGAND FREE ENERGY PREDICTED BY IDOCK:   -8.87 KCAL/MOL
REMARK 924 INTRA-LIGAND FREE ENERGY PREDICTED BY IDOCK:   -0.04 KCAL/MOL
REMARK 927      BINDING AFFINITY PREDICTED BY RF-SCORE:    0.00 PKD
ROOT
HETATM    1  C   UNL     1      -7.390  20.048  67.849  1.00  0.00    -0.332 C  
HETATM    2  C   UNL     1      -7.923  19.149  66.736  1.00  0.00    -0.281 C  
HETATM    3  C   UNL     1      -6.927  19.116  65.572  1.00  0.00    -0.247 C  
HETATM    4  C   UNL     1      -8.226  17.748  67.303  1.00  0.00    -0.226 C  
ENDROOT
BRANCH   4   5
HETATM    5  C   UNL     1      -8.771  16.811  66.234  1.00  0.00    -0.342 C  
BRANCH   5   6
HETATM    6  C   UNL     1     -10.132  16.225  66.597  1.00  0.00    -0.283 C  
HETATM    7  C   UNL     1     -10.323  16.144  68.124  1.00  0.00    -0.269 C  
HETATM    8  C   UNL     1     -10.222  17.523  68.792  1.00  0.00    -0.373 C  
HETATM    9  C   UNL     1     -11.667  15.461  68.427  1.00  0.00    -0.332 C  
BRANCH   9  10
HETATM   10  C   UNL     1     -11.915  15.354  69.929  1.00  0.00    -0.384 C  
BRANCH  10  11
HETATM   11  C   UNL     1     -12.644  14.073  70.301  1.00  0.00    -0.354 C  
HETATM   12  C   UNL     1     -13.162  14.112  71.751  1.00  0.00    -0.450 C  
HETATM   13  C   UNL     1     -13.775  12.756  72.153  1.00  0.00    -0.454 C  
HETATM   14  C   UNL     1     -14.183  15.234  71.980  1.00  0.00    -0.679 C  
BRANCH  13  15
HETATM   15  C   UNL     1     -12.813  11.564  72.070  1.00  0.00    -0.259 C  
BRANCH  15  16
HETATM   16  C   UNL     1     -13.050  10.698  70.832  1.00  0.00    -0.342 C  
BRANCH  16  17
HETATM   17  C   UNL     1     -11.761  10.367  70.122  1.00  0.00    -0.394 C  
HETATM   18  C   UNL     1     -10.824   9.632  70.752  1.00  0.00    -0.400 C  
HETATM   19  C   UNL     1     -11.628  10.844  68.706  1.00  0.00    -0.378 C  
BRANCH  18  20
HETATM   20  C   UNL     1      -9.526   9.136  70.171  1.00  0.00    -0.235 C  
BRANCH  20  21
HETATM   21  C   UNL     1      -9.108   7.818  70.792  1.00  0.00    -0.149 C  
HETATM   22  C   UNL     1      -9.674   6.624  70.512  1.00  0.00    -0.187 C  
HETATM   23  C   UNL     1     -10.840   6.403  69.585  1.00  0.00    -0.380 C  
HETATM   24  C   UNL     1      -9.145   5.364  71.112  1.00  0.00    -0.141 C  
HETATM   25  O   UNL     1      -9.682   4.286  70.895  1.00  0.00    -0.172 OA 
HETATM   26  C   UNL     1      -7.944   5.439  71.957  1.00  0.00    -0.113 A  
HETATM   27  C   UNL     1      -7.380   6.667  72.269  1.00  0.00    -0.089 A  
HETATM   28  C   UNL     1      -7.977   7.910  71.761  1.00  0.00    -0.104 C  
HETATM   29  C   UNL     1      -6.241   6.728  73.083  1.00  0.00    -0.058 A  
HETATM   30  C   UNL     1      -5.667   5.554  73.575  1.00  0.00    -0.028 A  
HETATM   31  O   UNL     1      -7.528   8.989  72.130  1.00  0.00    -0.339 OA 
HETATM   32  C   UNL     1      -6.231   4.319  73.257  1.00  0.00    -0.028 A  
HETATM   33  C   UNL     1      -7.368   4.259  72.450  1.00  0.00    -0.068 A  
ENDBRANCH  20  21
ENDBRANCH  18  20
ENDBRANCH  16  17
ENDBRANCH  15  16
ENDBRANCH  13  15
ENDBRANCH  10  11
ENDBRANCH   9  10
ENDBRANCH   5   6
ENDBRANCH   4   5
TORSDOF 9
ENDMDL
MODEL      295
REMARK 921   NORMALIZED FREE ENERGY PREDICTED BY IDOCK:   -3.73 KCAL/MOL
REMARK 922        TOTAL FREE ENERGY PREDICTED BY IDOCK:   -8.90 KCAL/MOL
REMARK 923 INTER-LIGAND FREE ENERGY PREDICTED BY IDOCK:   -7.72 KCAL/MOL
REMARK 924 INTRA-LIGAND FREE ENERGY PREDICTED BY IDOCK:   -1.18 KCAL/MOL
REMARK 927      BINDING AFFINITY PREDICTED BY RF-SCORE:    0.00 PKD
ROOT
HETATM    1  C   UNL     1      -8.858   4.800  64.030  1.00  0.00    -0.117 C  
HETATM    2  C   UNL     1      -8.518   4.107  65.347  1.00  0.00    -0.110 C  
HETATM    3  C   UNL     1      -7.014   3.822  65.410  1.00  0.00    -0.061 C  
HETATM    4  C   UNL     1      -9.013   4.964  66.528  1.00  0.00    -0.112 C  
ENDROOT
BRANCH   4   5
HETATM    5  C   UNL     1      -8.706   4.311  67.869  1.00  0.00    -0.119 C  
BRANCH   5   6
HETATM    6  C   UNL     1      -7.920   5.223  68.806  1.00  0.00    -0.086 C  
HETATM    7  C   UNL     1      -8.814   5.787  69.927  1.00  0.00    -0.130 C  
HETATM    8  C   UNL     1      -9.436   4.673  70.784  1.00  0.00    -0.235 C  
HETATM    9  C   UNL     1      -7.992   6.768  70.781  1.00  0.00    -0.110 C  
BRANCH   9  10
HETATM   10  C   UNL     1      -8.825   7.360  71.913  1.00  0.00    -0.128 C  
BRANCH  10  11
HETATM   11  C   UNL     1      -9.442   8.697  71.535  1.00  0.00    -0.320 C  
HETATM   12  C   UNL     1     -10.915   8.547  71.110  1.00  0.00    -0.306 C  
HETATM   13  C   UNL     1     -11.479   9.888  70.601  1.00  0.00    -0.411 C  
HETATM   14  C   UNL     1     -11.799   8.005  72.240  1.00  0.00    -0.424 C  
BRANCH  13  15
HETATM   15  C   UNL     1     -10.740  10.481  69.395  1.00  0.00    -0.277 C  
BRANCH  15  16
HETATM   16  C   UNL     1     -11.109  11.942  69.135  1.00  0.00    -0.285 C  
BRANCH  16  17
HETATM   17  C   UNL     1     -10.634  12.411  67.783  1.00  0.00    -0.236 C  
HETATM   18  C   UNL     1     -10.257  13.694  67.619  1.00  0.00    -0.239 C  
HETATM   19  C   UNL     1     -10.558  11.379  66.697  1.00  0.00    -0.302 C  
BRANCH  18  20
HETATM   20  C   UNL     1      -9.678  14.312  66.373  1.00  0.00    -0.315 C  
BRANCH  20  21
HETATM   21  C   UNL     1      -9.307  15.765  66.594  1.00  0.00    -0.284 C  
HETATM   22  C   UNL     1      -9.915  16.812  65.998  1.00  0.00    -0.334 C  
HETATM   23  C   UNL     1     -11.021  16.720  64.980  1.00  0.00    -0.118 C  
HETATM   24  C   UNL     1      -9.536  18.216  66.337  1.00  0.00    -0.278 C  
HETATM   25  O   UNL     1     -10.054  19.166  65.767  1.00  0.00    -0.479 OA 
HETATM   26  C   UNL     1      -8.535  18.437  67.392  1.00  0.00    -0.257 A  
HETATM   27  C   UNL     1      -7.889  17.362  67.983  1.00  0.00    -0.207 A  
HETATM   28  C   UNL     1      -8.193  15.988  67.562  1.00  0.00    -0.152 C  
HETATM   29  C   UNL     1      -6.930  17.585  68.981  1.00  0.00    -0.237 A  
HETATM   30  C   UNL     1      -6.630  18.887  69.388  1.00  0.00    -0.293 A  
HETATM   31  O   UNL     1      -7.540  15.058  68.022  1.00  0.00    -0.104 OA 
HETATM   32  C   UNL     1      -7.284  19.967  68.796  1.00  0.00    -0.309 A  
HETATM   33  C   UNL     1      -8.235  19.745  67.799  1.00  0.00    -0.340 A  
ENDBRANCH  20  21
ENDBRANCH  18  20
ENDBRANCH  16  17
ENDBRANCH  15  16
ENDBRANCH  13  15
ENDBRANCH  10  11
ENDBRANCH   9  10
ENDBRANCH   5   6
ENDBRANCH   4   5
TORSDOF 9
ENDMDL
MODEL      296
REMARK 921   NORMALIZED FREE ENERGY PREDICTED BY IDOCK:   -3.73 KCAL/MOL
REMARK 922        TOTAL FREE ENERGY PREDICTED BY IDOCK:   -8.90 KCAL/MOL
REMARK 923 INTER-LIGAND FREE ENERGY PREDICTED BY IDOCK:   -5.24 KCAL/MOL
REMARK 924 INTRA-LIGAND FREE ENERGY PREDICTED BY IDOCK:   -3.66 KCAL/MOL
REMARK 927      BINDING AFFINITY PREDICTED BY RF-SCORE:    0.00 PKD
ROOT
HETATM    1  C   UNL     1     -11.606   3.425  74.003  1.00  0.00     0.386 C  
HETATM    2  C   UNL     1     -10.749   4.549  73.425  1.00  0.00    -0.320 C  
HETATM    3  C   UNL     1      -9.513   3.958  72.739  1.00  0.00    -0.162 C  
HETATM    4  C   UNL     1     -11.600   5.417  72.478  1.00  0.00    -0.225 C  
ENDROOT
BRANCH   4   5
HETATM    5  C   UNL     1     -10.793   6.561  71.881  1.00  0.00    -0.273 C  
BRANCH   5   6
HETATM    6  C   UNL     1     -11.069   6.768  70.395  1.00  0.00    -0.357 C  
HETATM    7  C   UNL     1      -9.784   6.623  69.556  1.00  0.00    -0.156 C  
HETATM    8  C   UNL     1      -9.144   5.235  69.716  1.00  0.00    -0.150 C  
HETATM    9  C   UNL     1     -10.107   6.934  68.084  1.00  0.00    -0.187 C  
BRANCH   9  10
HETATM   10  C   UNL     1      -8.870   6.804  67.201  1.00  0.00    -0.119 C  
BRANCH  10  11
HETATM   11  C   UNL     1      -9.221   6.415  65.773  1.00  0.00     0.032 C  
HETATM   12  C   UNL     1      -8.595   5.065  65.378  1.00  0.00    -0.143 C  
HETATM   13  C   UNL     1      -8.846   4.757  63.889  1.00  0.00    -0.112 C  
HETATM   14  C   UNL     1      -9.105   3.906  66.243  1.00  0.00    -0.149 C  
BRANCH  13  15
HETATM   15  C   UNL     1      -8.282   5.796  62.912  1.00  0.00    -0.089 C  
BRANCH  15  16
HETATM   16  C   UNL     1      -6.761   5.926  62.999  1.00  0.00    -0.036 C  
BRANCH  16  17
HETATM   17  C   UNL     1      -6.342   7.230  63.629  1.00  0.00    -0.048 C  
HETATM   18  C   UNL     1      -7.008   8.361  63.322  1.00  0.00    -0.089 C  
HETATM   19  C   UNL     1      -5.220   7.173  64.623  1.00  0.00    -0.028 C  
BRANCH  18  20
HETATM   20  C   UNL     1      -6.787   9.727  63.916  1.00  0.00    -0.120 C  
BRANCH  20  21
HETATM   21  C   UNL     1      -7.977  10.174  64.741  1.00  0.00    -0.146 C  
HETATM   22  C   UNL     1      -9.156  10.585  64.227  1.00  0.00    -0.256 C  
HETATM   23  C   UNL     1      -9.474  10.720  62.762  1.00  0.00    -0.358 C  
HETATM   24  C   UNL     1     -10.303  10.931  65.118  1.00  0.00    -0.278 C  
HETATM   25  O   UNL     1     -11.358  11.346  64.657  1.00  0.00    -0.217 OA 
HETATM   26  C   UNL     1     -10.148  10.744  66.568  1.00  0.00    -0.277 A  
HETATM   27  C   UNL     1      -8.928  10.350  67.099  1.00  0.00    -0.148 A  
HETATM   28  C   UNL     1      -7.775  10.118  66.219  1.00  0.00    -0.110 C  
HETATM   29  C   UNL     1      -8.788  10.183  68.482  1.00  0.00    -0.127 A  
HETATM   30  C   UNL     1      -9.876  10.404  69.329  1.00  0.00    -0.243 A  
HETATM   31  O   UNL     1      -6.680   9.872  66.712  1.00  0.00    -0.076 OA 
HETATM   32  C   UNL     1     -11.104  10.794  68.795  1.00  0.00    -0.312 A  
HETATM   33  C   UNL     1     -11.241  10.966  67.417  1.00  0.00    -0.345 A  
ENDBRANCH  20  21
ENDBRANCH  18  20
ENDBRANCH  16  17
ENDBRANCH  15  16
ENDBRANCH  13  15
ENDBRANCH  10  11
ENDBRANCH   9  10
ENDBRANCH   5   6
ENDBRANCH   4   5
TORSDOF 9
ENDMDL
MODEL      297
REMARK 921   NORMALIZED FREE ENERGY PREDICTED BY IDOCK:   -3.73 KCAL/MOL
REMARK 922        TOTAL FREE ENERGY PREDICTED BY IDOCK:   -8.89 KCAL/MOL
REMARK 923 INTER-LIGAND FREE ENERGY PREDICTED BY IDOCK:   -8.03 KCAL/MOL
REMARK 924 INTRA-LIGAND FREE ENERGY PREDICTED BY IDOCK:   -0.87 KCAL/MOL
REMARK 927      BINDING AFFINITY PREDICTED BY RF-SCORE:    0.00 PKD
ROOT
HETATM    1  C   UNL     1      -6.741  18.261  67.197  1.00  0.00    -0.204 C  
HETATM    2  C   UNL     1      -7.086  16.884  66.633  1.00  0.00    -0.289 C  
HETATM    3  C   UNL     1      -6.442  15.794  67.496  1.00  0.00    -0.203 C  
HETATM    4  C   UNL     1      -8.616  16.736  66.528  1.00  0.00    -0.312 C  
ENDROOT
BRANCH   4   5
HETATM    5  C   UNL     1      -9.016  15.380  65.962  1.00  0.00    -0.201 C  
BRANCH   5   6
HETATM    6  C   UNL     1     -10.322  14.854  66.548  1.00  0.00    -0.295 C  
HETATM    7  C   UNL     1     -10.155  13.429  67.111  1.00  0.00    -0.240 C  
HETATM    8  C   UNL     1      -9.094  13.368  68.221  1.00  0.00    -0.181 C  
HETATM    9  C   UNL     1     -11.521  12.918  67.601  1.00  0.00    -0.383 C  
BRANCH   9  10
HETATM   10  C   UNL     1     -11.419  11.508  68.174  1.00  0.00    -0.385 C  
BRANCH  10  11
HETATM   11  C   UNL     1     -12.472  11.241  69.237  1.00  0.00    -0.002 C  
HETATM   12  C   UNL     1     -12.081  11.853  70.595  1.00  0.00    -0.389 C  
HETATM   13  C   UNL     1     -13.091  11.455  71.689  1.00  0.00    -0.498 C  
HETATM   14  C   UNL     1     -11.952  13.381  70.536  1.00  0.00    -0.332 C  
BRANCH  13  15
HETATM   15  C   UNL     1     -13.228   9.945  71.920  1.00  0.00    -0.558 C  
BRANCH  15  16
HETATM   16  C   UNL     1     -11.879   9.252  72.115  1.00  0.00    -0.265 C  
BRANCH  16  17
HETATM   17  C   UNL     1     -11.973   7.763  71.893  1.00  0.00    -0.340 C  
HETATM   18  C   UNL     1     -10.849   7.020  71.883  1.00  0.00    -0.253 C  
HETATM   19  C   UNL     1     -13.350   7.186  71.749  1.00  0.00    -0.347 C  
BRANCH  18  20
HETATM   20  C   UNL     1     -10.760   5.521  71.762  1.00  0.00    -0.289 C  
BRANCH  20  21
HETATM   21  C   UNL     1      -9.921   5.109  70.569  1.00  0.00    -0.304 C  
HETATM   22  C   UNL     1      -8.714   4.508  70.650  1.00  0.00    -0.127 C  
HETATM   23  C   UNL     1      -7.976   4.193  71.924  1.00  0.00    -0.084 C  
HETATM   24  C   UNL     1      -7.993   4.065  69.420  1.00  0.00    -0.055 C  
HETATM   25  O   UNL     1      -6.881   3.560  69.487  1.00  0.00    -0.040 OA 
HETATM   26  C   UNL     1      -8.659   4.228  68.119  1.00  0.00    -0.107 A  
HETATM   27  C   UNL     1      -9.884   4.872  68.032  1.00  0.00    -0.197 A  
HETATM   28  C   UNL     1     -10.533   5.402  69.240  1.00  0.00    -0.239 C  
HETATM   29  C   UNL     1     -10.505   5.031  66.786  1.00  0.00    -0.273 A  
HETATM   30  C   UNL     1      -9.897   4.534  65.631  1.00  0.00    -0.227 A  
HETATM   31  O   UNL     1     -11.563   6.057  69.132  1.00  0.00    -0.193 OA 
HETATM   32  C   UNL     1      -8.667   3.883  65.719  1.00  0.00    -0.114 A  
HETATM   33  C   UNL     1      -8.046   3.729  66.960  1.00  0.00    -0.095 A  
ENDBRANCH  20  21
ENDBRANCH  18  20
ENDBRANCH  16  17
ENDBRANCH  15  16
ENDBRANCH  13  15
ENDBRANCH  10  11
ENDBRANCH   9  10
ENDBRANCH   5   6
ENDBRANCH   4   5
TORSDOF 9
ENDMDL
MODEL      298
REMARK 921   NORMALIZED FREE ENERGY PREDICTED BY IDOCK:   -3.73 KCAL/MOL
REMARK 922        TOTAL FREE ENERGY PREDICTED BY IDOCK:   -8.89 KCAL/MOL
REMARK 923 INTER-LIGAND FREE ENERGY PREDICTED BY IDOCK:   -7.71 KCAL/MOL
REMARK 924 INTRA-LIGAND FREE ENERGY PREDICTED BY IDOCK:   -1.18 KCAL/MOL
REMARK 927      BINDING AFFINITY PREDICTED BY RF-SCORE:    0.00 PKD
ROOT
HETATM    1  C   UNL     1      -5.906   2.912  70.430  1.00  0.00    -0.018 C  
HETATM    2  C   UNL     1      -6.124   3.290  71.893  1.00  0.00    -0.014 C  
HETATM    3  C   UNL     1      -5.650   4.727  72.134  1.00  0.00    -0.008 C  
HETATM    4  C   UNL     1      -7.602   3.077  72.270  1.00  0.00    -0.053 C  
ENDROOT
BRANCH   4   5
HETATM    5  C   UNL     1      -7.872   3.431  73.726  1.00  0.00    -0.066 C  
BRANCH   5   6
HETATM    6  C   UNL     1      -8.640   4.740  73.885  1.00  0.00    -0.103 C  
HETATM    7  C   UNL     1      -9.943   4.734  73.063  1.00  0.00    -0.187 C  
HETATM    8  C   UNL     1     -10.884   3.594  73.482  1.00  0.00    -0.322 C  
HETATM    9  C   UNL     1     -10.624   6.108  73.189  1.00  0.00    -0.269 C  
BRANCH   9  10
HETATM   10  C   UNL     1     -11.925   6.162  72.395  1.00  0.00    -0.240 C  
BRANCH  10  11
HETATM   11  C   UNL     1     -11.917   7.268  71.352  1.00  0.00    -0.354 C  
HETATM   12  C   UNL     1     -10.710   7.149  70.403  1.00  0.00    -0.255 C  
HETATM   13  C   UNL     1     -10.643   8.353  69.443  1.00  0.00    -0.204 C  
HETATM   14  C   UNL     1     -10.722   5.842  69.599  1.00  0.00    -0.415 C  
BRANCH  13  15
HETATM   15  C   UNL     1     -10.518   9.718  70.132  1.00  0.00    -0.338 C  
BRANCH  15  16
HETATM   16  C   UNL     1     -11.631  10.687  69.730  1.00  0.00    -0.385 C  
BRANCH  16  17
HETATM   17  C   UNL     1     -11.307  11.417  68.450  1.00  0.00    -0.346 C  
HETATM   18  C   UNL     1     -11.141  12.754  68.471  1.00  0.00    -0.300 C  
HETATM   19  C   UNL     1     -11.132  10.579  67.219  1.00  0.00    -0.284 C  
BRANCH  18  20
HETATM   20  C   UNL     1     -10.732  13.631  67.316  1.00  0.00    -0.283 C  
BRANCH  20  21
HETATM   21  C   UNL     1      -9.817  14.752  67.767  1.00  0.00    -0.214 C  
HETATM   22  C   UNL     1      -8.471  14.666  67.831  1.00  0.00    -0.158 C  
HETATM   23  C   UNL     1      -7.657  13.439  67.519  1.00  0.00    -0.176 C  
HETATM   24  C   UNL     1      -7.643  15.848  68.211  1.00  0.00    -0.135 C  
HETATM   25  O   UNL     1      -6.427  15.762  68.313  1.00  0.00    -0.108 OA 
HETATM   26  C   UNL     1      -8.319  17.133  68.443  1.00  0.00    -0.251 A  
HETATM   27  C   UNL     1      -9.703  17.216  68.407  1.00  0.00    -0.284 A  
HETATM   28  C   UNL     1     -10.513  16.019  68.139  1.00  0.00    -0.269 C  
HETATM   29  C   UNL     1     -10.337  18.443  68.638  1.00  0.00    -0.286 A  
HETATM   30  C   UNL     1      -9.579  19.587  68.897  1.00  0.00    -0.460 A  
HETATM   31  O   UNL     1     -11.734  16.089  68.213  1.00  0.00    -0.303 OA 
HETATM   32  C   UNL     1      -8.188  19.505  68.928  1.00  0.00    -0.309 A  
HETATM   33  C   UNL     1      -7.556  18.281  68.702  1.00  0.00    -0.311 A  
ENDBRANCH  20  21
ENDBRANCH  18  20
ENDBRANCH  16  17
ENDBRANCH  15  16
ENDBRANCH  13  15
ENDBRANCH  10  11
ENDBRANCH   9  10
ENDBRANCH   5   6
ENDBRANCH   4   5
TORSDOF 9
ENDMDL
MODEL      299
REMARK 921   NORMALIZED FREE ENERGY PREDICTED BY IDOCK:   -3.72 KCAL/MOL
REMARK 922        TOTAL FREE ENERGY PREDICTED BY IDOCK:   -8.88 KCAL/MOL
REMARK 923 INTER-LIGAND FREE ENERGY PREDICTED BY IDOCK:   -7.32 KCAL/MOL
REMARK 924 INTRA-LIGAND FREE ENERGY PREDICTED BY IDOCK:   -1.57 KCAL/MOL
REMARK 927      BINDING AFFINITY PREDICTED BY RF-SCORE:    0.00 PKD
ROOT
HETATM    1  C   UNL     1     -10.843   4.127  63.081  1.00  0.00     0.100 C  
HETATM    2  C   UNL     1     -10.025   3.236  64.013  1.00  0.00    -0.178 C  
HETATM    3  C   UNL     1      -8.647   2.970  63.397  1.00  0.00    -0.086 C  
HETATM    4  C   UNL     1      -9.940   3.884  65.408  1.00  0.00    -0.137 C  
ENDROOT
BRANCH   4   5
HETATM    5  C   UNL     1      -9.140   3.028  66.381  1.00  0.00    -0.156 C  
BRANCH   5   6
HETATM    6  C   UNL     1      -8.065   3.819  67.119  1.00  0.00    -0.091 C  
HETATM    7  C   UNL     1      -8.650   5.075  67.793  1.00  0.00    -0.103 C  
HETATM    8  C   UNL     1      -9.746   4.727  68.812  1.00  0.00    -0.235 C  
HETATM    9  C   UNL     1      -7.507   5.878  68.440  1.00  0.00    -0.086 C  
BRANCH   9  10
HETATM   10  C   UNL     1      -8.026   7.136  69.127  1.00  0.00    -0.119 C  
BRANCH  10  11
HETATM   11  C   UNL     1      -7.478   8.405  68.494  1.00  0.00    -0.094 C  
HETATM   12  C   UNL     1      -6.350   9.025  69.339  1.00  0.00    -0.044 C  
HETATM   13  C   UNL     1      -5.904  10.379  68.755  1.00  0.00    -0.040 C  
HETATM   14  C   UNL     1      -5.140   8.092  69.476  1.00  0.00    -0.026 C  
BRANCH  13  15
HETATM   15  C   UNL     1      -7.010  11.439  68.669  1.00  0.00    -0.087 C  
BRANCH  15  16
HETATM   16  C   UNL     1      -7.517  11.650  67.242  1.00  0.00    -0.143 C  
BRANCH  16  17
HETATM   17  C   UNL     1      -9.024  11.662  67.176  1.00  0.00    -0.173 C  
HETATM   18  C   UNL     1      -9.707  12.660  67.770  1.00  0.00    -0.206 C  
HETATM   19  C   UNL     1      -9.676  10.566  66.386  1.00  0.00    -0.245 C  
BRANCH  18  20
HETATM   20  C   UNL     1     -11.197  12.880  67.733  1.00  0.00    -0.319 C  
BRANCH  20  21
HETATM   21  C   UNL     1     -11.759  13.107  69.122  1.00  0.00    -0.376 C  
HETATM   22  C   UNL     1     -12.247  12.135  69.921  1.00  0.00    -0.240 C  
HETATM   23  C   UNL     1     -12.365  10.679  69.557  1.00  0.00    -0.154 C  
HETATM   24  C   UNL     1     -12.708  12.440  71.308  1.00  0.00    -0.248 C  
HETATM   25  O   UNL     1     -13.191  11.569  72.019  1.00  0.00    -0.509 OA 
HETATM   26  C   UNL     1     -12.550  13.811  71.815  1.00  0.00    -0.319 A  
HETATM   27  C   UNL     1     -12.077  14.817  70.985  1.00  0.00    -0.391 A  
HETATM   28  C   UNL     1     -11.730  14.525  69.588  1.00  0.00    -0.307 C  
HETATM   29  C   UNL     1     -11.939  16.121  71.476  1.00  0.00    -0.490 A  
HETATM   30  C   UNL     1     -12.269  16.411  72.801  1.00  0.00    -0.516 A  
HETATM   31  O   UNL     1     -11.412  15.444  68.841  1.00  0.00    -0.300 OA 
HETATM   32  C   UNL     1     -12.739  15.399  73.637  1.00  0.00    -0.713 A  
HETATM   33  C   UNL     1     -12.881  14.100  73.146  1.00  0.00    -0.285 A  
ENDBRANCH  20  21
ENDBRANCH  18  20
ENDBRANCH  16  17
ENDBRANCH  15  16
ENDBRANCH  13  15
ENDBRANCH  10  11
ENDBRANCH   9  10
ENDBRANCH   5   6
ENDBRANCH   4   5
TORSDOF 9
ENDMDL
MODEL      300
REMARK 921   NORMALIZED FREE ENERGY PREDICTED BY IDOCK:   -3.71 KCAL/MOL
REMARK 922        TOTAL FREE ENERGY PREDICTED BY IDOCK:   -8.86 KCAL/MOL
REMARK 923 INTER-LIGAND FREE ENERGY PREDICTED BY IDOCK:   -6.71 KCAL/MOL
REMARK 924 INTRA-LIGAND FREE ENERGY PREDICTED BY IDOCK:   -2.15 KCAL/MOL
REMARK 927      BINDING AFFINITY PREDICTED BY RF-SCORE:    0.00 PKD
ROOT
HETATM    1  C   UNL     1      -7.928  15.211  67.052  1.00  0.00    -0.223 C  
HETATM    2  C   UNL     1      -6.964  14.140  67.559  1.00  0.00    -0.173 C  
HETATM    3  C   UNL     1      -5.700  14.802  68.117  1.00  0.00    -0.134 C  
HETATM    4  C   UNL     1      -7.678  13.249  68.593  1.00  0.00    -0.080 C  
ENDROOT
BRANCH   4   5
HETATM    5  C   UNL     1      -6.761  12.155  69.126  1.00  0.00    -0.100 C  
BRANCH   5   6
HETATM    6  C   UNL     1      -6.965  10.817  68.423  1.00  0.00    -0.070 C  
HETATM    7  C   UNL     1      -6.789   9.635  69.396  1.00  0.00    -0.054 C  
HETATM    8  C   UNL     1      -7.785   9.698  70.565  1.00  0.00    -0.152 C  
HETATM    9  C   UNL     1      -6.913   8.316  68.614  1.00  0.00    -0.068 C  
BRANCH   9  10
HETATM   10  C   UNL     1      -6.750   7.106  69.527  1.00  0.00    -0.049 C  
BRANCH  10  11
HETATM   11  C   UNL     1      -7.690   5.972  69.152  1.00  0.00    -0.095 C  
HETATM   12  C   UNL     1      -6.919   4.688  68.789  1.00  0.00    -0.052 C  
HETATM   13  C   UNL     1      -7.880   3.595  68.280  1.00  0.00    -0.067 C  
HETATM   14  C   UNL     1      -6.092   4.148  69.962  1.00  0.00    -0.019 C  
BRANCH  13  15
HETATM   15  C   UNL     1      -8.690   3.979  67.035  1.00  0.00    -0.116 C  
BRANCH  15  16
HETATM   16  C   UNL     1      -9.824   4.957  67.346  1.00  0.00    -0.213 C  
BRANCH  16  17
HETATM   17  C   UNL     1      -9.600   6.302  66.703  1.00  0.00    -0.190 C  
HETATM   18  C   UNL     1     -10.293   7.372  67.140  1.00  0.00    -0.377 C  
HETATM   19  C   UNL     1      -8.554   6.373  65.629  1.00  0.00    -0.138 C  
BRANCH  18  20
HETATM   20  C   UNL     1     -10.138   8.797  66.678  1.00  0.00    -0.358 C  
BRANCH  20  21
HETATM   21  C   UNL     1     -10.671   9.775  67.706  1.00  0.00    -0.329 C  
HETATM   22  C   UNL     1     -10.889   9.480  69.006  1.00  0.00    -0.184 C  
HETATM   23  C   UNL     1     -10.692   8.130  69.642  1.00  0.00    -0.196 C  
HETATM   24  C   UNL     1     -11.342  10.530  69.966  1.00  0.00    -0.318 C  
HETATM   25  O   UNL     1     -11.582  10.256  71.134  1.00  0.00    -0.355 OA 
HETATM   26  C   UNL     1     -11.474  11.912  69.484  1.00  0.00    -0.357 A  
HETATM   27  C   UNL     1     -11.280  12.211  68.143  1.00  0.00    -0.320 A  
HETATM   28  C   UNL     1     -10.941  11.148  67.187  1.00  0.00    -0.291 C  
HETATM   29  C   UNL     1     -11.418  13.530  67.693  1.00  0.00    -0.351 A  
HETATM   30  C   UNL     1     -11.742  14.548  68.592  1.00  0.00    -0.364 A  
HETATM   31  O   UNL     1     -10.875  11.412  65.992  1.00  0.00    -0.279 OA 
HETATM   32  C   UNL     1     -11.933  14.249  69.940  1.00  0.00    -0.397 A  
HETATM   33  C   UNL     1     -11.800  12.933  70.388  1.00  0.00    -0.239 A  
ENDBRANCH  20  21
ENDBRANCH  18  20
ENDBRANCH  16  17
ENDBRANCH  15  16
ENDBRANCH  13  15
ENDBRANCH  10  11
ENDBRANCH   9  10
ENDBRANCH   5   6
ENDBRANCH   4   5
TORSDOF 9
ENDMDL
MODEL      301
REMARK 921   NORMALIZED FREE ENERGY PREDICTED BY IDOCK:   -3.69 KCAL/MOL
REMARK 922        TOTAL FREE ENERGY PREDICTED BY IDOCK:   -8.83 KCAL/MOL
REMARK 923 INTER-LIGAND FREE ENERGY PREDICTED BY IDOCK:   -6.86 KCAL/MOL
REMARK 924 INTRA-LIGAND FREE ENERGY PREDICTED BY IDOCK:   -1.97 KCAL/MOL
REMARK 927      BINDING AFFINITY PREDICTED BY RF-SCORE:    0.00 PKD
ROOT
HETATM    1  C   UNL     1     -11.755  15.697  70.933  1.00  0.00    -0.423 C  
HETATM    2  C   UNL     1     -12.318  14.450  71.612  1.00  0.00    -0.415 C  
HETATM    3  C   UNL     1     -13.691  14.763  72.216  1.00  0.00    -0.560 C  
HETATM    4  C   UNL     1     -12.361  13.286  70.604  1.00  0.00    -0.416 C  
ENDROOT
BRANCH   4   5
HETATM    5  C   UNL     1     -12.908  12.012  71.234  1.00  0.00    -0.364 C  
BRANCH   5   6
HETATM    6  C   UNL     1     -12.064  10.782  70.913  1.00  0.00    -0.475 C  
HETATM    7  C   UNL     1     -12.198   9.704  72.006  1.00  0.00    -0.330 C  
HETATM    8  C   UNL     1     -13.650   9.234  72.177  1.00  0.00    -0.536 C  
HETATM    9  C   UNL     1     -11.256   8.533  71.677  1.00  0.00    -0.361 C  
BRANCH   9  10
HETATM   10  C   UNL     1     -11.346   7.430  72.725  1.00  0.00    -0.356 C  
BRANCH  10  11
HETATM   11  C   UNL     1     -10.130   6.518  72.707  1.00  0.00    -0.193 C  
HETATM   12  C   UNL     1     -10.238   5.400  73.762  1.00  0.00    -0.246 C  
HETATM   13  C   UNL     1      -8.939   4.573  73.822  1.00  0.00    -0.103 C  
HETATM   14  C   UNL     1     -11.435   4.474  73.515  1.00  0.00    -0.287 C  
BRANCH  13  15
HETATM   15  C   UNL     1      -7.680   5.376  74.171  1.00  0.00    -0.096 C  
BRANCH  15  16
HETATM   16  C   UNL     1      -6.390   4.645  73.797  1.00  0.00    -0.051 C  
BRANCH  16  17
HETATM   17  C   UNL     1      -6.076   4.771  72.328  1.00  0.00    -0.021 C  
HETATM   18  C   UNL     1      -6.120   5.983  71.740  1.00  0.00    -0.040 C  
HETATM   19  C   UNL     1      -5.672   3.517  71.612  1.00  0.00    -0.009 C  
BRANCH  18  20
HETATM   20  C   UNL     1      -5.756   6.308  70.315  1.00  0.00    -0.018 C  
BRANCH  20  21
HETATM   21  C   UNL     1      -6.707   7.327  69.718  1.00  0.00    -0.044 C  
HETATM   22  C   UNL     1      -6.705   8.644  70.012  1.00  0.00    -0.039 C  
HETATM   23  C   UNL     1      -5.802   9.317  71.012  1.00  0.00    -0.060 C  
HETATM   24  C   UNL     1      -7.627   9.588  69.315  1.00  0.00    -0.084 C  
HETATM   25  O   UNL     1      -7.658  10.775  69.610  1.00  0.00    -0.131 OA 
HETATM   26  C   UNL     1      -8.489   9.066  68.245  1.00  0.00    -0.129 A  
HETATM   27  C   UNL     1      -8.514   7.708  67.962  1.00  0.00    -0.123 A  
HETATM   28  C   UNL     1      -7.680   6.774  68.731  1.00  0.00    -0.110 C  
HETATM   29  C   UNL     1      -9.346   7.220  66.946  1.00  0.00    -0.192 A  
HETATM   30  C   UNL     1     -10.144   8.097  66.211  1.00  0.00    -0.074 A  
HETATM   31  O   UNL     1      -7.791   5.568  68.538  1.00  0.00    -0.087 OA 
HETATM   32  C   UNL     1     -10.116   9.463  66.491  1.00  0.00    -0.332 A  
HETATM   33  C   UNL     1      -9.291   9.949  67.507  1.00  0.00    -0.159 A  
ENDBRANCH  20  21
ENDBRANCH  18  20
ENDBRANCH  16  17
ENDBRANCH  15  16
ENDBRANCH  13  15
ENDBRANCH  10  11
ENDBRANCH   9  10
ENDBRANCH   5   6
ENDBRANCH   4   5
TORSDOF 9
ENDMDL
MODEL      302
REMARK 921   NORMALIZED FREE ENERGY PREDICTED BY IDOCK:   -3.69 KCAL/MOL
REMARK 922        TOTAL FREE ENERGY PREDICTED BY IDOCK:   -8.83 KCAL/MOL
REMARK 923 INTER-LIGAND FREE ENERGY PREDICTED BY IDOCK:   -7.72 KCAL/MOL
REMARK 924 INTRA-LIGAND FREE ENERGY PREDICTED BY IDOCK:   -1.11 KCAL/MOL
REMARK 927      BINDING AFFINITY PREDICTED BY RF-SCORE:    0.00 PKD
ROOT
HETATM    1  C   UNL     1     -14.197   7.646  71.267  1.00  0.00    -0.427 C  
HETATM    2  C   UNL     1     -13.428   8.965  71.228  1.00  0.00    -0.222 C  
HETATM    3  C   UNL     1     -13.577   9.692  72.568  1.00  0.00    -0.311 C  
HETATM    4  C   UNL     1     -11.957   8.696  70.855  1.00  0.00    -0.220 C  
ENDROOT
BRANCH   4   5
HETATM    5  C   UNL     1     -11.146   9.983  70.792  1.00  0.00    -0.407 C  
BRANCH   5   6
HETATM    6  C   UNL     1     -11.857  11.096  70.028  1.00  0.00    -0.441 C  
HETATM    7  C   UNL     1     -11.192  11.358  68.663  1.00  0.00    -0.303 C  
HETATM    8  C   UNL     1     -11.199  10.109  67.769  1.00  0.00    -0.205 C  
HETATM    9  C   UNL     1     -11.892  12.548  67.983  1.00  0.00    -0.382 C  
BRANCH   9  10
HETATM   10  C   UNL     1     -11.277  12.855  66.622  1.00  0.00    -0.342 C  
BRANCH  10  11
HETATM   11  C   UNL     1     -10.161  11.887  66.263  1.00  0.00    -0.247 C  
HETATM   12  C   UNL     1     -10.345  11.301  64.850  1.00  0.00    -0.362 C  
HETATM   13  C   UNL     1      -9.284  10.221  64.560  1.00  0.00    -0.295 C  
HETATM   14  C   UNL     1     -10.306  12.378  63.758  1.00  0.00    -0.454 C  
BRANCH  13  15
HETATM   15  C   UNL     1      -9.297   9.030  65.526  1.00  0.00    -0.255 C  
BRANCH  15  16
HETATM   16  C   UNL     1      -7.980   8.252  65.522  1.00  0.00    -0.120 C  
BRANCH  16  17
HETATM   17  C   UNL     1      -7.996   7.114  66.512  1.00  0.00    -0.112 C  
HETATM   18  C   UNL     1      -6.918   6.895  67.291  1.00  0.00    -0.078 C  
HETATM   19  C   UNL     1      -9.263   6.316  66.606  1.00  0.00    -0.158 C  
BRANCH  18  20
HETATM   20  C   UNL     1      -6.790   5.868  68.386  1.00  0.00    -0.066 C  
BRANCH  20  21
HETATM   21  C   UNL     1      -7.327   6.392  69.703  1.00  0.00    -0.080 C  
HETATM   22  C   UNL     1      -6.863   7.489  70.339  1.00  0.00    -0.047 C  
HETATM   23  C   UNL     1      -5.710   8.344  69.884  1.00  0.00    -0.025 C  
HETATM   24  C   UNL     1      -7.505   7.978  71.595  1.00  0.00    -0.078 C  
HETATM   25  O   UNL     1      -7.060   8.945  72.198  1.00  0.00    -0.290 OA 
HETATM   26  C   UNL     1      -8.704   7.283  72.086  1.00  0.00    -0.134 A  
HETATM   27  C   UNL     1      -9.164   6.139  71.451  1.00  0.00    -0.149 A  
HETATM   28  C   UNL     1      -8.456   5.605  70.279  1.00  0.00    -0.123 C  
HETATM   29  C   UNL     1     -10.302   5.480  71.933  1.00  0.00    -0.270 A  
HETATM   30  C   UNL     1     -10.980   5.976  73.048  1.00  0.00    -0.289 A  
HETATM   31  O   UNL     1      -8.815   4.539  69.793  1.00  0.00    -0.082 OA 
HETATM   32  C   UNL     1     -10.521   7.129  73.684  1.00  0.00    -0.412 A  
HETATM   33  C   UNL     1      -9.385   7.783  73.206  1.00  0.00    -0.331 A  
ENDBRANCH  20  21
ENDBRANCH  18  20
ENDBRANCH  16  17
ENDBRANCH  15  16
ENDBRANCH  13  15
ENDBRANCH  10  11
ENDBRANCH   9  10
ENDBRANCH   5   6
ENDBRANCH   4   5
TORSDOF 9
ENDMDL
MODEL      303
REMARK 921   NORMALIZED FREE ENERGY PREDICTED BY IDOCK:   -3.68 KCAL/MOL
REMARK 922        TOTAL FREE ENERGY PREDICTED BY IDOCK:   -8.82 KCAL/MOL
REMARK 923 INTER-LIGAND FREE ENERGY PREDICTED BY IDOCK:   -6.91 KCAL/MOL
REMARK 924 INTRA-LIGAND FREE ENERGY PREDICTED BY IDOCK:   -1.91 KCAL/MOL
REMARK 927      BINDING AFFINITY PREDICTED BY RF-SCORE:    0.00 PKD
ROOT
HETATM    1  C   UNL     1      -7.708  16.057  69.382  1.00  0.00    -0.173 C  
HETATM    2  C   UNL     1      -6.430  15.293  69.044  1.00  0.00    -0.111 C  
HETATM    3  C   UNL     1      -5.265  15.836  69.878  1.00  0.00    -0.119 C  
HETATM    4  C   UNL     1      -6.659  13.783  69.249  1.00  0.00    -0.113 C  
ENDROOT
BRANCH   4   5
HETATM    5  C   UNL     1      -5.414  12.972  68.916  1.00  0.00    -0.071 C  
BRANCH   5   6
HETATM    6  C   UNL     1      -5.275  11.719  69.776  1.00  0.00    -0.070 C  
HETATM    7  C   UNL     1      -6.480  10.775  69.598  1.00  0.00    -0.103 C  
HETATM    8  C   UNL     1      -6.644  10.318  68.140  1.00  0.00    -0.057 C  
HETATM    9  C   UNL     1      -6.329   9.581  70.555  1.00  0.00    -0.080 C  
BRANCH   9  10
HETATM   10  C   UNL     1      -7.495   8.606  70.423  1.00  0.00    -0.069 C  
BRANCH  10  11
HETATM   11  C   UNL     1      -8.842   9.306  70.513  1.00  0.00    -0.285 C  
HETATM   12  C   UNL     1      -9.858   8.486  71.331  1.00  0.00    -0.296 C  
HETATM   13  C   UNL     1     -11.252   9.142  71.294  1.00  0.00    -0.407 C  
HETATM   14  C   UNL     1      -9.414   8.285  72.786  1.00  0.00    -0.343 C  
BRANCH  13  15
HETATM   15  C   UNL     1     -11.853   9.299  69.892  1.00  0.00     0.274 C  
BRANCH  15  16
HETATM   16  C   UNL     1     -12.064  10.761  69.499  1.00  0.00    -0.344 C  
BRANCH  16  17
HETATM   17  C   UNL     1     -11.020  11.238  68.520  1.00  0.00    -0.266 C  
HETATM   18  C   UNL     1     -11.071  10.822  67.239  1.00  0.00    -0.339 C  
HETATM   19  C   UNL     1     -10.002  12.210  69.037  1.00  0.00     0.145 C  
BRANCH  18  20
HETATM   20  C   UNL     1     -10.171  11.260  66.113  1.00  0.00    -0.291 C  
BRANCH  20  21
HETATM   21  C   UNL     1     -10.494  12.670  65.661  1.00  0.00    -0.298 C  
HETATM   22  C   UNL     1     -11.540  13.004  64.876  1.00  0.00    -0.362 C  
HETATM   23  C   UNL     1     -12.529  12.039  64.276  1.00  0.00    -0.388 C  
HETATM   24  C   UNL     1     -11.828  14.431  64.545  1.00  0.00    -0.449 C  
HETATM   25  O   UNL     1     -12.749  14.733  63.798  1.00  0.00    -0.767 OA 
HETATM   26  C   UNL     1     -10.991  15.475  65.154  1.00  0.00    -0.422 A  
HETATM   27  C   UNL     1      -9.898  15.132  65.935  1.00  0.00    -0.372 A  
HETATM   28  C   UNL     1      -9.561  13.720  66.164  1.00  0.00    -0.216 C  
HETATM   29  C   UNL     1      -9.101  16.135  66.503  1.00  0.00    -0.311 A  
HETATM   30  C   UNL     1      -9.410  17.480  66.291  1.00  0.00    -0.231 A  
HETATM   31  O   UNL     1      -8.534  13.436  66.770  1.00  0.00    -0.108 OA 
HETATM   32  C   UNL     1     -10.512  17.825  65.509  1.00  0.00    -0.023 A  
HETATM   33  C   UNL     1     -11.302  16.825  64.939  1.00  0.00     0.151 A  
ENDBRANCH  20  21
ENDBRANCH  18  20
ENDBRANCH  16  17
ENDBRANCH  15  16
ENDBRANCH  13  15
ENDBRANCH  10  11
ENDBRANCH   9  10
ENDBRANCH   5   6
ENDBRANCH   4   5
TORSDOF 9
ENDMDL
MODEL      304
REMARK 921   NORMALIZED FREE ENERGY PREDICTED BY IDOCK:   -3.67 KCAL/MOL
REMARK 922        TOTAL FREE ENERGY PREDICTED BY IDOCK:   -8.81 KCAL/MOL
REMARK 923 INTER-LIGAND FREE ENERGY PREDICTED BY IDOCK:   -8.64 KCAL/MOL
REMARK 924 INTRA-LIGAND FREE ENERGY PREDICTED BY IDOCK:   -0.17 KCAL/MOL
REMARK 927      BINDING AFFINITY PREDICTED BY RF-SCORE:    0.00 PKD
ROOT
HETATM    1  C   UNL     1     -11.810   8.362  72.431  1.00  0.00    -0.452 C  
HETATM    2  C   UNL     1     -10.670   7.436  72.850  1.00  0.00    -0.387 C  
HETATM    3  C   UNL     1     -10.498   6.323  71.811  1.00  0.00    -0.249 C  
HETATM    4  C   UNL     1      -9.385   8.260  73.062  1.00  0.00    -0.310 C  
ENDROOT
BRANCH   4   5
HETATM    5  C   UNL     1      -8.216   7.383  73.490  1.00  0.00    -0.163 C  
BRANCH   5   6
HETATM    6  C   UNL     1      -7.573   6.640  72.324  1.00  0.00    -0.095 C  
HETATM    7  C   UNL     1      -6.920   7.614  71.324  1.00  0.00    -0.050 C  
HETATM    8  C   UNL     1      -5.828   8.470  71.984  1.00  0.00    -0.053 C  
HETATM    9  C   UNL     1      -6.373   6.817  70.128  1.00  0.00    -0.039 C  
BRANCH   9  10
HETATM   10  C   UNL     1      -5.710   7.730  69.102  1.00  0.00    -0.030 C  
BRANCH  10  11
HETATM   11  C   UNL     1      -6.726   8.528  68.301  1.00  0.00    -0.065 C  
HETATM   12  C   UNL     1      -7.669   7.611  67.500  1.00  0.00    -0.118 C  
HETATM   13  C   UNL     1      -8.599   8.438  66.590  1.00  0.00    -0.127 C  
HETATM   14  C   UNL     1      -8.505   6.696  68.403  1.00  0.00    -0.125 C  
BRANCH  13  15
HETATM   15  C   UNL     1      -7.876   9.318  65.562  1.00  0.00    -0.099 C  
BRANCH  15  16
HETATM   16  C   UNL     1      -7.745  10.772  66.016  1.00  0.00    -0.139 C  
BRANCH  16  17
HETATM   17  C   UNL     1      -9.058  11.509  65.932  1.00  0.00    -0.186 C  
HETATM   18  C   UNL     1      -9.410  12.356  66.919  1.00  0.00    -0.213 C  
HETATM   19  C   UNL     1      -9.881  11.287  64.698  1.00  0.00    -0.314 C  
BRANCH  18  20
HETATM   20  C   UNL     1     -10.633  13.235  66.961  1.00  0.00    -0.259 C  
BRANCH  20  21
HETATM   21  C   UNL     1     -11.339  13.140  68.299  1.00  0.00    -0.333 C  
HETATM   22  C   UNL     1     -11.635  11.984  68.930  1.00  0.00    -0.377 C  
HETATM   23  C   UNL     1     -11.366  10.601  68.398  1.00  0.00    -0.348 C  
HETATM   24  C   UNL     1     -12.263  11.988  70.285  1.00  0.00    -0.266 C  
HETATM   25  O   UNL     1     -12.573  10.942  70.840  1.00  0.00    -0.345 OA 
HETATM   26  C   UNL     1     -12.484  13.279  70.952  1.00  0.00    -0.424 A  
HETATM   27  C   UNL     1     -12.208  14.467  70.293  1.00  0.00    -0.391 A  
HETATM   28  C   UNL     1     -11.693  14.451  68.917  1.00  0.00    -0.322 C  
HETATM   29  C   UNL     1     -12.431  15.692  70.935  1.00  0.00    -0.497 A  
HETATM   30  C   UNL     1     -12.923  15.720  72.242  1.00  0.00    -0.523 A  
HETATM   31  O   UNL     1     -11.552  15.509  68.314  1.00  0.00    -0.357 OA 
HETATM   32  C   UNL     1     -13.195  14.525  72.907  1.00  0.00    -0.612 A  
HETATM   33  C   UNL     1     -12.978  13.305  72.265  1.00  0.00    -0.376 A  
ENDBRANCH  20  21
ENDBRANCH  18  20
ENDBRANCH  16  17
ENDBRANCH  15  16
ENDBRANCH  13  15
ENDBRANCH  10  11
ENDBRANCH   9  10
ENDBRANCH   5   6
ENDBRANCH   4   5
TORSDOF 9
ENDMDL
MODEL      305
REMARK 921   NORMALIZED FREE ENERGY PREDICTED BY IDOCK:   -3.66 KCAL/MOL
REMARK 922        TOTAL FREE ENERGY PREDICTED BY IDOCK:   -8.79 KCAL/MOL
REMARK 923 INTER-LIGAND FREE ENERGY PREDICTED BY IDOCK:   -8.67 KCAL/MOL
REMARK 924 INTRA-LIGAND FREE ENERGY PREDICTED BY IDOCK:   -0.12 KCAL/MOL
REMARK 927      BINDING AFFINITY PREDICTED BY RF-SCORE:    0.00 PKD
ROOT
HETATM    1  C   UNL     1     -10.102   9.544  65.987  1.00  0.00    -0.319 C  
HETATM    2  C   UNL     1     -10.429  10.964  65.529  1.00  0.00    -0.286 C  
HETATM    3  C   UNL     1      -9.147  11.803  65.488  1.00  0.00     0.013 C  
HETATM    4  C   UNL     1     -11.156  10.917  64.172  1.00  0.00     0.217 C  
ENDROOT
BRANCH   4   5
HETATM    5  C   UNL     1     -11.514  12.311  63.674  1.00  0.00    -0.572 C  
BRANCH   5   6
HETATM    6  C   UNL     1     -10.499  13.369  64.093  1.00  0.00    -0.202 C  
HETATM    7  C   UNL     1     -11.191  14.609  64.692  1.00  0.00    -0.353 C  
HETATM    8  C   UNL     1     -12.031  14.260  65.930  1.00  0.00    -0.400 C  
HETATM    9  C   UNL     1     -10.127  15.675  65.008  1.00  0.00    -0.102 C  
BRANCH   9  10
HETATM   10  C   UNL     1     -10.753  16.930  65.608  1.00  0.00    -0.173 C  
BRANCH  10  11
HETATM   11  C   UNL     1      -9.967  17.452  66.800  1.00  0.00    -0.307 C  
HETATM   12  C   UNL     1      -9.630  18.947  66.652  1.00  0.00    -0.364 C  
HETATM   13  C   UNL     1      -8.718  19.422  67.800  1.00  0.00    -0.352 C  
HETATM   14  C   UNL     1     -10.885  19.828  66.586  1.00  0.00    -0.421 C  
BRANCH  13  15
HETATM   15  C   UNL     1      -7.376  18.686  67.902  1.00  0.00    -0.251 C  
BRANCH  15  16
HETATM   16  C   UNL     1      -7.363  17.632  69.010  1.00  0.00    -0.194 C  
BRANCH  16  17
HETATM   17  C   UNL     1      -7.653  16.251  68.477  1.00  0.00    -0.179 C  
HETATM   18  C   UNL     1      -8.775  15.612  68.863  1.00  0.00    -0.215 C  
HETATM   19  C   UNL     1      -6.679  15.690  67.484  1.00  0.00    -0.221 C  
BRANCH  18  20
HETATM   20  C   UNL     1      -9.267  14.276  68.370  1.00  0.00    -0.196 C  
BRANCH  20  21
HETATM   21  C   UNL     1     -10.443  13.781  69.188  1.00  0.00    -0.044 C  
HETATM   22  C   UNL     1     -10.702  12.483  69.453  1.00  0.00     0.124 C  
HETATM   23  C   UNL     1      -9.907  11.310  68.944  1.00  0.00    -0.153 C  
HETATM   24  C   UNL     1     -11.840  12.091  70.335  1.00  0.00    -0.212 C  
HETATM   25  O   UNL     1     -12.105  10.915  70.542  1.00  0.00    -0.309 OA 
HETATM   26  C   UNL     1     -12.631  13.154  70.974  1.00  0.00    -0.397 A  
HETATM   27  C   UNL     1     -12.385  14.487  70.679  1.00  0.00    -0.407 A  
HETATM   28  C   UNL     1     -11.331  14.854  69.723  1.00  0.00    -0.283 C  
HETATM   29  C   UNL     1     -13.150  15.491  71.286  1.00  0.00    -0.581 A  
HETATM   30  C   UNL     1     -14.156  15.154  72.194  1.00  0.00    -0.654 A  
HETATM   31  O   UNL     1     -11.196  16.028  69.396  1.00  0.00    -0.305 OA 
HETATM   32  C   UNL     1     -14.400  13.814  72.494  1.00  0.00    -0.230 A  
HETATM   33  C   UNL     1     -13.641  12.814  71.886  1.00  0.00    -0.343 A  
ENDBRANCH  20  21
ENDBRANCH  18  20
ENDBRANCH  16  17
ENDBRANCH  15  16
ENDBRANCH  13  15
ENDBRANCH  10  11
ENDBRANCH   9  10
ENDBRANCH   5   6
ENDBRANCH   4   5
TORSDOF 9
ENDMDL
MODEL      306
REMARK 921   NORMALIZED FREE ENERGY PREDICTED BY IDOCK:   -3.65 KCAL/MOL
REMARK 922        TOTAL FREE ENERGY PREDICTED BY IDOCK:   -8.77 KCAL/MOL
REMARK 923 INTER-LIGAND FREE ENERGY PREDICTED BY IDOCK:   -7.42 KCAL/MOL
REMARK 924 INTRA-LIGAND FREE ENERGY PREDICTED BY IDOCK:   -1.36 KCAL/MOL
REMARK 927      BINDING AFFINITY PREDICTED BY RF-SCORE:    0.00 PKD
ROOT
HETATM    1  C   UNL     1      -5.425   7.898  73.948  1.00  0.00    -0.053 C  
HETATM    2  C   UNL     1      -6.299   7.818  72.699  1.00  0.00    -0.063 C  
HETATM    3  C   UNL     1      -6.590   9.230  72.178  1.00  0.00     0.254 C  
HETATM    4  C   UNL     1      -5.618   6.922  71.646  1.00  0.00    -0.036 C  
ENDROOT
BRANCH   4   5
HETATM    5  C   UNL     1      -6.455   6.801  70.380  1.00  0.00    -0.043 C  
BRANCH   5   6
HETATM    6  C   UNL     1      -7.618   5.826  70.529  1.00  0.00    -0.090 C  
HETATM    7  C   UNL     1      -8.973   6.522  70.299  1.00  0.00    -0.155 C  
HETATM    8  C   UNL     1      -9.071   7.145  68.898  1.00  0.00    -0.131 C  
HETATM    9  C   UNL     1     -10.107   5.515  70.554  1.00  0.00    -0.293 C  
BRANCH   9  10
HETATM   10  C   UNL     1     -11.478   6.148  70.339  1.00  0.00    -0.342 C  
BRANCH  10  11
HETATM   11  C   UNL     1     -11.747   7.282  71.314  1.00  0.00    -0.328 C  
HETATM   12  C   UNL     1     -13.253   7.579  71.445  1.00  0.00    -0.368 C  
HETATM   13  C   UNL     1     -13.495   8.818  72.329  1.00  0.00    -0.463 C  
HETATM   14  C   UNL     1     -14.041   6.383  71.996  1.00  0.00     0.173 C  
BRANCH  13  15
HETATM   15  C   UNL     1     -12.844  10.109  71.819  1.00  0.00    -0.554 C  
BRANCH  15  16
HETATM   16  C   UNL     1     -13.605  11.365  72.247  1.00  0.00     0.052 C  
BRANCH  16  17
HETATM   17  C   UNL     1     -13.049  12.608  71.601  1.00  0.00    -0.421 C  
HETATM   18  C   UNL     1     -12.133  12.495  70.619  1.00  0.00    -0.312 C  
HETATM   19  C   UNL     1     -13.607  13.921  72.066  1.00  0.00    -0.566 C  
BRANCH  18  20
HETATM   20  C   UNL     1     -11.537  13.615  69.807  1.00  0.00    -0.322 C  
BRANCH  20  21
HETATM   21  C   UNL     1     -11.307  13.197  68.369  1.00  0.00    -0.324 C  
HETATM   22  C   UNL     1     -10.786  12.011  67.988  1.00  0.00    -0.244 C  
HETATM   23  C   UNL     1     -10.300  10.929  68.916  1.00  0.00    -0.222 C  
HETATM   24  C   UNL     1     -10.668  11.652  66.544  1.00  0.00    -0.272 C  
HETATM   25  O   UNL     1     -10.156  10.597  66.194  1.00  0.00    -0.231 OA 
HETATM   26  C   UNL     1     -11.202  12.586  65.542  1.00  0.00    -0.349 A  
HETATM   27  C   UNL     1     -11.709  13.818  65.930  1.00  0.00    -0.370 A  
HETATM   28  C   UNL     1     -11.719  14.204  67.348  1.00  0.00    -0.391 C  
HETATM   29  C   UNL     1     -12.207  14.704  64.967  1.00  0.00    -0.323 A  
HETATM   30  C   UNL     1     -12.201  14.349  63.616  1.00  0.00     0.135 A  
HETATM   31  O   UNL     1     -12.075  15.334  67.662  1.00  0.00    -0.068 OA 
HETATM   32  C   UNL     1     -11.695  13.110  63.227  1.00  0.00    -0.266 A  
HETATM   33  C   UNL     1     -11.195  12.228  64.186  1.00  0.00    -0.430 A  
ENDBRANCH  20  21
ENDBRANCH  18  20
ENDBRANCH  16  17
ENDBRANCH  15  16
ENDBRANCH  13  15
ENDBRANCH  10  11
ENDBRANCH   9  10
ENDBRANCH   5   6
ENDBRANCH   4   5
TORSDOF 9
ENDMDL
MODEL      307
REMARK 921   NORMALIZED FREE ENERGY PREDICTED BY IDOCK:   -3.63 KCAL/MOL
REMARK 922        TOTAL FREE ENERGY PREDICTED BY IDOCK:   -8.74 KCAL/MOL
REMARK 923 INTER-LIGAND FREE ENERGY PREDICTED BY IDOCK:   -6.78 KCAL/MOL
REMARK 924 INTRA-LIGAND FREE ENERGY PREDICTED BY IDOCK:   -1.96 KCAL/MOL
REMARK 927      BINDING AFFINITY PREDICTED BY RF-SCORE:    0.00 PKD
ROOT
HETATM    1  C   UNL     1     -14.384   7.972  72.092  1.00  0.00    -0.442 C  
HETATM    2  C   UNL     1     -13.074   8.315  71.388  1.00  0.00    -0.240 C  
HETATM    3  C   UNL     1     -12.963   9.833  71.209  1.00  0.00    -0.470 C  
HETATM    4  C   UNL     1     -11.891   7.718  72.174  1.00  0.00    -0.370 C  
ENDROOT
BRANCH   4   5
HETATM    5  C   UNL     1     -10.557   8.024  71.507  1.00  0.00    -0.273 C  
BRANCH   5   6
HETATM    6  C   UNL     1     -10.520   7.614  70.038  1.00  0.00    -0.229 C  
HETATM    7  C   UNL     1      -9.842   6.243  69.851  1.00  0.00    -0.198 C  
HETATM    8  C   UNL     1     -10.568   5.130  70.621  1.00  0.00    -0.214 C  
HETATM    9  C   UNL     1      -9.750   5.928  68.348  1.00  0.00    -0.151 C  
BRANCH   9  10
HETATM   10  C   UNL     1      -9.088   4.578  68.098  1.00  0.00    -0.155 C  
BRANCH  10  11
HETATM   11  C   UNL     1      -7.710   4.720  67.471  1.00  0.00    -0.090 C  
HETATM   12  C   UNL     1      -6.676   5.256  68.479  1.00  0.00    -0.054 C  
HETATM   13  C   UNL     1      -5.323   5.523  67.790  1.00  0.00    -0.004 C  
HETATM   14  C   UNL     1      -6.476   4.312  69.672  1.00  0.00    -0.033 C  
BRANCH  13  15
HETATM   15  C   UNL     1      -5.375   6.541  66.644  1.00  0.00    -0.013 C  
BRANCH  15  16
HETATM   16  C   UNL     1      -5.241   7.985  67.128  1.00  0.00    -0.032 C  
BRANCH  16  17
HETATM   17  C   UNL     1      -6.527   8.501  67.723  1.00  0.00    -0.061 C  
HETATM   18  C   UNL     1      -7.472   9.021  66.915  1.00  0.00    -0.090 C  
HETATM   19  C   UNL     1      -6.697   8.346  69.206  1.00  0.00    -0.046 C  
BRANCH  18  20
HETATM   20  C   UNL     1      -8.841   9.501  67.321  1.00  0.00    -0.136 C  
BRANCH  20  21
HETATM   21  C   UNL     1      -9.314  10.639  66.439  1.00  0.00    -0.195 C  
HETATM   22  C   UNL     1      -9.469  10.559  65.100  1.00  0.00    -0.285 C  
HETATM   23  C   UNL     1      -9.153   9.355  64.252  1.00  0.00    -0.159 C  
HETATM   24  C   UNL     1     -10.018  11.707  64.320  1.00  0.00    -0.267 C  
HETATM   25  O   UNL     1     -10.118  11.654  63.102  1.00  0.00    -0.397 OA 
HETATM   26  C   UNL     1     -10.457  12.905  65.050  1.00  0.00    -0.337 A  
HETATM   27  C   UNL     1     -10.271  13.001  66.421  1.00  0.00    -0.283 A  
HETATM   28  C   UNL     1      -9.629  11.906  67.162  1.00  0.00    -0.186 C  
HETATM   29  C   UNL     1     -10.685  14.150  67.106  1.00  0.00    -0.280 A  
HETATM   30  C   UNL     1     -11.294  15.199  66.412  1.00  0.00    -0.225 A  
HETATM   31  O   UNL     1      -9.379  12.049  68.353  1.00  0.00    -0.200 OA 
HETATM   32  C   UNL     1     -11.486  15.101  65.035  1.00  0.00    -0.339 A  
HETATM   33  C   UNL     1     -11.068  13.957  64.352  1.00  0.00    -0.332 A  
ENDBRANCH  20  21
ENDBRANCH  18  20
ENDBRANCH  16  17
ENDBRANCH  15  16
ENDBRANCH  13  15
ENDBRANCH  10  11
ENDBRANCH   9  10
ENDBRANCH   5   6
ENDBRANCH   4   5
TORSDOF 9
ENDMDL
MODEL      308
REMARK 921   NORMALIZED FREE ENERGY PREDICTED BY IDOCK:   -3.62 KCAL/MOL
REMARK 922        TOTAL FREE ENERGY PREDICTED BY IDOCK:   -8.72 KCAL/MOL
REMARK 923 INTER-LIGAND FREE ENERGY PREDICTED BY IDOCK:   -7.25 KCAL/MOL
REMARK 924 INTRA-LIGAND FREE ENERGY PREDICTED BY IDOCK:   -1.47 KCAL/MOL
REMARK 927      BINDING AFFINITY PREDICTED BY RF-SCORE:    0.00 PKD
ROOT
HETATM    1  C   UNL     1     -11.398  14.883  69.229  1.00  0.00    -0.315 C  
HETATM    2  C   UNL     1     -11.290  13.521  68.548  1.00  0.00    -0.327 C  
HETATM    3  C   UNL     1     -12.098  12.483  69.333  1.00  0.00    -0.237 C  
HETATM    4  C   UNL     1     -11.738  13.639  67.078  1.00  0.00    -0.419 C  
ENDROOT
BRANCH   4   5
HETATM    5  C   UNL     1     -11.640  12.307  66.348  1.00  0.00    -0.445 C  
BRANCH   5   6
HETATM    6  C   UNL     1     -10.206  11.801  66.227  1.00  0.00    -0.255 C  
HETATM    7  C   UNL     1     -10.005  10.979  64.939  1.00  0.00    -0.343 C  
HETATM    8  C   UNL     1     -10.312  11.799  63.677  1.00  0.00    -0.476 C  
HETATM    9  C   UNL     1      -8.572  10.419  64.918  1.00  0.00    -0.190 C  
BRANCH   9  10
HETATM   10  C   UNL     1      -8.310   9.595  63.662  1.00  0.00    -0.172 C  
BRANCH  10  11
HETATM   11  C   UNL     1      -7.182   8.595  63.854  1.00  0.00    -0.096 C  
HETATM   12  C   UNL     1      -7.680   7.142  63.733  1.00  0.00    -0.119 C  
HETATM   13  C   UNL     1      -6.553   6.145  64.068  1.00  0.00    -0.033 C  
HETATM   14  C   UNL     1      -8.255   6.832  62.345  1.00  0.00    -0.049 C  
BRANCH  13  15
HETATM   15  C   UNL     1      -5.968   6.284  65.479  1.00  0.00    -0.026 C  
BRANCH  15  16
HETATM   16  C   UNL     1      -6.809   7.189  66.381  1.00  0.00    -0.061 C  
BRANCH  16  17
HETATM   17  C   UNL     1      -7.884   6.419  67.106  1.00  0.00    -0.108 C  
HETATM   18  C   UNL     1      -9.077   7.001  67.336  1.00  0.00    -0.124 C  
HETATM   19  C   UNL     1      -7.565   5.003  67.483  1.00  0.00    -0.087 C  
BRANCH  18  20
HETATM   20  C   UNL     1     -10.287   6.359  67.963  1.00  0.00    -0.234 C  
BRANCH  20  21
HETATM   21  C   UNL     1     -10.233   6.433  69.476  1.00  0.00    -0.228 C  
HETATM   22  C   UNL     1     -10.301   7.576  70.191  1.00  0.00    -0.217 C  
HETATM   23  C   UNL     1     -10.389   8.965  69.617  1.00  0.00    -0.214 C  
HETATM   24  C   UNL     1     -10.320   7.548  71.684  1.00  0.00    -0.192 C  
HETATM   25  O   UNL     1     -10.337   8.583  72.335  1.00  0.00    -0.320 OA 
HETATM   26  C   UNL     1     -10.340   6.243  72.361  1.00  0.00    -0.215 A  
HETATM   27  C   UNL     1     -10.240   5.069  71.628  1.00  0.00    -0.275 A  
HETATM   28  C   UNL     1     -10.111   5.115  70.165  1.00  0.00    -0.272 C  
HETATM   29  C   UNL     1     -10.251   3.832  72.285  1.00  0.00    -0.201 A  
HETATM   30  C   UNL     1     -10.370   3.776  73.675  1.00  0.00    -0.238 A  
HETATM   31  O   UNL     1      -9.921   4.076  69.544  1.00  0.00    -0.145 OA 
HETATM   32  C   UNL     1     -10.475   4.955  74.411  1.00  0.00    -0.325 A  
HETATM   33  C   UNL     1     -10.460   6.188  73.757  1.00  0.00    -0.295 A  
ENDBRANCH  20  21
ENDBRANCH  18  20
ENDBRANCH  16  17
ENDBRANCH  15  16
ENDBRANCH  13  15
ENDBRANCH  10  11
ENDBRANCH   9  10
ENDBRANCH   5   6
ENDBRANCH   4   5
TORSDOF 9
ENDMDL
MODEL      309
REMARK 921   NORMALIZED FREE ENERGY PREDICTED BY IDOCK:   -3.61 KCAL/MOL
REMARK 922        TOTAL FREE ENERGY PREDICTED BY IDOCK:   -8.72 KCAL/MOL
REMARK 923 INTER-LIGAND FREE ENERGY PREDICTED BY IDOCK:   -7.85 KCAL/MOL
REMARK 924 INTRA-LIGAND FREE ENERGY PREDICTED BY IDOCK:   -0.87 KCAL/MOL
REMARK 927      BINDING AFFINITY PREDICTED BY RF-SCORE:    0.00 PKD
ROOT
HETATM    1  C   UNL     1      -8.570  17.325  67.010  1.00  0.00    -0.246 C  
HETATM    2  C   UNL     1      -9.954  16.701  67.182  1.00  0.00    -0.268 C  
HETATM    3  C   UNL     1     -10.293  15.848  65.955  1.00  0.00    -0.363 C  
HETATM    4  C   UNL     1     -10.002  15.902  68.498  1.00  0.00    -0.216 C  
ENDROOT
BRANCH   4   5
HETATM    5  C   UNL     1     -11.367  15.265  68.722  1.00  0.00    -0.318 C  
BRANCH   5   6
HETATM    6  C   UNL     1     -11.444  14.471  70.023  1.00  0.00    -0.311 C  
HETATM    7  C   UNL     1     -12.249  13.170  69.844  1.00  0.00    -0.293 C  
HETATM    8  C   UNL     1     -11.631  12.251  68.779  1.00  0.00    -0.380 C  
HETATM    9  C   UNL     1     -12.372  12.462  71.204  1.00  0.00    -0.243 C  
BRANCH   9  10
HETATM   10  C   UNL     1     -13.160  11.161  71.090  1.00  0.00    -0.284 C  
BRANCH  10  11
HETATM   11  C   UNL     1     -12.265   9.936  71.191  1.00  0.00    -0.468 C  
HETATM   12  C   UNL     1     -12.882   8.851  72.093  1.00  0.00    -0.471 C  
HETATM   13  C   UNL     1     -11.901   7.679  72.294  1.00  0.00    -0.354 C  
HETATM   14  C   UNL     1     -14.217   8.326  71.550  1.00  0.00    -0.489 C  
BRANCH  13  15
HETATM   15  C   UNL     1     -10.562   8.063  72.935  1.00  0.00    -0.399 C  
BRANCH  15  16
HETATM   16  C   UNL     1     -10.055   7.009  73.920  1.00  0.00    -0.386 C  
BRANCH  16  17
HETATM   17  C   UNL     1      -9.968   5.643  73.287  1.00  0.00    -0.191 C  
HETATM   18  C   UNL     1      -8.975   5.376  72.416  1.00  0.00    -0.139 C  
HETATM   19  C   UNL     1     -10.984   4.629  73.723  1.00  0.00    -0.368 C  
BRANCH  18  20
HETATM   20  C   UNL     1      -8.684   4.052  71.759  1.00  0.00    -0.132 C  
BRANCH  20  21
HETATM   21  C   UNL     1      -8.420   4.215  70.275  1.00  0.00    -0.095 C  
HETATM   22  C   UNL     1      -7.242   3.949  69.671  1.00  0.00    -0.045 C  
HETATM   23  C   UNL     1      -5.984   3.499  70.365  1.00  0.00    -0.018 C  
HETATM   24  C   UNL     1      -7.096   4.063  68.190  1.00  0.00    -0.059 C  
HETATM   25  O   UNL     1      -6.018   3.866  67.644  1.00  0.00    -0.026 OA 
HETATM   26  C   UNL     1      -8.283   4.399  67.391  1.00  0.00    -0.100 A  
HETATM   27  C   UNL     1      -9.486   4.702  68.012  1.00  0.00    -0.191 A  
HETATM   28  C   UNL     1      -9.588   4.693  69.478  1.00  0.00    -0.188 C  
HETATM   29  C   UNL     1     -10.609   5.030  67.241  1.00  0.00    -0.075 A  
HETATM   30  C   UNL     1     -10.523   5.045  65.847  1.00  0.00    -0.233 A  
HETATM   31  O   UNL     1     -10.627   5.062  70.012  1.00  0.00    -0.245 OA 
HETATM   32  C   UNL     1      -9.315   4.735  65.223  1.00  0.00    -0.148 A  
HETATM   33  C   UNL     1      -8.195   4.414  65.991  1.00  0.00    -0.109 A  
ENDBRANCH  20  21
ENDBRANCH  18  20
ENDBRANCH  16  17
ENDBRANCH  15  16
ENDBRANCH  13  15
ENDBRANCH  10  11
ENDBRANCH   9  10
ENDBRANCH   5   6
ENDBRANCH   4   5
TORSDOF 9
ENDMDL
MODEL      310
REMARK 921   NORMALIZED FREE ENERGY PREDICTED BY IDOCK:   -3.61 KCAL/MOL
REMARK 922        TOTAL FREE ENERGY PREDICTED BY IDOCK:   -8.71 KCAL/MOL
REMARK 923 INTER-LIGAND FREE ENERGY PREDICTED BY IDOCK:   -6.99 KCAL/MOL
REMARK 924 INTRA-LIGAND FREE ENERGY PREDICTED BY IDOCK:   -1.72 KCAL/MOL
REMARK 927      BINDING AFFINITY PREDICTED BY RF-SCORE:    0.00 PKD
ROOT
HETATM    1  C   UNL     1     -13.728   8.664  72.144  1.00  0.00    -0.462 C  
HETATM    2  C   UNL     1     -12.825   9.894  72.194  1.00  0.00    -0.435 C  
HETATM    3  C   UNL     1     -11.635   9.704  71.247  1.00  0.00    -0.466 C  
HETATM    4  C   UNL     1     -13.649  11.155  71.870  1.00  0.00    -0.108 C  
ENDROOT
BRANCH   4   5
HETATM    5  C   UNL     1     -12.796  12.416  71.916  1.00  0.00    -0.315 C  
BRANCH   5   6
HETATM    6  C   UNL     1     -12.103  12.711  70.589  1.00  0.00    -0.315 C  
HETATM    7  C   UNL     1     -12.280  14.185  70.176  1.00  0.00    -0.415 C  
HETATM    8  C   UNL     1     -11.703  15.151  71.221  1.00  0.00    -0.409 C  
HETATM    9  C   UNL     1     -11.644  14.399  68.791  1.00  0.00    -0.348 C  
BRANCH   9  10
HETATM   10  C   UNL     1     -11.785  15.845  68.327  1.00  0.00    -0.191 C  
BRANCH  10  11
HETATM   11  C   UNL     1     -10.475  16.610  68.421  1.00  0.00    -0.323 C  
HETATM   12  C   UNL     1      -9.797  16.752  67.045  1.00  0.00    -0.262 C  
HETATM   13  C   UNL     1      -8.408  17.406  67.182  1.00  0.00    -0.232 C  
HETATM   14  C   UNL     1     -10.651  17.545  66.049  1.00  0.00    -0.217 C  
BRANCH  13  15
HETATM   15  C   UNL     1      -7.421  16.642  68.073  1.00  0.00    -0.170 C  
BRANCH  15  16
HETATM   16  C   UNL     1      -6.994  15.304  67.470  1.00  0.00    -0.225 C  
BRANCH  16  17
HETATM   17  C   UNL     1      -7.295  14.149  68.392  1.00  0.00    -0.115 C  
HETATM   18  C   UNL     1      -8.459  13.482  68.263  1.00  0.00    -0.168 C  
HETATM   19  C   UNL     1      -6.229  13.775  69.378  1.00  0.00    -0.107 C  
BRANCH  18  20
HETATM   20  C   UNL     1      -8.887  12.259  69.033  1.00  0.00     0.424 C  
BRANCH  20  21
HETATM   21  C   UNL     1      -9.068  11.064  68.119  1.00  0.00    -0.155 C  
HETATM   22  C   UNL     1      -9.541  11.127  66.856  1.00  0.00    -0.208 C  
HETATM   23  C   UNL     1     -10.015  12.375  66.160  1.00  0.00    -0.267 C  
HETATM   24  C   UNL     1      -9.611   9.907  66.000  1.00  0.00    -0.225 C  
HETATM   25  O   UNL     1     -10.080   9.953  64.870  1.00  0.00    -0.268 OA 
HETATM   26  C   UNL     1      -9.082   8.643  66.534  1.00  0.00    -0.206 A  
HETATM   27  C   UNL     1      -8.624   8.570  67.841  1.00  0.00    -0.134 A  
HETATM   28  C   UNL     1      -8.662   9.754  68.709  1.00  0.00    -0.128 C  
HETATM   29  C   UNL     1      -8.131   7.358  68.343  1.00  0.00    -0.125 A  
HETATM   30  C   UNL     1      -8.092   6.225  67.528  1.00  0.00    -0.113 A  
HETATM   31  O   UNL     1      -8.351   9.647  69.890  1.00  0.00    -0.147 OA 
HETATM   32  C   UNL     1      -8.548   6.300  66.213  1.00  0.00    -0.138 A  
HETATM   33  C   UNL     1      -9.044   7.506  65.714  1.00  0.00    -0.020 A  
ENDBRANCH  20  21
ENDBRANCH  18  20
ENDBRANCH  16  17
ENDBRANCH  15  16
ENDBRANCH  13  15
ENDBRANCH  10  11
ENDBRANCH   9  10
ENDBRANCH   5   6
ENDBRANCH   4   5
TORSDOF 9
ENDMDL
MODEL      311
REMARK 921   NORMALIZED FREE ENERGY PREDICTED BY IDOCK:   -3.61 KCAL/MOL
REMARK 922        TOTAL FREE ENERGY PREDICTED BY IDOCK:   -8.71 KCAL/MOL
REMARK 923 INTER-LIGAND FREE ENERGY PREDICTED BY IDOCK:   -6.40 KCAL/MOL
REMARK 924 INTRA-LIGAND FREE ENERGY PREDICTED BY IDOCK:   -2.30 KCAL/MOL
REMARK 927      BINDING AFFINITY PREDICTED BY RF-SCORE:    0.00 PKD
ROOT
HETATM    1  C   UNL     1      -6.706  21.210  66.947  1.00  0.00    -0.353 C  
HETATM    2  C   UNL     1      -7.809  20.406  67.631  1.00  0.00    -0.298 C  
HETATM    3  C   UNL     1      -9.136  21.169  67.548  1.00  0.00     0.037 C  
HETATM    4  C   UNL     1      -7.889  19.000  67.007  1.00  0.00    -0.255 C  
ENDROOT
BRANCH   4   5
HETATM    5  C   UNL     1      -8.970  18.150  67.661  1.00  0.00    -0.260 C  
BRANCH   5   6
HETATM    6  C   UNL     1      -9.039  16.737  67.092  1.00  0.00    -0.224 C  
HETATM    7  C   UNL     1     -10.321  16.524  66.263  1.00  0.00    -0.327 C  
HETATM    8  C   UNL     1     -10.413  17.502  65.082  1.00  0.00     0.376 C  
HETATM    9  C   UNL     1     -10.381  15.060  65.795  1.00  0.00    -0.354 C  
BRANCH   9  10
HETATM   10  C   UNL     1     -11.631  14.788  64.965  1.00  0.00    -0.378 C  
BRANCH  10  11
HETATM   11  C   UNL     1     -11.500  13.528  64.124  1.00  0.00    -0.394 C  
HETATM   12  C   UNL     1     -11.088  12.312  64.976  1.00  0.00    -0.359 C  
HETATM   13  C   UNL     1     -10.827  11.081  64.087  1.00  0.00    -0.250 C  
HETATM   14  C   UNL     1     -12.129  11.969  66.050  1.00  0.00     0.062 C  
BRANCH  13  15
HETATM   15  C   UNL     1      -9.723  11.266  63.039  1.00  0.00    -0.389 C  
BRANCH  15  16
HETATM   16  C   UNL     1      -8.329  10.954  63.586  1.00  0.00     0.131 C  
BRANCH  16  17
HETATM   17  C   UNL     1      -8.390  10.318  64.952  1.00  0.00    -0.173 C  
HETATM   18  C   UNL     1      -8.035  11.036  66.035  1.00  0.00    -0.094 C  
HETATM   19  C   UNL     1      -8.908   8.912  65.022  1.00  0.00    -0.183 C  
BRANCH  18  20
HETATM   20  C   UNL     1      -8.115  10.597  67.474  1.00  0.00    -0.111 C  
BRANCH  20  21
HETATM   21  C   UNL     1      -9.345  11.160  68.159  1.00  0.00    -0.176 C  
HETATM   22  C   UNL     1     -10.384  10.420  68.601  1.00  0.00    -0.202 C  
HETATM   23  C   UNL     1     -10.526   8.929  68.446  1.00  0.00    -0.230 C  
HETATM   24  C   UNL     1     -11.519  11.052  69.336  1.00  0.00    -0.294 C  
HETATM   25  O   UNL     1     -12.483  10.392  69.699  1.00  0.00    -0.133 OA 
HETATM   26  C   UNL     1     -11.447  12.490  69.637  1.00  0.00    -0.255 A  
HETATM   27  C   UNL     1     -10.395  13.256  69.157  1.00  0.00     0.121 A  
HETATM   28  C   UNL     1      -9.339  12.641  68.341  1.00  0.00    -0.148 C  
HETATM   29  C   UNL     1     -10.340  14.627  69.442  1.00  0.00    -0.136 A  
HETATM   30  C   UNL     1     -11.339  15.223  70.215  1.00  0.00    -0.318 A  
HETATM   31  O   UNL     1      -8.474  13.351  67.840  1.00  0.00    -0.149 OA 
HETATM   32  C   UNL     1     -12.394  14.452  70.701  1.00  0.00    -0.422 A  
HETATM   33  C   UNL     1     -12.451  13.087  70.413  1.00  0.00    -0.266 A  
ENDBRANCH  20  21
ENDBRANCH  18  20
ENDBRANCH  16  17
ENDBRANCH  15  16
ENDBRANCH  13  15
ENDBRANCH  10  11
ENDBRANCH   9  10
ENDBRANCH   5   6
ENDBRANCH   4   5
TORSDOF 9
ENDMDL
MODEL      312
REMARK 921   NORMALIZED FREE ENERGY PREDICTED BY IDOCK:   -3.61 KCAL/MOL
REMARK 922        TOTAL FREE ENERGY PREDICTED BY IDOCK:   -8.70 KCAL/MOL
REMARK 923 INTER-LIGAND FREE ENERGY PREDICTED BY IDOCK:   -7.25 KCAL/MOL
REMARK 924 INTRA-LIGAND FREE ENERGY PREDICTED BY IDOCK:   -1.45 KCAL/MOL
REMARK 927      BINDING AFFINITY PREDICTED BY RF-SCORE:    0.00 PKD
ROOT
HETATM    1  C   UNL     1     -10.088   8.383  70.989  1.00  0.00    -0.242 C  
HETATM    2  C   UNL     1     -10.123   6.929  71.456  1.00  0.00    -0.195 C  
HETATM    3  C   UNL     1     -11.437   6.275  71.015  1.00  0.00    -0.370 C  
HETATM    4  C   UNL     1      -8.881   6.186  70.931  1.00  0.00    -0.136 C  
ENDROOT
BRANCH   4   5
HETATM    5  C   UNL     1      -8.862   4.730  71.377  1.00  0.00    -0.152 C  
BRANCH   5   6
HETATM    6  C   UNL     1      -8.959   3.751  70.211  1.00  0.00    -0.170 C  
HETATM    7  C   UNL     1      -8.228   4.284  68.963  1.00  0.00    -0.077 C  
HETATM    8  C   UNL     1      -6.736   4.534  69.232  1.00  0.00    -0.045 C  
HETATM    9  C   UNL     1      -8.440   3.302  67.798  1.00  0.00    -0.103 C  
BRANCH   9  10
HETATM   10  C   UNL     1      -7.735   3.777  66.531  1.00  0.00    -0.088 C  
BRANCH  10  11
HETATM   11  C   UNL     1      -8.203   5.156  66.095  1.00  0.00    -0.109 C  
HETATM   12  C   UNL     1      -7.930   5.405  64.599  1.00  0.00    -0.112 C  
HETATM   13  C   UNL     1      -8.283   6.853  64.209  1.00  0.00     0.039 C  
HETATM   14  C   UNL     1      -8.684   4.422  63.694  1.00  0.00    -0.129 C  
BRANCH  13  15
HETATM   15  C   UNL     1      -7.508   7.933  64.975  1.00  0.00    -0.088 C  
BRANCH  15  16
HETATM   16  C   UNL     1      -8.036   8.145  66.394  1.00  0.00    -0.104 C  
BRANCH  16  17
HETATM   17  C   UNL     1      -9.430   8.720  66.397  1.00  0.00    -0.291 C  
HETATM   18  C   UNL     1      -9.631   9.979  65.958  1.00  0.00    -0.279 C  
HETATM   19  C   UNL     1     -10.536   7.813  66.847  1.00  0.00    -0.388 C  
BRANCH  18  20
HETATM   20  C   UNL     1     -10.955  10.681  65.809  1.00  0.00     0.091 C  
BRANCH  20  21
HETATM   21  C   UNL     1     -10.959  12.016  66.527  1.00  0.00    -0.337 C  
HETATM   22  C   UNL     1     -10.651  13.198  65.953  1.00  0.00    -0.290 C  
HETATM   23  C   UNL     1     -10.204  13.389  64.528  1.00  0.00    -0.321 C  
HETATM   24  C   UNL     1     -10.759  14.475  66.718  1.00  0.00    -0.291 C  
HETATM   25  O   UNL     1     -10.438  15.543  66.214  1.00  0.00    -0.288 OA 
HETATM   26  C   UNL     1     -11.281  14.428  68.092  1.00  0.00    -0.300 A  
HETATM   27  C   UNL     1     -11.569  13.212  68.693  1.00  0.00    -0.356 A  
HETATM   28  C   UNL     1     -11.354  11.954  67.965  1.00  0.00    -0.288 C  
HETATM   29  C   UNL     1     -12.057  13.178  70.005  1.00  0.00    -0.375 A  
HETATM   30  C   UNL     1     -12.263  14.367  70.708  1.00  0.00    -0.413 A  
HETATM   31  O   UNL     1     -11.516  10.887  68.546  1.00  0.00    -0.273 OA 
HETATM   32  C   UNL     1     -11.978  15.590  70.102  1.00  0.00    -0.389 A  
HETATM   33  C   UNL     1     -11.486  15.623  68.796  1.00  0.00    -0.382 A  
ENDBRANCH  20  21
ENDBRANCH  18  20
ENDBRANCH  16  17
ENDBRANCH  15  16
ENDBRANCH  13  15
ENDBRANCH  10  11
ENDBRANCH   9  10
ENDBRANCH   5   6
ENDBRANCH   4   5
TORSDOF 9
ENDMDL
MODEL      313
REMARK 921   NORMALIZED FREE ENERGY PREDICTED BY IDOCK:   -3.60 KCAL/MOL
REMARK 922        TOTAL FREE ENERGY PREDICTED BY IDOCK:   -8.69 KCAL/MOL
REMARK 923 INTER-LIGAND FREE ENERGY PREDICTED BY IDOCK:   -7.27 KCAL/MOL
REMARK 924 INTRA-LIGAND FREE ENERGY PREDICTED BY IDOCK:   -1.42 KCAL/MOL
REMARK 927      BINDING AFFINITY PREDICTED BY RF-SCORE:    0.00 PKD
ROOT
HETATM    1  C   UNL     1     -14.403   7.944  72.080  1.00  0.00    -0.417 C  
HETATM    2  C   UNL     1     -13.203   8.663  71.469  1.00  0.00    -0.335 C  
HETATM    3  C   UNL     1     -13.242  10.148  71.845  1.00  0.00    -0.557 C  
HETATM    4  C   UNL     1     -11.901   7.969  71.913  1.00  0.00    -0.353 C  
ENDROOT
BRANCH   4   5
HETATM    5  C   UNL     1     -10.671   8.643  71.322  1.00  0.00    -0.322 C  
BRANCH   5   6
HETATM    6  C   UNL     1     -10.917   9.208  69.926  1.00  0.00    -0.218 C  
HETATM    7  C   UNL     1     -10.311   8.304  68.836  1.00  0.00    -0.230 C  
HETATM    8  C   UNL     1     -10.900   6.886  68.869  1.00  0.00    -0.247 C  
HETATM    9  C   UNL     1     -10.508   8.970  67.463  1.00  0.00    -0.338 C  
BRANCH   9  10
HETATM   10  C   UNL     1      -9.928   8.118  66.339  1.00  0.00    -0.238 C  
BRANCH  10  11
HETATM   11  C   UNL     1      -8.653   8.714  65.764  1.00  0.00    -0.184 C  
HETATM   12  C   UNL     1      -7.419   8.345  66.609  1.00  0.00    -0.082 C  
HETATM   13  C   UNL     1      -6.161   9.070  66.091  1.00  0.00    -0.059 C  
HETATM   14  C   UNL     1      -7.168   6.833  66.651  1.00  0.00    -0.073 C  
BRANCH  13  15
HETATM   15  C   UNL     1      -6.250  10.602  66.103  1.00  0.00    -0.125 C  
BRANCH  15  16
HETATM   16  C   UNL     1      -5.743  11.213  67.410  1.00  0.00    -0.052 C  
BRANCH  16  17
HETATM   17  C   UNL     1      -6.871  11.746  68.256  1.00  0.00    -0.068 C  
HETATM   18  C   UNL     1      -7.266  13.026  68.109  1.00  0.00    -0.116 C  
HETATM   19  C   UNL     1      -7.533  10.777  69.191  1.00  0.00    -0.123 C  
BRANCH  18  20
HETATM   20  C   UNL     1      -8.422  13.699  68.801  1.00  0.00     0.056 C  
BRANCH  20  21
HETATM   21  C   UNL     1      -8.421  15.195  68.556  1.00  0.00    -0.160 C  
HETATM   22  C   UNL     1      -9.437  15.881  67.989  1.00  0.00    -0.206 C  
HETATM   23  C   UNL     1     -10.711  15.279  67.459  1.00  0.00    -0.285 C  
HETATM   24  C   UNL     1      -9.382  17.367  67.859  1.00  0.00    -0.267 C  
HETATM   25  O   UNL     1     -10.280  17.987  67.306  1.00  0.00    -0.333 OA 
HETATM   26  C   UNL     1      -8.230  18.079  68.431  1.00  0.00    -0.305 A  
HETATM   27  C   UNL     1      -7.172  17.374  68.987  1.00  0.00    -0.224 A  
HETATM   28  C   UNL     1      -7.189  15.905  69.009  1.00  0.00    -0.177 C  
HETATM   29  C   UNL     1      -6.075  18.062  69.520  1.00  0.00    -0.247 A  
HETATM   30  C   UNL     1      -6.046  19.458  69.502  1.00  0.00    -0.312 A  
HETATM   31  O   UNL     1      -6.203  15.297  69.410  1.00  0.00    -0.109 OA 
HETATM   32  C   UNL     1      -7.112  20.168  68.948  1.00  0.00    -0.187 A  
HETATM   33  C   UNL     1      -8.202  19.481  68.411  1.00  0.00    -0.379 A  
ENDBRANCH  20  21
ENDBRANCH  18  20
ENDBRANCH  16  17
ENDBRANCH  15  16
ENDBRANCH  13  15
ENDBRANCH  10  11
ENDBRANCH   9  10
ENDBRANCH   5   6
ENDBRANCH   4   5
TORSDOF 9
ENDMDL
MODEL      314
REMARK 921   NORMALIZED FREE ENERGY PREDICTED BY IDOCK:   -3.59 KCAL/MOL
REMARK 922        TOTAL FREE ENERGY PREDICTED BY IDOCK:   -8.68 KCAL/MOL
REMARK 923 INTER-LIGAND FREE ENERGY PREDICTED BY IDOCK:   -6.71 KCAL/MOL
REMARK 924 INTRA-LIGAND FREE ENERGY PREDICTED BY IDOCK:   -1.97 KCAL/MOL
REMARK 927      BINDING AFFINITY PREDICTED BY RF-SCORE:    0.00 PKD
ROOT
HETATM    1  C   UNL     1     -10.756   3.481  62.653  1.00  0.00    -0.179 C  
HETATM    2  C   UNL     1     -10.134   3.601  64.042  1.00  0.00    -0.207 C  
HETATM    3  C   UNL     1      -9.508   2.263  64.447  1.00  0.00    -0.133 C  
HETATM    4  C   UNL     1      -9.123   4.763  64.059  1.00  0.00    -0.045 C  
ENDROOT
BRANCH   4   5
HETATM    5  C   UNL     1      -8.478   4.933  65.428  1.00  0.00    -0.133 C  
BRANCH   5   6
HETATM    6  C   UNL     1      -7.727   6.253  65.570  1.00  0.00    -0.095 C  
HETATM    7  C   UNL     1      -8.695   7.436  65.767  1.00  0.00    -0.132 C  
HETATM    8  C   UNL     1      -9.567   7.265  67.021  1.00  0.00    -0.213 C  
HETATM    9  C   UNL     1      -7.887   8.745  65.810  1.00  0.00    -0.099 C  
BRANCH   9  10
HETATM   10  C   UNL     1      -8.794   9.955  66.007  1.00  0.00    -0.166 C  
BRANCH  10  11
HETATM   11  C   UNL     1      -9.843  10.072  64.912  1.00  0.00    -0.352 C  
HETATM   12  C   UNL     1      -9.494  11.183  63.903  1.00  0.00    -0.252 C  
HETATM   13  C   UNL     1     -10.634  11.378  62.884  1.00  0.00    -0.017 C  
HETATM   14  C   UNL     1      -8.177  10.913  63.165  1.00  0.00     0.056 C  
BRANCH  13  15
HETATM   15  C   UNL     1     -11.987  11.761  63.498  1.00  0.00    -0.484 C  
BRANCH  15  16
HETATM   16  C   UNL     1     -12.219  13.272  63.520  1.00  0.00    -0.513 C  
BRANCH  16  17
HETATM   17  C   UNL     1     -11.884  13.874  64.861  1.00  0.00    -0.401 C  
HETATM   18  C   UNL     1     -12.119  13.167  65.984  1.00  0.00    -0.495 C  
HETATM   19  C   UNL     1     -11.244  15.231  64.854  1.00  0.00    -0.422 C  
BRANCH  18  20
HETATM   20  C   UNL     1     -11.771  13.570  67.393  1.00  0.00    -0.419 C  
BRANCH  20  21
HETATM   21  C   UNL     1     -10.342  13.202  67.738  1.00  0.00    -0.230 C  
HETATM   22  C   UNL     1      -9.279  14.020  67.583  1.00  0.00    -0.194 C  
HETATM   23  C   UNL     1      -9.319  15.407  66.999  1.00  0.00    -0.238 C  
HETATM   24  C   UNL     1      -7.916  13.601  68.025  1.00  0.00    -0.154 C  
HETATM   25  O   UNL     1      -6.944  14.322  67.846  1.00  0.00    -0.128 OA 
HETATM   26  C   UNL     1      -7.765  12.305  68.702  1.00  0.00    -0.076 A  
HETATM   27  C   UNL     1      -8.850  11.451  68.835  1.00  0.00    -0.010 A  
HETATM   28  C   UNL     1     -10.164  11.830  68.298  1.00  0.00    -0.205 C  
HETATM   29  C   UNL     1      -8.694  10.214  69.474  1.00  0.00    -0.189 A  
HETATM   30  C   UNL     1      -7.449   9.842  69.986  1.00  0.00    -0.158 A  
HETATM   31  O   UNL     1     -11.085  11.022  68.332  1.00  0.00    -0.210 OA 
HETATM   32  C   UNL     1      -6.359  10.702  69.858  1.00  0.00    -0.110 A  
HETATM   33  C   UNL     1      -6.515  11.932  69.216  1.00  0.00    -0.111 A  
ENDBRANCH  20  21
ENDBRANCH  18  20
ENDBRANCH  16  17
ENDBRANCH  15  16
ENDBRANCH  13  15
ENDBRANCH  10  11
ENDBRANCH   9  10
ENDBRANCH   5   6
ENDBRANCH   4   5
TORSDOF 9
ENDMDL
MODEL      315
REMARK 921   NORMALIZED FREE ENERGY PREDICTED BY IDOCK:   -3.54 KCAL/MOL
REMARK 922        TOTAL FREE ENERGY PREDICTED BY IDOCK:   -8.61 KCAL/MOL
REMARK 923 INTER-LIGAND FREE ENERGY PREDICTED BY IDOCK:   -6.55 KCAL/MOL
REMARK 924 INTRA-LIGAND FREE ENERGY PREDICTED BY IDOCK:   -2.06 KCAL/MOL
REMARK 927      BINDING AFFINITY PREDICTED BY RF-SCORE:    0.00 PKD
ROOT
HETATM    1  C   UNL     1     -12.768  14.001  65.229  1.00  0.00    -0.468 C  
HETATM    2  C   UNL     1     -11.824  12.816  65.042  1.00  0.00    -0.423 C  
HETATM    3  C   UNL     1     -11.475  12.661  63.557  1.00  0.00    -0.557 C  
HETATM    4  C   UNL     1     -10.579  12.999  65.931  1.00  0.00    -0.288 C  
ENDROOT
BRANCH   4   5
HETATM    5  C   UNL     1      -9.606  11.837  65.788  1.00  0.00    -0.253 C  
BRANCH   5   6
HETATM    6  C   UNL     1     -10.277  10.478  65.955  1.00  0.00    -0.310 C  
HETATM    7  C   UNL     1      -9.567   9.625  67.024  1.00  0.00    -0.221 C  
HETATM    8  C   UNL     1      -9.563  10.309  68.400  1.00  0.00    -0.155 C  
HETATM    9  C   UNL     1     -10.228   8.237  67.081  1.00  0.00    -0.365 C  
BRANCH   9  10
HETATM   10  C   UNL     1      -9.567   7.344  68.126  1.00  0.00    -0.148 C  
BRANCH  10  11
HETATM   11  C   UNL     1      -8.069   7.585  68.224  1.00  0.00    -0.124 C  
HETATM   12  C   UNL     1      -7.262   6.333  67.829  1.00  0.00    -0.083 C  
HETATM   13  C   UNL     1      -5.755   6.552  68.066  1.00  0.00    -0.012 C  
HETATM   14  C   UNL     1      -7.505   5.913  66.373  1.00  0.00    -0.083 C  
BRANCH  13  15
HETATM   15  C   UNL     1      -5.372   6.873  69.516  1.00  0.00    -0.015 C  
BRANCH  15  16
HETATM   16  C   UNL     1      -5.142   8.366  69.750  1.00  0.00    -0.029 C  
BRANCH  16  17
HETATM   17  C   UNL     1      -6.167   8.954  70.687  1.00  0.00    -0.042 C  
HETATM   18  C   UNL     1      -6.765   8.162  71.599  1.00  0.00    -0.060 C  
HETATM   19  C   UNL     1      -6.420  10.428  70.575  1.00  0.00    -0.095 C  
BRANCH  18  20
HETATM   20  C   UNL     1      -7.741   8.591  72.663  1.00  0.00    -0.073 C  
BRANCH  20  21
HETATM   21  C   UNL     1      -8.862   7.584  72.827  1.00  0.00    -0.190 C  
HETATM   22  C   UNL     1     -10.103   7.726  72.313  1.00  0.00    -0.277 C  
HETATM   23  C   UNL     1     -10.600   8.919  71.541  1.00  0.00    -0.399 C  
HETATM   24  C   UNL     1     -11.122   6.644  72.456  1.00  0.00    -0.261 C  
HETATM   25  O   UNL     1     -12.260   6.787  72.030  1.00  0.00    -0.321 OA 
HETATM   26  C   UNL     1     -10.723   5.387  73.105  1.00  0.00    -0.309 A  
HETATM   27  C   UNL     1      -9.460   5.251  73.660  1.00  0.00    -0.133 A  
HETATM   28  C   UNL     1      -8.502   6.365  73.608  1.00  0.00    -0.122 C  
HETATM   29  C   UNL     1      -9.094   4.052  74.284  1.00  0.00    -0.100 A  
HETATM   30  C   UNL     1      -9.996   2.988  74.343  1.00  0.00    -0.172 A  
HETATM   31  O   UNL     1      -7.429   6.265  74.192  1.00  0.00    -0.087 OA 
HETATM   32  C   UNL     1     -11.265   3.122  73.781  1.00  0.00    -0.245 A  
HETATM   33  C   UNL     1     -11.631   4.319  73.163  1.00  0.00    -0.129 A  
ENDBRANCH  20  21
ENDBRANCH  18  20
ENDBRANCH  16  17
ENDBRANCH  15  16
ENDBRANCH  13  15
ENDBRANCH  10  11
ENDBRANCH   9  10
ENDBRANCH   5   6
ENDBRANCH   4   5
TORSDOF 9
ENDMDL
MODEL      316
REMARK 921   NORMALIZED FREE ENERGY PREDICTED BY IDOCK:   -3.54 KCAL/MOL
REMARK 922        TOTAL FREE ENERGY PREDICTED BY IDOCK:   -8.60 KCAL/MOL
REMARK 923 INTER-LIGAND FREE ENERGY PREDICTED BY IDOCK:   -7.04 KCAL/MOL
REMARK 924 INTRA-LIGAND FREE ENERGY PREDICTED BY IDOCK:   -1.57 KCAL/MOL
REMARK 927      BINDING AFFINITY PREDICTED BY RF-SCORE:    0.00 PKD
ROOT
HETATM    1  C   UNL     1      -8.502   6.062  72.997  1.00  0.00    -0.119 C  
HETATM    2  C   UNL     1      -8.999   5.160  71.870  1.00  0.00    -0.147 C  
HETATM    3  C   UNL     1      -9.832   4.013  72.453  1.00  0.00    -0.220 C  
HETATM    4  C   UNL     1      -9.778   5.999  70.839  1.00  0.00    -0.207 C  
ENDROOT
BRANCH   4   5
HETATM    5  C   UNL     1     -10.289   5.146  69.686  1.00  0.00    -0.316 C  
BRANCH   5   6
HETATM    6  C   UNL     1      -9.210   4.836  68.654  1.00  0.00    -0.168 C  
HETATM    7  C   UNL     1      -9.822   4.480  67.285  1.00  0.00    -0.216 C  
HETATM    8  C   UNL     1     -10.682   5.622  66.723  1.00  0.00    -0.358 C  
HETATM    9  C   UNL     1      -8.694   4.087  66.316  1.00  0.00    -0.116 C  
BRANCH   9  10
HETATM   10  C   UNL     1      -9.240   3.725  64.938  1.00  0.00    -0.148 C  
BRANCH  10  11
HETATM   11  C   UNL     1      -8.911   4.780  63.894  1.00  0.00    -0.112 C  
HETATM   12  C   UNL     1      -7.405   5.102  63.862  1.00  0.00    -0.052 C  
HETATM   13  C   UNL     1      -7.112   6.268  62.897  1.00  0.00    -0.048 C  
HETATM   14  C   UNL     1      -6.552   3.885  63.481  1.00  0.00    -0.038 C  
BRANCH  13  15
HETATM   15  C   UNL     1      -7.827   7.581  63.239  1.00  0.00    -0.126 C  
BRANCH  15  16
HETATM   16  C   UNL     1      -8.125   7.721  64.733  1.00  0.00    -0.131 C  
BRANCH  16  17
HETATM   17  C   UNL     1      -7.944   9.138  65.213  1.00  0.00    -0.111 C  
HETATM   18  C   UNL     1      -8.375   9.484  66.442  1.00  0.00    -0.120 C  
HETATM   19  C   UNL     1      -7.228  10.080  64.290  1.00  0.00    -0.133 C  
BRANCH  18  20
HETATM   20  C   UNL     1      -8.202  10.820  67.116  1.00  0.00    -0.123 C  
BRANCH  20  21
HETATM   21  C   UNL     1      -9.358  11.126  68.047  1.00  0.00    -0.166 C  
HETATM   22  C   UNL     1     -10.177  12.193  67.930  1.00  0.00    -0.203 C  
HETATM   23  C   UNL     1     -10.055  13.282  66.897  1.00  0.00    -0.250 C  
HETATM   24  C   UNL     1     -11.341  12.372  68.848  1.00  0.00    -0.294 C  
HETATM   25  O   UNL     1     -12.059  13.360  68.772  1.00  0.00    -0.337 OA 
HETATM   26  C   UNL     1     -11.623  11.322  69.837  1.00  0.00    -0.413 A  
HETATM   27  C   UNL     1     -10.766  10.241  69.978  1.00  0.00    -0.345 A  
HETATM   28  C   UNL     1      -9.562  10.133  69.142  1.00  0.00    -0.212 C  
HETATM   29  C   UNL     1     -11.039   9.250  70.930  1.00  0.00    -0.374 A  
HETATM   30  C   UNL     1     -12.178   9.344  71.733  1.00  0.00    -0.465 A  
HETATM   31  O   UNL     1      -8.763   9.227  69.350  1.00  0.00    -0.135 OA 
HETATM   32  C   UNL     1     -13.043  10.428  71.587  1.00  0.00    -0.553 A  
HETATM   33  C   UNL     1     -12.767  11.417  70.642  1.00  0.00    -0.282 A  
ENDBRANCH  20  21
ENDBRANCH  18  20
ENDBRANCH  16  17
ENDBRANCH  15  16
ENDBRANCH  13  15
ENDBRANCH  10  11
ENDBRANCH   9  10
ENDBRANCH   5   6
ENDBRANCH   4   5
TORSDOF 9
ENDMDL
MODEL      317
REMARK 921   NORMALIZED FREE ENERGY PREDICTED BY IDOCK:   -3.53 KCAL/MOL
REMARK 922        TOTAL FREE ENERGY PREDICTED BY IDOCK:   -8.59 KCAL/MOL
REMARK 923 INTER-LIGAND FREE ENERGY PREDICTED BY IDOCK:   -7.23 KCAL/MOL
REMARK 924 INTRA-LIGAND FREE ENERGY PREDICTED BY IDOCK:   -1.36 KCAL/MOL
REMARK 927      BINDING AFFINITY PREDICTED BY RF-SCORE:    0.00 PKD
ROOT
HETATM    1  C   UNL     1      -7.548   8.044  73.910  1.00  0.00    -0.219 C  
HETATM    2  C   UNL     1      -8.802   7.354  73.379  1.00  0.00    -0.212 C  
HETATM    3  C   UNL     1      -9.653   6.852  74.550  1.00  0.00    -0.220 C  
HETATM    4  C   UNL     1      -9.570   8.316  72.452  1.00  0.00    -0.364 C  
ENDROOT
BRANCH   4   5
HETATM    5  C   UNL     1     -10.829   7.672  71.886  1.00  0.00    -0.274 C  
BRANCH   5   6
HETATM    6  C   UNL     1     -11.898   8.692  71.508  1.00  0.00    -0.366 C  
HETATM    7  C   UNL     1     -11.289   9.903  70.774  1.00  0.00    -0.430 C  
HETATM    8  C   UNL     1     -10.568   9.491  69.482  1.00  0.00    -0.238 C  
HETATM    9  C   UNL     1     -12.397  10.936  70.504  1.00  0.00    -0.463 C  
BRANCH   9  10
HETATM   10  C   UNL     1     -11.853  12.160  69.774  1.00  0.00    -0.397 C  
BRANCH  10  11
HETATM   11  C   UNL     1     -11.269  11.808  68.416  1.00  0.00    -0.307 C  
HETATM   12  C   UNL     1     -10.892  13.067  67.612  1.00  0.00    -0.256 C  
HETATM   13  C   UNL     1     -10.432  12.695  66.189  1.00  0.00    -0.278 C  
HETATM   14  C   UNL     1      -9.810  13.905  68.307  1.00  0.00    -0.231 C  
BRANCH  13  15
HETATM   15  C   UNL     1     -11.475  11.944  65.351  1.00  0.00    -0.310 C  
BRANCH  15  16
HETATM   16  C   UNL     1     -11.064  11.801  63.885  1.00  0.00    -0.482 C  
BRANCH  16  17
HETATM   17  C   UNL     1      -9.840  10.936  63.726  1.00  0.00    -0.391 C  
HETATM   18  C   UNL     1      -9.442  10.151  64.746  1.00  0.00    -0.355 C  
HETATM   19  C   UNL     1      -9.160  10.965  62.389  1.00  0.00    -0.336 C  
BRANCH  18  20
HETATM   20  C   UNL     1      -8.304   9.165  64.735  1.00  0.00    -0.176 C  
BRANCH  20  21
HETATM   21  C   UNL     1      -8.068   8.574  66.111  1.00  0.00    -0.105 C  
HETATM   22  C   UNL     1      -8.418   7.324  66.481  1.00  0.00    -0.125 C  
HETATM   23  C   UNL     1      -9.142   6.326  65.617  1.00  0.00     0.019 C  
HETATM   24  C   UNL     1      -8.074   6.799  67.835  1.00  0.00    -0.114 C  
HETATM   25  O   UNL     1      -8.428   5.682  68.188  1.00  0.00    -0.100 OA 
HETATM   26  C   UNL     1      -7.278   7.646  68.735  1.00  0.00    -0.082 A  
HETATM   27  C   UNL     1      -6.944   8.941  68.369  1.00  0.00    -0.065 A  
HETATM   28  C   UNL     1      -7.383   9.484  67.076  1.00  0.00    -0.087 C  
HETATM   29  C   UNL     1      -6.194   9.743  69.238  1.00  0.00    -0.036 A  
HETATM   30  C   UNL     1      -5.773   9.239  70.471  1.00  0.00    -0.038 A  
HETATM   31  O   UNL     1      -7.168  10.662  66.813  1.00  0.00    -0.106 OA 
HETATM   32  C   UNL     1      -6.105   7.935  70.837  1.00  0.00    -0.034 A  
HETATM   33  C   UNL     1      -6.857   7.138  69.973  1.00  0.00    -0.056 A  
ENDBRANCH  20  21
ENDBRANCH  18  20
ENDBRANCH  16  17
ENDBRANCH  15  16
ENDBRANCH  13  15
ENDBRANCH  10  11
ENDBRANCH   9  10
ENDBRANCH   5   6
ENDBRANCH   4   5
TORSDOF 9
ENDMDL
MODEL      318
REMARK 921   NORMALIZED FREE ENERGY PREDICTED BY IDOCK:   -3.53 KCAL/MOL
REMARK 922        TOTAL FREE ENERGY PREDICTED BY IDOCK:   -8.59 KCAL/MOL
REMARK 923 INTER-LIGAND FREE ENERGY PREDICTED BY IDOCK:   -7.56 KCAL/MOL
REMARK 924 INTRA-LIGAND FREE ENERGY PREDICTED BY IDOCK:   -1.03 KCAL/MOL
REMARK 927      BINDING AFFINITY PREDICTED BY RF-SCORE:    0.00 PKD
ROOT
HETATM    1  C   UNL     1      -6.888   8.606  68.523  1.00  0.00    -0.064 C  
HETATM    2  C   UNL     1      -6.545   9.849  69.340  1.00  0.00    -0.051 C  
HETATM    3  C   UNL     1      -5.128   9.720  69.910  1.00  0.00    -0.033 C  
HETATM    4  C   UNL     1      -6.726  11.108  68.470  1.00  0.00    -0.062 C  
ENDROOT
BRANCH   4   5
HETATM    5  C   UNL     1      -6.404  12.380  69.241  1.00  0.00    -0.106 C  
BRANCH   5   6
HETATM    6  C   UNL     1      -5.777  13.461  68.366  1.00  0.00    -0.087 C  
HETATM    7  C   UNL     1      -6.616  14.754  68.377  1.00  0.00    -0.101 C  
HETATM    8  C   UNL     1      -6.764  15.334  69.791  1.00  0.00    -0.176 C  
HETATM    9  C   UNL     1      -5.987  15.770  67.408  1.00  0.00    -0.089 C  
BRANCH   9  10
HETATM   10  C   UNL     1      -6.776  17.075  67.376  1.00  0.00    -0.176 C  
BRANCH  10  11
HETATM   11  C   UNL     1      -8.278  16.840  67.363  1.00  0.00    -0.195 C  
HETATM   12  C   UNL     1      -9.011  17.771  68.347  1.00  0.00    -0.281 C  
HETATM   13  C   UNL     1     -10.510  17.424  68.420  1.00  0.00    -0.384 C  
HETATM   14  C   UNL     1      -8.836  19.253  67.993  1.00  0.00    -0.360 C  
BRANCH  13  15
HETATM   15  C   UNL     1     -10.817  15.990  68.873  1.00  0.00    -0.286 C  
BRANCH  15  16
HETATM   16  C   UNL     1     -12.277  15.801  69.287  1.00  0.00    -0.120 C  
BRANCH  16  17
HETATM   17  C   UNL     1     -12.419  14.805  70.410  1.00  0.00    -0.405 C  
HETATM   18  C   UNL     1     -12.377  13.486  70.139  1.00  0.00    -0.345 C  
HETATM   19  C   UNL     1     -12.545  15.363  71.797  1.00  0.00    -0.455 C  
BRANCH  18  20
HETATM   20  C   UNL     1     -12.414  12.358  71.137  1.00  0.00    -0.323 C  
BRANCH  20  21
HETATM   21  C   UNL     1     -11.878  11.072  70.541  1.00  0.00    -0.464 C  
HETATM   22  C   UNL     1     -12.024   9.849  71.095  1.00  0.00    -0.473 C  
HETATM   23  C   UNL     1     -12.694   9.559  72.412  1.00  0.00    -0.313 C  
HETATM   24  C   UNL     1     -11.531   8.626  70.396  1.00  0.00    -0.136 C  
HETATM   25  O   UNL     1     -11.623   7.521  70.915  1.00  0.00    -0.282 OA 
HETATM   26  C   UNL     1     -10.948   8.770  69.055  1.00  0.00     0.046 A  
HETATM   27  C   UNL     1     -10.769  10.028  68.498  1.00  0.00    -0.264 A  
HETATM   28  C   UNL     1     -11.159  11.233  69.243  1.00  0.00    -0.255 C  
HETATM   29  C   UNL     1     -10.203  10.155  67.223  1.00  0.00    -0.273 A  
HETATM   30  C   UNL     1      -9.826   9.018  66.506  1.00  0.00    -0.338 A  
HETATM   31  O   UNL     1     -10.900  12.338  68.780  1.00  0.00    -0.226 OA 
HETATM   32  C   UNL     1     -10.010   7.753  67.063  1.00  0.00    -0.314 A  
HETATM   33  C   UNL     1     -10.569   7.627  68.336  1.00  0.00    -0.166 A  
ENDBRANCH  20  21
ENDBRANCH  18  20
ENDBRANCH  16  17
ENDBRANCH  15  16
ENDBRANCH  13  15
ENDBRANCH  10  11
ENDBRANCH   9  10
ENDBRANCH   5   6
ENDBRANCH   4   5
TORSDOF 9
ENDMDL
MODEL      319
REMARK 921   NORMALIZED FREE ENERGY PREDICTED BY IDOCK:   -3.53 KCAL/MOL
REMARK 922        TOTAL FREE ENERGY PREDICTED BY IDOCK:   -8.58 KCAL/MOL
REMARK 923 INTER-LIGAND FREE ENERGY PREDICTED BY IDOCK:   -6.19 KCAL/MOL
REMARK 924 INTRA-LIGAND FREE ENERGY PREDICTED BY IDOCK:   -2.39 KCAL/MOL
REMARK 927      BINDING AFFINITY PREDICTED BY RF-SCORE:    0.00 PKD
ROOT
HETATM    1  C   UNL     1      -7.601   3.717  66.593  1.00  0.00    -0.081 C  
HETATM    2  C   UNL     1      -7.439   5.090  65.945  1.00  0.00    -0.082 C  
HETATM    3  C   UNL     1      -8.744   5.492  65.249  1.00  0.00    -0.136 C  
HETATM    4  C   UNL     1      -6.988   6.114  67.005  1.00  0.00    -0.072 C  
ENDROOT
BRANCH   4   5
HETATM    5  C   UNL     1      -6.802   7.502  66.408  1.00  0.00    -0.061 C  
BRANCH   5   6
HETATM    6  C   UNL     1      -6.902   8.613  67.448  1.00  0.00    -0.071 C  
HETATM    7  C   UNL     1      -6.059   9.839  67.048  1.00  0.00    -0.063 C  
HETATM    8  C   UNL     1      -6.501  10.429  65.700  1.00  0.00    -0.125 C  
HETATM    9  C   UNL     1      -6.124  10.884  68.175  1.00  0.00    -0.049 C  
BRANCH   9  10
HETATM   10  C   UNL     1      -5.307  12.126  67.834  1.00  0.00    -0.065 C  
BRANCH  10  11
HETATM   11  C   UNL     1      -6.182  13.353  67.631  1.00  0.00    -0.145 C  
HETATM   12  C   UNL     1      -7.075  13.626  68.856  1.00  0.00    -0.102 C  
HETATM   13  C   UNL     1      -8.051  14.787  68.577  1.00  0.00    -0.146 C  
HETATM   14  C   UNL     1      -6.261  13.923  70.122  1.00  0.00    -0.123 C  
BRANCH  13  15
HETATM   15  C   UNL     1      -8.999  14.560  67.393  1.00  0.00    -0.207 C  
BRANCH  15  16
HETATM   16  C   UNL     1      -8.913  13.140  66.830  1.00  0.00    -0.213 C  
BRANCH  16  17
HETATM   17  C   UNL     1     -10.170  12.351  67.100  1.00  0.00    -0.226 C  
HETATM   18  C   UNL     1     -10.354  11.787  68.310  1.00  0.00    -0.217 C  
HETATM   19  C   UNL     1     -11.181  12.291  65.993  1.00  0.00    -0.375 C  
BRANCH  18  20
HETATM   20  C   UNL     1     -11.577  11.044  68.781  1.00  0.00    -0.386 C  
BRANCH  20  21
HETATM   21  C   UNL     1     -11.226   9.650  69.263  1.00  0.00    -0.083 C  
HETATM   22  C   UNL     1     -10.744   8.664  68.476  1.00  0.00    -0.091 C  
HETATM   23  C   UNL     1     -10.522   8.759  66.990  1.00  0.00    -0.338 C  
HETATM   24  C   UNL     1     -10.351   7.344  69.053  1.00  0.00    -0.210 C  
HETATM   25  O   UNL     1      -9.956   6.434  68.337  1.00  0.00    -0.133 OA 
HETATM   26  C   UNL     1     -10.429   7.164  70.510  1.00  0.00    -0.228 A  
HETATM   27  C   UNL     1     -10.952   8.164  71.315  1.00  0.00    -0.281 A  
HETATM   28  C   UNL     1     -11.437   9.418  70.722  1.00  0.00    -0.300 C  
HETATM   29  C   UNL     1     -11.030   7.978  72.701  1.00  0.00    -0.448 A  
HETATM   30  C   UNL     1     -10.574   6.790  73.276  1.00  0.00    -0.335 A  
HETATM   31  O   UNL     1     -11.990  10.248  71.435  1.00  0.00    -0.368 OA 
HETATM   32  C   UNL     1     -10.044   5.786  72.467  1.00  0.00    -0.207 A  
HETATM   33  C   UNL     1      -9.971   5.970  71.085  1.00  0.00    -0.227 A  
ENDBRANCH  20  21
ENDBRANCH  18  20
ENDBRANCH  16  17
ENDBRANCH  15  16
ENDBRANCH  13  15
ENDBRANCH  10  11
ENDBRANCH   9  10
ENDBRANCH   5   6
ENDBRANCH   4   5
TORSDOF 9
ENDMDL
MODEL      320
REMARK 921   NORMALIZED FREE ENERGY PREDICTED BY IDOCK:   -3.51 KCAL/MOL
REMARK 922        TOTAL FREE ENERGY PREDICTED BY IDOCK:   -8.55 KCAL/MOL
REMARK 923 INTER-LIGAND FREE ENERGY PREDICTED BY IDOCK:   -8.56 KCAL/MOL
REMARK 924 INTRA-LIGAND FREE ENERGY PREDICTED BY IDOCK:    0.01 KCAL/MOL
REMARK 927      BINDING AFFINITY PREDICTED BY RF-SCORE:    0.00 PKD
ROOT
HETATM    1  C   UNL     1      -7.380  20.061  67.840  1.00  0.00    -0.332 C  
HETATM    2  C   UNL     1      -7.872  19.154  66.715  1.00  0.00    -0.270 C  
HETATM    3  C   UNL     1      -6.848  19.139  65.575  1.00  0.00    -0.280 C  
HETATM    4  C   UNL     1      -8.164  17.748  67.273  1.00  0.00    -0.226 C  
ENDROOT
BRANCH   4   5
HETATM    5  C   UNL     1      -8.668  16.803  66.190  1.00  0.00    -0.299 C  
BRANCH   5   6
HETATM    6  C   UNL     1     -10.042  16.220  66.505  1.00  0.00    -0.301 C  
HETATM    7  C   UNL     1     -10.313  16.198  68.022  1.00  0.00    -0.271 C  
HETATM    8  C   UNL     1     -10.257  17.604  68.638  1.00  0.00    -0.377 C  
HETATM    9  C   UNL     1     -11.667  15.517  68.282  1.00  0.00    -0.287 C  
BRANCH   9  10
HETATM   10  C   UNL     1     -11.992  15.467  69.771  1.00  0.00    -0.384 C  
BRANCH  10  11
HETATM   11  C   UNL     1     -12.697  14.179  70.164  1.00  0.00    -0.227 C  
HETATM   12  C   UNL     1     -13.317  14.272  71.571  1.00  0.00    -0.429 C  
HETATM   13  C   UNL     1     -13.905  12.914  72.004  1.00  0.00    -0.265 C  
HETATM   14  C   UNL     1     -14.394  15.360  71.667  1.00  0.00    -0.615 C  
BRANCH  13  15
HETATM   15  C   UNL     1     -12.894  11.762  72.053  1.00  0.00    -0.247 C  
BRANCH  15  16
HETATM   16  C   UNL     1     -13.055  10.784  70.889  1.00  0.00    -0.291 C  
BRANCH  16  17
HETATM   17  C   UNL     1     -11.729  10.427  70.265  1.00  0.00    -0.406 C  
HETATM   18  C   UNL     1     -10.847   9.682  70.960  1.00  0.00    -0.412 C  
HETATM   19  C   UNL     1     -11.497  10.891  68.858  1.00  0.00    -0.369 C  
BRANCH  18  20
HETATM   20  C   UNL     1      -9.522   9.162  70.467  1.00  0.00    -0.291 C  
BRANCH  20  21
HETATM   21  C   UNL     1      -9.234   7.776  71.009  1.00  0.00    -0.158 C  
HETATM   22  C   UNL     1      -8.842   7.512  72.274  1.00  0.00    -0.161 C  
HETATM   23  C   UNL     1      -8.574   8.540  73.340  1.00  0.00    -0.049 C  
HETATM   24  C   UNL     1      -8.657   6.107  72.743  1.00  0.00    -0.123 C  
HETATM   25  O   UNL     1      -8.259   5.866  73.875  1.00  0.00    -0.109 OA 
HETATM   26  C   UNL     1      -8.985   5.010  71.821  1.00  0.00    -0.149 A  
HETATM   27  C   UNL     1      -9.360   5.279  70.513  1.00  0.00    -0.205 A  
HETATM   28  C   UNL     1      -9.431   6.665  70.031  1.00  0.00    -0.157 C  
HETATM   29  C   UNL     1      -9.661   4.226  69.640  1.00  0.00    -0.275 A  
HETATM   30  C   UNL     1      -9.594   2.904  70.086  1.00  0.00    -0.138 A  
HETATM   31  O   UNL     1      -9.663   6.881  68.847  1.00  0.00    -0.142 OA 
HETATM   32  C   UNL     1      -9.222   2.633  71.402  1.00  0.00    -0.189 A  
HETATM   33  C   UNL     1      -8.917   3.683  72.270  1.00  0.00    -0.133 A  
ENDBRANCH  20  21
ENDBRANCH  18  20
ENDBRANCH  16  17
ENDBRANCH  15  16
ENDBRANCH  13  15
ENDBRANCH  10  11
ENDBRANCH   9  10
ENDBRANCH   5   6
ENDBRANCH   4   5
TORSDOF 9
ENDMDL
MODEL      321
REMARK 921   NORMALIZED FREE ENERGY PREDICTED BY IDOCK:   -3.51 KCAL/MOL
REMARK 922        TOTAL FREE ENERGY PREDICTED BY IDOCK:   -8.55 KCAL/MOL
REMARK 923 INTER-LIGAND FREE ENERGY PREDICTED BY IDOCK:   -6.92 KCAL/MOL
REMARK 924 INTRA-LIGAND FREE ENERGY PREDICTED BY IDOCK:   -1.63 KCAL/MOL
REMARK 927      BINDING AFFINITY PREDICTED BY RF-SCORE:    0.00 PKD
ROOT
HETATM    1  C   UNL     1     -12.310  14.197  69.320  1.00  0.00    -0.206 C  
HETATM    2  C   UNL     1     -12.210  14.766  67.907  1.00  0.00    -0.017 C  
HETATM    3  C   UNL     1     -10.845  15.434  67.711  1.00  0.00    -0.302 C  
HETATM    4  C   UNL     1     -12.483  13.652  66.878  1.00  0.00    -0.189 C  
ENDROOT
BRANCH   4   5
HETATM    5  C   UNL     1     -12.405  14.171  65.448  1.00  0.00    -0.475 C  
BRANCH   5   6
HETATM    6  C   UNL     1     -11.097  13.803  64.755  1.00  0.00    -0.380 C  
HETATM    7  C   UNL     1     -10.989  12.284  64.521  1.00  0.00    -0.358 C  
HETATM    8  C   UNL     1     -12.137  11.751  63.651  1.00  0.00    -0.486 C  
HETATM    9  C   UNL     1      -9.614  11.965  63.907  1.00  0.00    -0.110 C  
BRANCH   9  10
HETATM   10  C   UNL     1      -9.449  10.471  63.650  1.00  0.00    -0.347 C  
BRANCH  10  11
HETATM   11  C   UNL     1      -8.005  10.095  63.359  1.00  0.00    -0.160 C  
HETATM   12  C   UNL     1      -7.680   8.666  63.834  1.00  0.00    -0.135 C  
HETATM   13  C   UNL     1      -6.181   8.354  63.656  1.00  0.00    -0.073 C  
HETATM   14  C   UNL     1      -8.522   7.603  63.117  1.00  0.00     0.225 C  
BRANCH  13  15
HETATM   15  C   UNL     1      -5.234   9.289  64.420  1.00  0.00    -0.054 C  
BRANCH  15  16
HETATM   16  C   UNL     1      -5.260   9.051  65.930  1.00  0.00    -0.036 C  
BRANCH  16  17
HETATM   17  C   UNL     1      -5.933  10.182  66.667  1.00  0.00    -0.060 C  
HETATM   18  C   UNL     1      -7.140   9.982  67.232  1.00  0.00    -0.085 C  
HETATM   19  C   UNL     1      -5.172  11.470  66.771  1.00  0.00    -0.122 C  
BRANCH  18  20
HETATM   20  C   UNL     1      -7.916  10.962  68.073  1.00  0.00    -0.109 C  
BRANCH  20  21
HETATM   21  C   UNL     1      -8.762  10.254  69.112  1.00  0.00    -0.176 C  
HETATM   22  C   UNL     1      -8.347   9.208  69.858  1.00  0.00    -0.146 C  
HETATM   23  C   UNL     1      -7.004   8.535  69.752  1.00  0.00    -0.047 C  
HETATM   24  C   UNL     1      -9.223   8.622  70.915  1.00  0.00    -0.190 C  
HETATM   25  O   UNL     1      -8.867   7.646  71.562  1.00  0.00    -0.122 OA 
HETATM   26  C   UNL     1     -10.522   9.257  71.181  1.00  0.00    -0.401 A  
HETATM   27  C   UNL     1     -10.963  10.312  70.396  1.00  0.00    -0.365 A  
HETATM   28  C   UNL     1     -10.137  10.809  69.287  1.00  0.00    -0.177 C  
HETATM   29  C   UNL     1     -12.206  10.904  70.652  1.00  0.00    -0.472 A  
HETATM   30  C   UNL     1     -13.001  10.439  71.702  1.00  0.00    -0.581 A  
HETATM   31  O   UNL     1     -10.585  11.672  68.541  1.00  0.00    -0.200 OA 
HETATM   32  C   UNL     1     -12.557   9.381  72.494  1.00  0.00    -0.210 A  
HETATM   33  C   UNL     1     -11.320   8.789  72.235  1.00  0.00    -0.356 A  
ENDBRANCH  20  21
ENDBRANCH  18  20
ENDBRANCH  16  17
ENDBRANCH  15  16
ENDBRANCH  13  15
ENDBRANCH  10  11
ENDBRANCH   9  10
ENDBRANCH   5   6
ENDBRANCH   4   5
TORSDOF 9
ENDMDL
MODEL      322
REMARK 921   NORMALIZED FREE ENERGY PREDICTED BY IDOCK:   -3.50 KCAL/MOL
REMARK 922        TOTAL FREE ENERGY PREDICTED BY IDOCK:   -8.54 KCAL/MOL
REMARK 923 INTER-LIGAND FREE ENERGY PREDICTED BY IDOCK:   -6.96 KCAL/MOL
REMARK 924 INTRA-LIGAND FREE ENERGY PREDICTED BY IDOCK:   -1.57 KCAL/MOL
REMARK 927      BINDING AFFINITY PREDICTED BY RF-SCORE:    0.00 PKD
ROOT
HETATM    1  C   UNL     1      -9.088  20.020  67.383  1.00  0.00    -0.460 C  
HETATM    2  C   UNL     1      -9.293  18.507  67.434  1.00  0.00    -0.287 C  
HETATM    3  C   UNL     1      -7.964  17.795  67.157  1.00  0.00    -0.229 C  
HETATM    4  C   UNL     1      -9.910  18.113  68.790  1.00  0.00    -0.362 C  
ENDROOT
BRANCH   4   5
HETATM    5  C   UNL     1     -10.143  16.612  68.890  1.00  0.00    -0.274 C  
BRANCH   5   6
HETATM    6  C   UNL     1     -11.177  16.104  67.890  1.00  0.00    -0.245 C  
HETATM    7  C   UNL     1     -11.039  14.588  67.655  1.00  0.00    -0.314 C  
HETATM    8  C   UNL     1     -11.220  13.784  68.952  1.00  0.00    -0.309 C  
HETATM    9  C   UNL     1     -12.042  14.153  66.572  1.00  0.00    -0.481 C  
BRANCH   9  10
HETATM   10  C   UNL     1     -11.954  12.655  66.297  1.00  0.00    -0.439 C  
BRANCH  10  11
HETATM   11  C   UNL     1     -10.779  12.304  65.398  1.00  0.00    -0.320 C  
HETATM   12  C   UNL     1     -11.241  11.898  63.986  1.00  0.00    -0.470 C  
HETATM   13  C   UNL     1     -10.050  11.414  63.136  1.00  0.00    -0.390 C  
HETATM   14  C   UNL     1     -11.973  13.033  63.259  1.00  0.00    -0.493 C  
BRANCH  13  15
HETATM   15  C   UNL     1      -9.300  10.205  63.708  1.00  0.00    -0.336 C  
BRANCH  15  16
HETATM   16  C   UNL     1      -7.921  10.571  64.259  1.00  0.00    -0.005 C  
BRANCH  16  17
HETATM   17  C   UNL     1      -7.344   9.470  65.112  1.00  0.00    -0.109 C  
HETATM   18  C   UNL     1      -6.949   8.318  64.534  1.00  0.00    -0.073 C  
HETATM   19  C   UNL     1      -7.193   9.757  66.576  1.00  0.00    -0.094 C  
BRANCH  18  20
HETATM   20  C   UNL     1      -6.277   7.153  65.211  1.00  0.00    -0.037 C  
BRANCH  20  21
HETATM   21  C   UNL     1      -7.141   5.908  65.162  1.00  0.00    -0.064 C  
HETATM   22  C   UNL     1      -8.084   5.592  66.074  1.00  0.00    -0.108 C  
HETATM   23  C   UNL     1      -8.404   6.384  67.314  1.00  0.00    -0.112 C  
HETATM   24  C   UNL     1      -8.944   4.384  65.903  1.00  0.00    -0.124 C  
HETATM   25  O   UNL     1      -9.770   4.070  66.750  1.00  0.00    -0.207 OA 
HETATM   26  C   UNL     1      -8.794   3.583  64.679  1.00  0.00    -0.119 A  
HETATM   27  C   UNL     1      -7.805   3.890  63.755  1.00  0.00    -0.083 A  
HETATM   28  C   UNL     1      -6.893   5.018  63.990  1.00  0.00    -0.047 C  
HETATM   29  C   UNL     1      -7.665   3.115  62.597  1.00  0.00    -0.059 A  
HETATM   30  C   UNL     1      -8.524   2.039  62.364  1.00  0.00    -0.072 A  
HETATM   31  O   UNL     1      -5.962   5.211  63.217  1.00  0.00    -0.020 OA 
HETATM   32  C   UNL     1      -9.521   1.734  63.290  1.00  0.00    -0.095 A  
HETATM   33  C   UNL     1      -9.657   2.503  64.446  1.00  0.00    -0.128 A  
ENDBRANCH  20  21
ENDBRANCH  18  20
ENDBRANCH  16  17
ENDBRANCH  15  16
ENDBRANCH  13  15
ENDBRANCH  10  11
ENDBRANCH   9  10
ENDBRANCH   5   6
ENDBRANCH   4   5
TORSDOF 9
ENDMDL
MODEL      323
REMARK 921   NORMALIZED FREE ENERGY PREDICTED BY IDOCK:   -3.49 KCAL/MOL
REMARK 922        TOTAL FREE ENERGY PREDICTED BY IDOCK:   -8.52 KCAL/MOL
REMARK 923 INTER-LIGAND FREE ENERGY PREDICTED BY IDOCK:   -5.99 KCAL/MOL
REMARK 924 INTRA-LIGAND FREE ENERGY PREDICTED BY IDOCK:   -2.53 KCAL/MOL
REMARK 927      BINDING AFFINITY PREDICTED BY RF-SCORE:    0.00 PKD
ROOT
HETATM    1  C   UNL     1      -6.673   4.150  62.969  1.00  0.00    -0.035 C  
HETATM    2  C   UNL     1      -7.437   5.345  63.536  1.00  0.00    -0.056 C  
HETATM    3  C   UNL     1      -8.479   4.860  64.549  1.00  0.00    -0.144 C  
HETATM    4  C   UNL     1      -6.444   6.357  64.138  1.00  0.00    -0.030 C  
ENDROOT
BRANCH   4   5
HETATM    5  C   UNL     1      -7.155   7.575  64.711  1.00  0.00    -0.064 C  
BRANCH   5   6
HETATM    6  C   UNL     1      -8.151   8.193  63.735  1.00  0.00    -0.112 C  
HETATM    7  C   UNL     1      -8.561   9.614  64.169  1.00  0.00    -0.209 C  
HETATM    8  C   UNL     1      -7.354  10.561  64.257  1.00  0.00     0.104 C  
HETATM    9  C   UNL     1      -9.632  10.147  63.203  1.00  0.00    -0.222 C  
BRANCH   9  10
HETATM   10  C   UNL     1     -10.077  11.555  63.581  1.00  0.00    -0.427 C  
BRANCH  10  11
HETATM   11  C   UNL     1     -10.422  11.672  65.057  1.00  0.00    -0.336 C  
HETATM   12  C   UNL     1     -10.252  13.114  65.571  1.00  0.00    -0.297 C  
HETATM   13  C   UNL     1     -10.472  13.185  67.095  1.00  0.00    -0.247 C  
HETATM   14  C   UNL     1     -11.187  14.104  64.864  1.00  0.00    -0.373 C  
BRANCH  13  15
HETATM   15  C   UNL     1      -9.517  12.316  67.924  1.00  0.00    -0.200 C  
BRANCH  15  16
HETATM   16  C   UNL     1     -10.234  11.176  68.649  1.00  0.00    -0.216 C  
BRANCH  16  17
HETATM   17  C   UNL     1      -9.703   9.826  68.238  1.00  0.00    -0.160 C  
HETATM   18  C   UNL     1     -10.556   8.793  68.091  1.00  0.00    -0.203 C  
HETATM   19  C   UNL     1      -8.232   9.733  67.960  1.00  0.00    -0.109 C  
BRANCH  18  20
HETATM   20  C   UNL     1     -10.219   7.407  67.606  1.00  0.00    -0.261 C  
BRANCH  20  21
HETATM   21  C   UNL     1      -9.841   6.494  68.756  1.00  0.00    -0.146 C  
HETATM   22  C   UNL     1      -8.663   5.845  68.866  1.00  0.00    -0.116 C  
HETATM   23  C   UNL     1      -7.550   5.873  67.853  1.00  0.00    -0.086 C  
HETATM   24  C   UNL     1      -8.346   5.028  70.075  1.00  0.00    -0.084 C  
HETATM   25  O   UNL     1      -7.297   4.403  70.158  1.00  0.00    -0.045 OA 
HETATM   26  C   UNL     1      -9.315   5.005  71.180  1.00  0.00    -0.199 A  
HETATM   27  C   UNL     1     -10.538   5.646  71.056  1.00  0.00    -0.318 A  
HETATM   28  C   UNL     1     -10.883   6.356  69.816  1.00  0.00    -0.314 C  
HETATM   29  C   UNL     1     -11.458   5.610  72.112  1.00  0.00    -0.243 A  
HETATM   30  C   UNL     1     -11.144   4.936  73.294  1.00  0.00    -0.410 A  
HETATM   31  O   UNL     1     -12.006   6.829  69.685  1.00  0.00    -0.128 OA 
HETATM   32  C   UNL     1      -9.912   4.295  73.421  1.00  0.00    -0.176 A  
HETATM   33  C   UNL     1      -8.997   4.327  72.366  1.00  0.00    -0.130 A  
ENDBRANCH  20  21
ENDBRANCH  18  20
ENDBRANCH  16  17
ENDBRANCH  15  16
ENDBRANCH  13  15
ENDBRANCH  10  11
ENDBRANCH   9  10
ENDBRANCH   5   6
ENDBRANCH   4   5
TORSDOF 9
ENDMDL
MODEL      324
REMARK 921   NORMALIZED FREE ENERGY PREDICTED BY IDOCK:   -3.47 KCAL/MOL
REMARK 922        TOTAL FREE ENERGY PREDICTED BY IDOCK:   -8.50 KCAL/MOL
REMARK 923 INTER-LIGAND FREE ENERGY PREDICTED BY IDOCK:   -6.32 KCAL/MOL
REMARK 924 INTRA-LIGAND FREE ENERGY PREDICTED BY IDOCK:   -2.18 KCAL/MOL
REMARK 927      BINDING AFFINITY PREDICTED BY RF-SCORE:    0.00 PKD
ROOT
HETATM    1  C   UNL     1     -10.993  13.154  64.139  1.00  0.00    -0.418 C  
HETATM    2  C   UNL     1     -10.048  11.963  64.285  1.00  0.00    -0.325 C  
HETATM    3  C   UNL     1     -10.567  11.020  65.376  1.00  0.00    -0.270 C  
HETATM    4  C   UNL     1      -9.879  11.265  62.922  1.00  0.00    -0.317 C  
ENDROOT
BRANCH   4   5
HETATM    5  C   UNL     1      -8.936  10.072  63.011  1.00  0.00    -0.272 C  
BRANCH   5   6
HETATM    6  C   UNL     1      -7.575  10.435  63.596  1.00  0.00    -0.034 C  
HETATM    7  C   UNL     1      -7.315   9.698  64.924  1.00  0.00    -0.118 C  
HETATM    8  C   UNL     1      -7.351   8.172  64.753  1.00  0.00    -0.089 C  
HETATM    9  C   UNL     1      -5.975  10.173  65.510  1.00  0.00    -0.097 C  
BRANCH   9  10
HETATM   10  C   UNL     1      -5.662   9.474  66.829  1.00  0.00    -0.051 C  
BRANCH  10  11
HETATM   11  C   UNL     1      -6.829   9.530  67.801  1.00  0.00    -0.078 C  
HETATM   12  C   UNL     1      -6.446   8.977  69.187  1.00  0.00    -0.043 C  
HETATM   13  C   UNL     1      -7.676   8.915  70.114  1.00  0.00    -0.084 C  
HETATM   14  C   UNL     1      -5.331   9.792  69.856  1.00  0.00    -0.033 C  
BRANCH  13  15
HETATM   15  C   UNL     1      -8.824   8.036  69.601  1.00  0.00    -0.141 C  
BRANCH  15  16
HETATM   16  C   UNL     1      -9.804   8.803  68.712  1.00  0.00    -0.180 C  
BRANCH  16  17
HETATM   17  C   UNL     1     -10.242  10.100  69.345  1.00  0.00    -0.246 C  
HETATM   18  C   UNL     1     -10.168  11.244  68.637  1.00  0.00    -0.214 C  
HETATM   19  C   UNL     1     -10.795  10.020  70.738  1.00  0.00    -0.330 C  
BRANCH  18  20
HETATM   20  C   UNL     1     -10.638  12.607  69.074  1.00  0.00    -0.079 C  
BRANCH  20  21
HETATM   21  C   UNL     1     -10.046  13.701  68.208  1.00  0.00    -0.240 C  
HETATM   22  C   UNL     1     -10.759  14.493  67.378  1.00  0.00    -0.282 C  
HETATM   23  C   UNL     1     -12.241  14.395  67.131  1.00  0.00    -0.257 C  
HETATM   24  C   UNL     1     -10.102  15.600  66.621  1.00  0.00    -0.273 C  
HETATM   25  O   UNL     1     -10.736  16.291  65.835  1.00  0.00    -0.302 OA 
HETATM   26  C   UNL     1      -8.674  15.860  66.855  1.00  0.00    -0.272 A  
HETATM   27  C   UNL     1      -7.935  15.028  67.684  1.00  0.00    -0.178 A  
HETATM   28  C   UNL     1      -8.570  13.876  68.337  1.00  0.00    -0.169 C  
HETATM   29  C   UNL     1      -6.573  15.280  67.892  1.00  0.00    -0.174 A  
HETATM   30  C   UNL     1      -5.958  16.370  67.274  1.00  0.00    -0.193 A  
HETATM   31  O   UNL     1      -7.881  13.094  68.982  1.00  0.00     0.053 OA 
HETATM   32  C   UNL     1      -6.702  17.209  66.445  1.00  0.00    -0.271 A  
HETATM   33  C   UNL     1      -8.058  16.955  66.233  1.00  0.00    -0.351 A  
ENDBRANCH  20  21
ENDBRANCH  18  20
ENDBRANCH  16  17
ENDBRANCH  15  16
ENDBRANCH  13  15
ENDBRANCH  10  11
ENDBRANCH   9  10
ENDBRANCH   5   6
ENDBRANCH   4   5
TORSDOF 9
ENDMDL
MODEL      325
REMARK 921   NORMALIZED FREE ENERGY PREDICTED BY IDOCK:   -3.47 KCAL/MOL
REMARK 922        TOTAL FREE ENERGY PREDICTED BY IDOCK:   -8.49 KCAL/MOL
REMARK 923 INTER-LIGAND FREE ENERGY PREDICTED BY IDOCK:   -6.28 KCAL/MOL
REMARK 924 INTRA-LIGAND FREE ENERGY PREDICTED BY IDOCK:   -2.22 KCAL/MOL
REMARK 927      BINDING AFFINITY PREDICTED BY RF-SCORE:    0.00 PKD
ROOT
HETATM    1  C   UNL     1      -6.492   8.529  72.287  1.00  0.00    -0.084 C  
HETATM    2  C   UNL     1      -6.621   7.345  71.331  1.00  0.00    -0.046 C  
HETATM    3  C   UNL     1      -5.252   6.688  71.131  1.00  0.00    -0.023 C  
HETATM    4  C   UNL     1      -7.683   6.363  71.862  1.00  0.00    -0.096 C  
ENDROOT
BRANCH   4   5
HETATM    5  C   UNL     1      -7.858   5.165  70.939  1.00  0.00    -0.096 C  
BRANCH   5   6
HETATM    6  C   UNL     1      -8.686   5.489  69.699  1.00  0.00    -0.110 C  
HETATM    7  C   UNL     1      -7.788   5.789  68.483  1.00  0.00    -0.097 C  
HETATM    8  C   UNL     1      -6.877   4.603  68.132  1.00  0.00    -0.055 C  
HETATM    9  C   UNL     1      -8.672   6.199  67.293  1.00  0.00    -0.108 C  
BRANCH   9  10
HETATM   10  C   UNL     1      -7.837   6.507  66.054  1.00  0.00    -0.103 C  
BRANCH  10  11
HETATM   11  C   UNL     1      -8.622   7.284  65.010  1.00  0.00     0.096 C  
HETATM   12  C   UNL     1      -7.741   8.319  64.286  1.00  0.00    -0.134 C  
HETATM   13  C   UNL     1      -8.584   9.189  63.332  1.00  0.00    -0.178 C  
HETATM   14  C   UNL     1      -6.586   7.669  63.514  1.00  0.00    -0.058 C  
BRANCH  13  15
HETATM   15  C   UNL     1      -9.711   9.980  64.009  1.00  0.00    -0.157 C  
BRANCH  15  16
HETATM   16  C   UNL     1      -9.205  11.229  64.732  1.00  0.00    -0.107 C  
BRANCH  16  17
HETATM   17  C   UNL     1      -8.834  10.940  66.164  1.00  0.00    -0.195 C  
HETATM   18  C   UNL     1      -9.684  10.241  66.943  1.00  0.00    -0.229 C  
HETATM   19  C   UNL     1      -7.486  11.412  66.623  1.00  0.00    -0.110 C  
BRANCH  18  20
HETATM   20  C   UNL     1      -9.443   9.788  68.360  1.00  0.00    -0.146 C  
BRANCH  20  21
HETATM   21  C   UNL     1     -10.592  10.176  69.269  1.00  0.00    -0.254 C  
HETATM   22  C   UNL     1     -11.295   9.311  70.030  1.00  0.00    -0.137 C  
HETATM   23  C   UNL     1     -11.097   7.819  70.070  1.00  0.00    -0.182 C  
HETATM   24  C   UNL     1     -12.361   9.793  70.957  1.00  0.00    -0.332 C  
HETATM   25  O   UNL     1     -13.029   9.008  71.616  1.00  0.00    -0.328 OA 
HETATM   26  C   UNL     1     -12.580  11.242  71.081  1.00  0.00    -0.501 A  
HETATM   27  C   UNL     1     -11.880  12.130  70.278  1.00  0.00    -0.339 A  
HETATM   28  C   UNL     1     -10.911  11.634  69.291  1.00  0.00    -0.192 C  
HETATM   29  C   UNL     1     -12.103  13.508  70.398  1.00  0.00    -0.415 A  
HETATM   30  C   UNL     1     -13.024  13.991  71.330  1.00  0.00    -0.427 A  
HETATM   31  O   UNL     1     -10.379  12.424  68.520  1.00  0.00    -0.228 OA 
HETATM   32  C   UNL     1     -13.724  13.098  72.141  1.00  0.00    -0.588 A  
HETATM   33  C   UNL     1     -13.505  11.725  72.018  1.00  0.00    -0.319 A  
ENDBRANCH  20  21
ENDBRANCH  18  20
ENDBRANCH  16  17
ENDBRANCH  15  16
ENDBRANCH  13  15
ENDBRANCH  10  11
ENDBRANCH   9  10
ENDBRANCH   5   6
ENDBRANCH   4   5
TORSDOF 9
ENDMDL
MODEL      326
REMARK 921   NORMALIZED FREE ENERGY PREDICTED BY IDOCK:   -3.46 KCAL/MOL
REMARK 922        TOTAL FREE ENERGY PREDICTED BY IDOCK:   -8.48 KCAL/MOL
REMARK 923 INTER-LIGAND FREE ENERGY PREDICTED BY IDOCK:   -7.69 KCAL/MOL
REMARK 924 INTRA-LIGAND FREE ENERGY PREDICTED BY IDOCK:   -0.79 KCAL/MOL
REMARK 927      BINDING AFFINITY PREDICTED BY RF-SCORE:    0.00 PKD
ROOT
HETATM    1  C   UNL     1      -7.490  19.392  67.826  1.00  0.00    -0.296 C  
HETATM    2  C   UNL     1      -7.545  18.038  67.123  1.00  0.00    -0.226 C  
HETATM    3  C   UNL     1      -6.901  16.967  68.009  1.00  0.00    -0.155 C  
HETATM    4  C   UNL     1      -9.003  17.707  66.750  1.00  0.00    -0.272 C  
ENDROOT
BRANCH   4   5
HETATM    5  C   UNL     1      -9.114  16.366  66.036  1.00  0.00    -0.317 C  
BRANCH   5   6
HETATM    6  C   UNL     1     -10.375  15.596  66.414  1.00  0.00    -0.303 C  
HETATM    7  C   UNL     1     -10.039  14.194  66.960  1.00  0.00    -0.261 C  
HETATM    8  C   UNL     1      -9.148  14.261  68.210  1.00  0.00    -0.188 C  
HETATM    9  C   UNL     1     -11.347  13.434  67.234  1.00  0.00    -0.348 C  
BRANCH   9  10
HETATM   10  C   UNL     1     -11.078  12.036  67.781  1.00  0.00    -0.303 C  
BRANCH  10  11
HETATM   11  C   UNL     1     -12.161  11.577  68.745  1.00  0.00    -0.234 C  
HETATM   12  C   UNL     1     -11.923  12.114  70.169  1.00  0.00    -0.394 C  
HETATM   13  C   UNL     1     -12.950  11.527  71.157  1.00  0.00    -0.329 C  
HETATM   14  C   UNL     1     -11.957  13.646  70.231  1.00  0.00    -0.397 C  
BRANCH  13  15
HETATM   15  C   UNL     1     -12.937   9.997  71.265  1.00  0.00    -0.495 C  
BRANCH  15  16
HETATM   16  C   UNL     1     -11.623   9.455  71.829  1.00  0.00    -0.433 C  
BRANCH  16  17
HETATM   17  C   UNL     1     -11.679   7.965  72.055  1.00  0.00    -0.360 C  
HETATM   18  C   UNL     1     -10.757   7.377  72.843  1.00  0.00    -0.387 C  
HETATM   19  C   UNL     1     -12.818   7.226  71.417  1.00  0.00    -0.425 C  
BRANCH  18  20
HETATM   20  C   UNL     1     -10.710   5.926  73.247  1.00  0.00    -0.290 C  
BRANCH  20  21
HETATM   21  C   UNL     1      -9.568   5.198  72.566  1.00  0.00    -0.173 C  
HETATM   22  C   UNL     1      -8.368   4.951  73.133  1.00  0.00    -0.104 C  
HETATM   23  C   UNL     1      -7.940   5.395  74.507  1.00  0.00    -0.104 C  
HETATM   24  C   UNL     1      -7.329   4.155  72.416  1.00  0.00    -0.067 C  
HETATM   25  O   UNL     1      -6.225   3.967  72.909  1.00  0.00    -0.011 OA 
HETATM   26  C   UNL     1      -7.666   3.580  71.105  1.00  0.00    -0.051 A  
HETATM   27  C   UNL     1      -8.886   3.859  70.508  1.00  0.00    -0.136 A  
HETATM   28  C   UNL     1      -9.859   4.734  71.178  1.00  0.00    -0.190 C  
HETATM   29  C   UNL     1      -9.193   3.313  69.255  1.00  0.00    -0.218 A  
HETATM   30  C   UNL     1      -8.276   2.483  68.608  1.00  0.00    -0.074 A  
HETATM   31  O   UNL     1     -10.887   5.052  70.592  1.00  0.00    -0.074 OA 
HETATM   32  C   UNL     1      -7.051   2.199  69.210  1.00  0.00    -0.040 A  
HETATM   33  C   UNL     1      -6.744   2.746  70.456  1.00  0.00    -0.033 A  
ENDBRANCH  20  21
ENDBRANCH  18  20
ENDBRANCH  16  17
ENDBRANCH  15  16
ENDBRANCH  13  15
ENDBRANCH  10  11
ENDBRANCH   9  10
ENDBRANCH   5   6
ENDBRANCH   4   5
TORSDOF 9
ENDMDL
MODEL      327
REMARK 921   NORMALIZED FREE ENERGY PREDICTED BY IDOCK:   -3.46 KCAL/MOL
REMARK 922        TOTAL FREE ENERGY PREDICTED BY IDOCK:   -8.48 KCAL/MOL
REMARK 923 INTER-LIGAND FREE ENERGY PREDICTED BY IDOCK:   -7.09 KCAL/MOL
REMARK 924 INTRA-LIGAND FREE ENERGY PREDICTED BY IDOCK:   -1.39 KCAL/MOL
REMARK 927      BINDING AFFINITY PREDICTED BY RF-SCORE:    0.00 PKD
ROOT
HETATM    1  C   UNL     1     -11.945  15.967  72.519  1.00  0.00    -0.649 C  
HETATM    2  C   UNL     1     -12.725  14.813  71.893  1.00  0.00    -0.396 C  
HETATM    3  C   UNL     1     -14.188  15.225  71.691  1.00  0.00    -0.654 C  
HETATM    4  C   UNL     1     -12.042  14.376  70.584  1.00  0.00    -0.404 C  
ENDROOT
BRANCH   4   5
HETATM    5  C   UNL     1     -12.777  13.218  69.921  1.00  0.00     0.175 C  
BRANCH   5   6
HETATM    6  C   UNL     1     -11.848  12.074  69.528  1.00  0.00    -0.390 C  
HETATM    7  C   UNL     1     -11.679  11.063  70.679  1.00  0.00    -0.371 C  
HETATM    8  C   UNL     1     -13.018  10.443  71.105  1.00  0.00    -0.506 C  
HETATM    9  C   UNL     1     -10.663   9.987  70.258  1.00  0.00    -0.367 C  
BRANCH   9  10
HETATM   10  C   UNL     1     -10.454   8.953  71.359  1.00  0.00    -0.375 C  
BRANCH  10  11
HETATM   11  C   UNL     1     -10.387   7.536  70.813  1.00  0.00    -0.205 C  
HETATM   12  C   UNL     1     -11.076   6.528  71.752  1.00  0.00    -0.299 C  
HETATM   13  C   UNL     1     -10.878   5.084  71.251  1.00  0.00     0.011 C  
HETATM   14  C   UNL     1     -12.572   6.818  71.928  1.00  0.00    -0.328 C  
BRANCH  13  15
HETATM   15  C   UNL     1      -9.415   4.638  71.137  1.00  0.00    -0.220 C  
BRANCH  15  16
HETATM   16  C   UNL     1      -9.269   3.234  70.548  1.00  0.00    -0.213 C  
BRANCH  16  17
HETATM   17  C   UNL     1      -9.298   3.250  69.041  1.00  0.00    -0.234 C  
HETATM   18  C   UNL     1      -9.080   4.406  68.384  1.00  0.00    -0.165 C  
HETATM   19  C   UNL     1      -9.518   1.934  68.354  1.00  0.00    -0.234 C  
BRANCH  18  20
HETATM   20  C   UNL     1      -8.986   4.591  66.892  1.00  0.00    -0.117 C  
BRANCH  20  21
HETATM   21  C   UNL     1      -8.265   5.876  66.536  1.00  0.00    -0.110 C  
HETATM   22  C   UNL     1      -7.170   5.950  65.749  1.00  0.00    -0.075 C  
HETATM   23  C   UNL     1      -6.452   4.778  65.136  1.00  0.00    -0.036 C  
HETATM   24  C   UNL     1      -6.572   7.269  65.388  1.00  0.00    -0.047 C  
HETATM   25  O   UNL     1      -5.555   7.337  64.711  1.00  0.00    -0.032 OA 
HETATM   26  C   UNL     1      -7.244   8.494  65.846  1.00  0.00    -0.076 A  
HETATM   27  C   UNL     1      -8.351   8.419  66.679  1.00  0.00    -0.110 A  
HETATM   28  C   UNL     1      -8.864   7.114  67.116  1.00  0.00    -0.121 C  
HETATM   29  C   UNL     1      -8.978   9.592  67.116  1.00  0.00    -0.148 A  
HETATM   30  C   UNL     1      -8.497  10.839  66.709  1.00  0.00    -0.134 A  
HETATM   31  O   UNL     1      -9.777   7.068  67.933  1.00  0.00    -0.124 OA 
HETATM   32  C   UNL     1      -7.388  10.914  65.868  1.00  0.00    -0.041 A  
HETATM   33  C   UNL     1      -6.760   9.745  65.436  1.00  0.00    -0.093 A  
ENDBRANCH  20  21
ENDBRANCH  18  20
ENDBRANCH  16  17
ENDBRANCH  15  16
ENDBRANCH  13  15
ENDBRANCH  10  11
ENDBRANCH   9  10
ENDBRANCH   5   6
ENDBRANCH   4   5
TORSDOF 9
ENDMDL
MODEL      328
REMARK 921   NORMALIZED FREE ENERGY PREDICTED BY IDOCK:   -3.45 KCAL/MOL
REMARK 922        TOTAL FREE ENERGY PREDICTED BY IDOCK:   -8.47 KCAL/MOL
REMARK 923 INTER-LIGAND FREE ENERGY PREDICTED BY IDOCK:   -8.39 KCAL/MOL
REMARK 924 INTRA-LIGAND FREE ENERGY PREDICTED BY IDOCK:   -0.08 KCAL/MOL
REMARK 927      BINDING AFFINITY PREDICTED BY RF-SCORE:    0.00 PKD
ROOT
HETATM    1  C   UNL     1      -5.139   5.054  68.626  1.00  0.00     0.000 C  
HETATM    2  C   UNL     1      -5.558   5.542  70.011  1.00  0.00    -0.008 C  
HETATM    3  C   UNL     1      -6.069   6.983  69.921  1.00  0.00    -0.024 C  
HETATM    4  C   UNL     1      -6.599   4.575  70.608  1.00  0.00    -0.035 C  
ENDROOT
BRANCH   4   5
HETATM    5  C   UNL     1      -7.045   5.011  71.997  1.00  0.00    -0.071 C  
BRANCH   5   6
HETATM    6  C   UNL     1      -8.272   5.917  71.968  1.00  0.00    -0.112 C  
HETATM    7  C   UNL     1      -9.224   5.544  70.815  1.00  0.00    -0.179 C  
HETATM    8  C   UNL     1      -9.724   4.096  70.926  1.00  0.00    -0.259 C  
HETATM    9  C   UNL     1     -10.390   6.547  70.780  1.00  0.00    -0.241 C  
BRANCH   9  10
HETATM   10  C   UNL     1     -11.370   6.227  69.657  1.00  0.00    -0.492 C  
BRANCH  10  11
HETATM   11  C   UNL     1     -11.268   7.214  68.505  1.00  0.00     0.102 C  
HETATM   12  C   UNL     1     -10.285   6.730  67.423  1.00  0.00    -0.254 C  
HETATM   13  C   UNL     1     -10.092   7.805  66.335  1.00  0.00    -0.124 C  
HETATM   14  C   UNL     1     -10.726   5.410  66.778  1.00  0.00    -0.289 C  
BRANCH  13  15
HETATM   15  C   UNL     1      -9.547   9.145  66.844  1.00  0.00    -0.233 C  
BRANCH  15  16
HETATM   16  C   UNL     1     -10.653  10.158  67.144  1.00  0.00    -0.308 C  
BRANCH  16  17
HETATM   17  C   UNL     1     -10.538  11.389  66.281  1.00  0.00    -0.312 C  
HETATM   18  C   UNL     1     -11.506  12.326  66.327  1.00  0.00    -0.435 C  
HETATM   19  C   UNL     1      -9.295  11.520  65.451  1.00  0.00    -0.177 C  
BRANCH  18  20
HETATM   20  C   UNL     1     -11.515  13.649  65.606  1.00  0.00    -0.320 C  
BRANCH  20  21
HETATM   21  C   UNL     1     -11.270  14.801  66.560  1.00  0.00    -0.342 C  
HETATM   22  C   UNL     1     -11.513  14.764  67.887  1.00  0.00    -0.361 C  
HETATM   23  C   UNL     1     -12.111  13.603  68.636  1.00  0.00    -0.325 C  
HETATM   24  C   UNL     1     -11.166  15.922  68.764  1.00  0.00    -0.359 C  
HETATM   25  O   UNL     1     -11.425  15.909  69.960  1.00  0.00    -0.313 OA 
HETATM   26  C   UNL     1     -10.484  17.078  68.163  1.00  0.00    -0.357 A  
HETATM   27  C   UNL     1     -10.262  17.130  66.795  1.00  0.00    -0.311 A  
HETATM   28  C   UNL     1     -10.707  16.030  65.928  1.00  0.00    -0.280 C  
HETATM   29  C   UNL     1      -9.620  18.240  66.232  1.00  0.00    -0.256 A  
HETATM   30  C   UNL     1      -9.195  19.292  67.046  1.00  0.00    -0.357 A  
HETATM   31  O   UNL     1     -10.595  16.139  64.712  1.00  0.00    -0.630 OA 
HETATM   32  C   UNL     1      -9.414  19.238  68.422  1.00  0.00    -0.435 A  
HETATM   33  C   UNL     1     -10.058  18.134  68.982  1.00  0.00    -0.290 A  
ENDBRANCH  20  21
ENDBRANCH  18  20
ENDBRANCH  16  17
ENDBRANCH  15  16
ENDBRANCH  13  15
ENDBRANCH  10  11
ENDBRANCH   9  10
ENDBRANCH   5   6
ENDBRANCH   4   5
TORSDOF 9
ENDMDL
MODEL      329
REMARK 921   NORMALIZED FREE ENERGY PREDICTED BY IDOCK:   -3.45 KCAL/MOL
REMARK 922        TOTAL FREE ENERGY PREDICTED BY IDOCK:   -8.46 KCAL/MOL
REMARK 923 INTER-LIGAND FREE ENERGY PREDICTED BY IDOCK:   -6.92 KCAL/MOL
REMARK 924 INTRA-LIGAND FREE ENERGY PREDICTED BY IDOCK:   -1.54 KCAL/MOL
REMARK 927      BINDING AFFINITY PREDICTED BY RF-SCORE:    0.00 PKD
ROOT
HETATM    1  C   UNL     1     -11.674  14.380  68.987  1.00  0.00    -0.345 C  
HETATM    2  C   UNL     1     -11.888  14.754  67.522  1.00  0.00    -0.326 C  
HETATM    3  C   UNL     1     -10.749  15.663  67.047  1.00  0.00    -0.314 C  
HETATM    4  C   UNL     1     -12.024  13.475  66.675  1.00  0.00    -0.452 C  
ENDROOT
BRANCH   4   5
HETATM    5  C   UNL     1     -12.249  13.793  65.203  1.00  0.00    -0.453 C  
BRANCH   5   6
HETATM    6  C   UNL     1     -11.001  13.576  64.352  1.00  0.00    -0.399 C  
HETATM    7  C   UNL     1     -10.783  12.083  64.039  1.00  0.00    -0.426 C  
HETATM    8  C   UNL     1     -11.970  11.474  63.278  1.00  0.00    -0.072 C  
HETATM    9  C   UNL     1      -9.465  11.920  63.262  1.00  0.00    -0.079 C  
BRANCH   9  10
HETATM   10  C   UNL     1      -9.194  10.458  62.920  1.00  0.00    -0.319 C  
BRANCH  10  11
HETATM   11  C   UNL     1      -7.901   9.953  63.539  1.00  0.00    -0.150 C  
HETATM   12  C   UNL     1      -8.092   8.589  64.229  1.00  0.00    -0.155 C  
HETATM   13  C   UNL     1      -6.809   8.160  64.967  1.00  0.00    -0.062 C  
HETATM   14  C   UNL     1      -8.521   7.490  63.248  1.00  0.00     0.276 C  
BRANCH  13  15
HETATM   15  C   UNL     1      -6.337   9.132  66.056  1.00  0.00    -0.064 C  
BRANCH  15  16
HETATM   16  C   UNL     1      -6.650   8.635  67.468  1.00  0.00    -0.058 C  
BRANCH  16  17
HETATM   17  C   UNL     1      -8.122   8.369  67.658  1.00  0.00    -0.118 C  
HETATM   18  C   UNL     1      -8.539   7.125  67.964  1.00  0.00    -0.128 C  
HETATM   19  C   UNL     1      -9.043   9.548  67.545  1.00  0.00    -0.142 C  
BRANCH  18  20
HETATM   20  C   UNL     1      -9.950   6.696  68.272  1.00  0.00    -0.148 C  
BRANCH  20  21
HETATM   21  C   UNL     1      -9.991   5.697  69.411  1.00  0.00    -0.261 C  
HETATM   22  C   UNL     1      -9.609   4.405  69.313  1.00  0.00    -0.261 C  
HETATM   23  C   UNL     1      -9.132   3.726  68.057  1.00  0.00    -0.187 C  
HETATM   24  C   UNL     1      -9.608   3.512  70.509  1.00  0.00    -0.176 C  
HETATM   25  O   UNL     1      -9.305   2.330  70.415  1.00  0.00    -0.114 OA 
HETATM   26  C   UNL     1      -9.959   4.088  71.815  1.00  0.00    -0.240 A  
HETATM   27  C   UNL     1     -10.380   5.405  71.912  1.00  0.00    -0.270 A  
HETATM   28  C   UNL     1     -10.482   6.244  70.710  1.00  0.00    -0.222 C  
HETATM   29  C   UNL     1     -10.722   5.941  73.161  1.00  0.00    -0.288 A  
HETATM   30  C   UNL     1     -10.632   5.154  74.311  1.00  0.00    -0.290 A  
HETATM   31  O   UNL     1     -10.953   7.372  70.800  1.00  0.00    -0.244 OA 
HETATM   32  C   UNL     1     -10.204   3.830  74.214  1.00  0.00    -0.237 A  
HETATM   33  C   UNL     1      -9.869   3.295  72.969  1.00  0.00    -0.193 A  
ENDBRANCH  20  21
ENDBRANCH  18  20
ENDBRANCH  16  17
ENDBRANCH  15  16
ENDBRANCH  13  15
ENDBRANCH  10  11
ENDBRANCH   9  10
ENDBRANCH   5   6
ENDBRANCH   4   5
TORSDOF 9
ENDMDL
MODEL      330
REMARK 921   NORMALIZED FREE ENERGY PREDICTED BY IDOCK:   -3.45 KCAL/MOL
REMARK 922        TOTAL FREE ENERGY PREDICTED BY IDOCK:   -8.46 KCAL/MOL
REMARK 923 INTER-LIGAND FREE ENERGY PREDICTED BY IDOCK:   -7.67 KCAL/MOL
REMARK 924 INTRA-LIGAND FREE ENERGY PREDICTED BY IDOCK:   -0.79 KCAL/MOL
REMARK 927      BINDING AFFINITY PREDICTED BY RF-SCORE:    0.00 PKD
ROOT
HETATM    1  C   UNL     1      -8.105   4.484  74.374  1.00  0.00    -0.095 C  
HETATM    2  C   UNL     1      -7.257   5.352  73.447  1.00  0.00    -0.087 C  
HETATM    3  C   UNL     1      -6.081   5.948  74.227  1.00  0.00    -0.064 C  
HETATM    4  C   UNL     1      -6.806   4.522  72.229  1.00  0.00    -0.051 C  
ENDROOT
BRANCH   4   5
HETATM    5  C   UNL     1      -5.962   5.344  71.266  1.00  0.00    -0.028 C  
BRANCH   5   6
HETATM    6  C   UNL     1      -6.285   6.834  71.317  1.00  0.00    -0.041 C  
HETATM    7  C   UNL     1      -7.204   7.254  70.153  1.00  0.00    -0.074 C  
HETATM    8  C   UNL     1      -8.538   6.492  70.167  1.00  0.00    -0.140 C  
HETATM    9  C   UNL     1      -7.417   8.776  70.204  1.00  0.00    -0.056 C  
BRANCH   9  10
HETATM   10  C   UNL     1      -8.324   9.253  69.074  1.00  0.00    -0.123 C  
BRANCH  10  11
HETATM   11  C   UNL     1      -7.611   9.264  67.731  1.00  0.00    -0.084 C  
HETATM   12  C   UNL     1      -7.409  10.697  67.203  1.00  0.00    -0.098 C  
HETATM   13  C   UNL     1      -6.811  10.681  65.782  1.00  0.00    -0.098 C  
HETATM   14  C   UNL     1      -6.528  11.545  68.130  1.00  0.00    -0.053 C  
BRANCH  13  15
HETATM   15  C   UNL     1      -7.661   9.951  64.735  1.00  0.00    -0.138 C  
BRANCH  15  16
HETATM   16  C   UNL     1      -9.076   9.647  65.229  1.00  0.00    -0.269 C  
BRANCH  16  17
HETATM   17  C   UNL     1     -10.026  10.784  64.952  1.00  0.00    -0.374 C  
HETATM   18  C   UNL     1     -10.988  11.080  65.848  1.00  0.00    -0.115 C  
HETATM   19  C   UNL     1      -9.797  11.566  63.692  1.00  0.00    -0.379 C  
BRANCH  18  20
HETATM   20  C   UNL     1     -11.962  12.227  65.780  1.00  0.00    -0.362 C  
BRANCH  20  21
HETATM   21  C   UNL     1     -11.627  13.302  66.795  1.00  0.00    -0.408 C  
HETATM   22  C   UNL     1     -11.124  14.517  66.489  1.00  0.00    -0.332 C  
HETATM   23  C   UNL     1     -10.764  14.993  65.107  1.00  0.00    -0.434 C  
HETATM   24  C   UNL     1     -10.898  15.544  67.549  1.00  0.00    -0.306 C  
HETATM   25  O   UNL     1     -10.402  16.630  67.281  1.00  0.00    -0.289 OA 
HETATM   26  C   UNL     1     -11.305  15.231  68.927  1.00  0.00    -0.315 A  
HETATM   27  C   UNL     1     -11.793  13.973  69.247  1.00  0.00    -0.389 A  
HETATM   28  C   UNL     1     -11.908  12.935  68.214  1.00  0.00    -0.330 C  
HETATM   29  C   UNL     1     -12.170  13.684  70.565  1.00  0.00    -0.438 A  
HETATM   30  C   UNL     1     -12.062  14.661  71.557  1.00  0.00    -0.413 A  
HETATM   31  O   UNL     1     -12.243  11.801  68.534  1.00  0.00    -0.430 OA 
HETATM   32  C   UNL     1     -11.576  15.928  71.233  1.00  0.00    -0.509 A  
HETATM   33  C   UNL     1     -11.197  16.214  69.921  1.00  0.00    -0.349 A  
ENDBRANCH  20  21
ENDBRANCH  18  20
ENDBRANCH  16  17
ENDBRANCH  15  16
ENDBRANCH  13  15
ENDBRANCH  10  11
ENDBRANCH   9  10
ENDBRANCH   5   6
ENDBRANCH   4   5
TORSDOF 9
ENDMDL
MODEL      331
REMARK 921   NORMALIZED FREE ENERGY PREDICTED BY IDOCK:   -3.44 KCAL/MOL
REMARK 922        TOTAL FREE ENERGY PREDICTED BY IDOCK:   -8.45 KCAL/MOL
REMARK 923 INTER-LIGAND FREE ENERGY PREDICTED BY IDOCK:   -7.31 KCAL/MOL
REMARK 924 INTRA-LIGAND FREE ENERGY PREDICTED BY IDOCK:   -1.14 KCAL/MOL
REMARK 927      BINDING AFFINITY PREDICTED BY RF-SCORE:    0.00 PKD
ROOT
HETATM    1  C   UNL     1      -8.659   3.117  62.773  1.00  0.00    -0.078 C  
HETATM    2  C   UNL     1      -7.958   2.575  64.017  1.00  0.00    -0.081 C  
HETATM    3  C   UNL     1      -6.439   2.687  63.847  1.00  0.00    -0.030 C  
HETATM    4  C   UNL     1      -8.476   3.314  65.266  1.00  0.00    -0.100 C  
ENDROOT
BRANCH   4   5
HETATM    5  C   UNL     1      -7.814   2.804  66.539  1.00  0.00    -0.077 C  
BRANCH   5   6
HETATM    6  C   UNL     1      -7.590   3.904  67.572  1.00  0.00    -0.068 C  
HETATM    7  C   UNL     1      -8.924   4.419  68.146  1.00  0.00    -0.146 C  
HETATM    8  C   UNL     1      -9.728   3.303  68.829  1.00  0.00     0.029 C  
HETATM    9  C   UNL     1      -8.641   5.586  69.108  1.00  0.00    -0.104 C  
BRANCH   9  10
HETATM   10  C   UNL     1      -9.927   6.139  69.712  1.00  0.00    -0.213 C  
BRANCH  10  11
HETATM   11  C   UNL     1     -10.034   7.647  69.556  1.00  0.00    -0.182 C  
HETATM   12  C   UNL     1     -10.682   8.305  70.789  1.00  0.00    -0.244 C  
HETATM   13  C   UNL     1     -10.907   9.812  70.555  1.00  0.00    -0.387 C  
HETATM   14  C   UNL     1      -9.859   8.094  72.067  1.00  0.00    -0.298 C  
BRANCH  13  15
HETATM   15  C   UNL     1     -11.810  10.149  69.361  1.00  0.00    -0.028 C  
BRANCH  15  16
HETATM   16  C   UNL     1     -11.878  11.650  69.077  1.00  0.00    -0.391 C  
BRANCH  16  17
HETATM   17  C   UNL     1     -10.777  12.098  68.149  1.00  0.00    -0.238 C  
HETATM   18  C   UNL     1     -10.175  13.285  68.355  1.00  0.00    -0.249 C  
HETATM   19  C   UNL     1     -10.378  11.143  67.063  1.00  0.00    -0.263 C  
BRANCH  18  20
HETATM   20  C   UNL     1      -9.009  13.850  67.587  1.00  0.00    -0.192 C  
BRANCH  20  21
HETATM   21  C   UNL     1      -8.877  15.345  67.799  1.00  0.00    -0.170 C  
HETATM   22  C   UNL     1      -7.955  15.930  68.593  1.00  0.00    -0.156 C  
HETATM   23  C   UNL     1      -6.941  15.205  69.438  1.00  0.00    -0.178 C  
HETATM   24  C   UNL     1      -7.847  17.416  68.680  1.00  0.00    -0.274 C  
HETATM   25  O   UNL     1      -7.042  17.949  69.432  1.00  0.00    -0.167 OA 
HETATM   26  C   UNL     1      -8.719  18.234  67.824  1.00  0.00    -0.263 A  
HETATM   27  C   UNL     1      -9.687  17.636  67.031  1.00  0.00    -0.292 A  
HETATM   28  C   UNL     1      -9.855  16.177  67.037  1.00  0.00    -0.245 C  
HETATM   29  C   UNL     1     -10.518  18.426  66.226  1.00  0.00    -0.421 A  
HETATM   30  C   UNL     1     -10.369  19.814  66.213  1.00  0.00    -0.626 A  
HETATM   31  O   UNL     1     -10.780  15.674  66.410  1.00  0.00    -0.306 OA 
HETATM   32  C   UNL     1      -9.393  20.415  67.007  1.00  0.00    -0.511 A  
HETATM   33  C   UNL     1      -8.568  19.629  67.813  1.00  0.00    -0.366 A  
ENDBRANCH  20  21
ENDBRANCH  18  20
ENDBRANCH  16  17
ENDBRANCH  15  16
ENDBRANCH  13  15
ENDBRANCH  10  11
ENDBRANCH   9  10
ENDBRANCH   5   6
ENDBRANCH   4   5
TORSDOF 9
ENDMDL
MODEL      332
REMARK 921   NORMALIZED FREE ENERGY PREDICTED BY IDOCK:   -3.41 KCAL/MOL
REMARK 922        TOTAL FREE ENERGY PREDICTED BY IDOCK:   -8.41 KCAL/MOL
REMARK 923 INTER-LIGAND FREE ENERGY PREDICTED BY IDOCK:   -7.07 KCAL/MOL
REMARK 924 INTRA-LIGAND FREE ENERGY PREDICTED BY IDOCK:   -1.34 KCAL/MOL
REMARK 927      BINDING AFFINITY PREDICTED BY RF-SCORE:    0.00 PKD
ROOT
HETATM    1  C   UNL     1      -7.770   6.960  74.461  1.00  0.00    -0.132 C  
HETATM    2  C   UNL     1      -6.666   7.785  73.804  1.00  0.00    -0.103 C  
HETATM    3  C   UNL     1      -5.384   6.952  73.707  1.00  0.00    -0.046 C  
HETATM    4  C   UNL     1      -7.149   8.300  72.435  1.00  0.00    -0.117 C  
ENDROOT
BRANCH   4   5
HETATM    5  C   UNL     1      -6.085   9.139  71.739  1.00  0.00    -0.055 C  
BRANCH   5   6
HETATM    6  C   UNL     1      -5.584   8.507  70.445  1.00  0.00    -0.027 C  
HETATM    7  C   UNL     1      -6.743   7.916  69.619  1.00  0.00    -0.042 C  
HETATM    8  C   UNL     1      -7.782   8.981  69.238  1.00  0.00    -0.090 C  
HETATM    9  C   UNL     1      -6.168   7.212  68.377  1.00  0.00    -0.035 C  
BRANCH   9  10
HETATM   10  C   UNL     1      -7.272   6.607  67.516  1.00  0.00    -0.090 C  
BRANCH  10  11
HETATM   11  C   UNL     1      -7.555   7.439  66.275  1.00  0.00    -0.088 C  
HETATM   12  C   UNL     1      -7.683   6.562  65.015  1.00  0.00    -0.103 C  
HETATM   13  C   UNL     1      -7.831   7.433  63.752  1.00  0.00    -0.108 C  
HETATM   14  C   UNL     1      -8.851   5.572  65.106  1.00  0.00    -0.084 C  
BRANCH  13  15
HETATM   15  C   UNL     1      -6.665   8.394  63.492  1.00  0.00    -0.084 C  
BRANCH  15  16
HETATM   16  C   UNL     1      -6.944   9.812  63.992  1.00  0.00    -0.120 C  
BRANCH  16  17
HETATM   17  C   UNL     1      -8.388  10.201  63.801  1.00  0.00    -0.171 C  
HETATM   18  C   UNL     1      -9.174  10.390  64.880  1.00  0.00    -0.263 C  
HETATM   19  C   UNL     1      -8.853  10.412  62.390  1.00  0.00    -0.279 C  
BRANCH  18  20
HETATM   20  C   UNL     1     -10.605  10.862  64.882  1.00  0.00    -0.304 C  
BRANCH  20  21
HETATM   21  C   UNL     1     -10.893  11.753  66.075  1.00  0.00    -0.343 C  
HETATM   22  C   UNL     1     -10.971  13.100  66.026  1.00  0.00    -0.295 C  
HETATM   23  C   UNL     1     -10.735  13.947  64.804  1.00  0.00    -0.437 C  
HETATM   24  C   UNL     1     -11.339  13.892  67.237  1.00  0.00    -0.323 C  
HETATM   25  O   UNL     1     -11.367  15.115  67.208  1.00  0.00    -0.338 OA 
HETATM   26  C   UNL     1     -11.690  13.169  68.468  1.00  0.00    -0.387 A  
HETATM   27  C   UNL     1     -11.582  11.788  68.528  1.00  0.00    -0.380 A  
HETATM   28  C   UNL     1     -11.113  11.028  67.361  1.00  0.00    -0.305 C  
HETATM   29  C   UNL     1     -11.911  11.110  69.709  1.00  0.00    -0.422 A  
HETATM   30  C   UNL     1     -12.355  11.821  70.825  1.00  0.00    -0.433 A  
HETATM   31  O   UNL     1     -10.925   9.821  67.463  1.00  0.00    -0.275 OA 
HETATM   32  C   UNL     1     -12.469  13.210  70.764  1.00  0.00    -0.389 A  
HETATM   33  C   UNL     1     -12.136  13.885  69.589  1.00  0.00    -0.404 A  
ENDBRANCH  20  21
ENDBRANCH  18  20
ENDBRANCH  16  17
ENDBRANCH  15  16
ENDBRANCH  13  15
ENDBRANCH  10  11
ENDBRANCH   9  10
ENDBRANCH   5   6
ENDBRANCH   4   5
TORSDOF 9
ENDMDL
MODEL      333
REMARK 921   NORMALIZED FREE ENERGY PREDICTED BY IDOCK:   -3.39 KCAL/MOL
REMARK 922        TOTAL FREE ENERGY PREDICTED BY IDOCK:   -8.37 KCAL/MOL
REMARK 923 INTER-LIGAND FREE ENERGY PREDICTED BY IDOCK:   -6.26 KCAL/MOL
REMARK 924 INTRA-LIGAND FREE ENERGY PREDICTED BY IDOCK:   -2.11 KCAL/MOL
REMARK 927      BINDING AFFINITY PREDICTED BY RF-SCORE:    0.00 PKD
ROOT
HETATM    1  C   UNL     1     -14.377  15.658  72.405  1.00  0.00    -0.420 C  
HETATM    2  C   UNL     1     -13.008  15.308  71.825  1.00  0.00    -0.475 C  
HETATM    3  C   UNL     1     -12.110  14.732  72.926  1.00  0.00    -0.288 C  
HETATM    4  C   UNL     1     -13.180  14.349  70.632  1.00  0.00    -0.203 C  
ENDROOT
BRANCH   4   5
HETATM    5  C   UNL     1     -11.841  13.974  70.010  1.00  0.00    -0.388 C  
BRANCH   5   6
HETATM    6  C   UNL     1     -11.955  12.840  68.996  1.00  0.00    -0.288 C  
HETATM    7  C   UNL     1     -11.247  11.565  69.492  1.00  0.00    -0.305 C  
HETATM    8  C   UNL     1     -11.834  11.058  70.818  1.00  0.00    -0.383 C  
HETATM    9  C   UNL     1     -11.315  10.491  68.393  1.00  0.00    -0.328 C  
BRANCH   9  10
HETATM   10  C   UNL     1     -10.630   9.200  68.828  1.00  0.00    -0.208 C  
BRANCH  10  11
HETATM   11  C   UNL     1     -10.910   8.050  67.874  1.00  0.00    -0.045 C  
HETATM   12  C   UNL     1     -10.666   6.683  68.540  1.00  0.00    -0.308 C  
HETATM   13  C   UNL     1     -10.821   5.538  67.519  1.00  0.00    -0.100 C  
HETATM   14  C   UNL     1     -11.591   6.440  69.740  1.00  0.00    -0.397 C  
BRANCH  13  15
HETATM   15  C   UNL     1      -9.867   5.611  66.321  1.00  0.00    -0.156 C  
BRANCH  15  16
HETATM   16  C   UNL     1      -9.380   4.234  65.868  1.00  0.00    -0.163 C  
BRANCH  16  17
HETATM   17  C   UNL     1      -8.778   3.448  67.006  1.00  0.00    -0.132 C  
HETATM   18  C   UNL     1      -7.932   4.057  67.861  1.00  0.00    -0.089 C  
HETATM   19  C   UNL     1      -9.214   2.020  67.147  1.00  0.00    -0.089 C  
BRANCH  18  20
HETATM   20  C   UNL     1      -7.310   3.457  69.094  1.00  0.00    -0.049 C  
BRANCH  20  21
HETATM   21  C   UNL     1      -7.863   4.086  70.357  1.00  0.00    -0.051 C  
HETATM   22  C   UNL     1      -8.844   3.552  71.115  1.00  0.00    -0.136 C  
HETATM   23  C   UNL     1      -9.589   2.279  70.813  1.00  0.00    -0.168 C  
HETATM   24  C   UNL     1      -9.272   4.203  72.388  1.00  0.00    -0.116 C  
HETATM   25  O   UNL     1     -10.191   3.746  73.054  1.00  0.00    -0.144 OA 
HETATM   26  C   UNL     1      -8.550   5.401  72.841  1.00  0.00    -0.119 A  
HETATM   27  C   UNL     1      -7.562   5.968  72.049  1.00  0.00    -0.097 A  
HETATM   28  C   UNL     1      -7.226   5.379  70.746  1.00  0.00    -0.070 C  
HETATM   29  C   UNL     1      -6.887   7.114  72.487  1.00  0.00    -0.064 A  
HETATM   30  C   UNL     1      -7.200   7.685  73.722  1.00  0.00    -0.126 A  
HETATM   31  O   UNL     1      -6.425   5.950  70.015  1.00  0.00    -0.036 OA 
HETATM   32  C   UNL     1      -8.189   7.112  74.521  1.00  0.00    -0.202 A  
HETATM   33  C   UNL     1      -8.866   5.972  74.083  1.00  0.00    -0.124 A  
ENDBRANCH  20  21
ENDBRANCH  18  20
ENDBRANCH  16  17
ENDBRANCH  15  16
ENDBRANCH  13  15
ENDBRANCH  10  11
ENDBRANCH   9  10
ENDBRANCH   5   6
ENDBRANCH   4   5
TORSDOF 9
ENDMDL
MODEL      334
REMARK 921   NORMALIZED FREE ENERGY PREDICTED BY IDOCK:   -3.36 KCAL/MOL
REMARK 922        TOTAL FREE ENERGY PREDICTED BY IDOCK:   -8.32 KCAL/MOL
REMARK 923 INTER-LIGAND FREE ENERGY PREDICTED BY IDOCK:   -5.91 KCAL/MOL
REMARK 924 INTRA-LIGAND FREE ENERGY PREDICTED BY IDOCK:   -2.41 KCAL/MOL
REMARK 927      BINDING AFFINITY PREDICTED BY RF-SCORE:    0.00 PKD
ROOT
HETATM    1  C   UNL     1      -6.723   5.983  70.815  1.00  0.00    -0.057 C  
HETATM    2  C   UNL     1      -7.320   7.381  70.952  1.00  0.00    -0.073 C  
HETATM    3  C   UNL     1      -6.946   7.973  72.315  1.00  0.00    -0.089 C  
HETATM    4  C   UNL     1      -6.861   8.260  69.773  1.00  0.00    -0.044 C  
ENDROOT
BRANCH   4   5
HETATM    5  C   UNL     1      -7.437   9.667  69.858  1.00  0.00    -0.127 C  
BRANCH   5   6
HETATM    6  C   UNL     1      -7.191  10.485  68.594  1.00  0.00    -0.087 C  
HETATM    7  C   UNL     1      -7.514  11.976  68.814  1.00  0.00    -0.086 C  
HETATM    8  C   UNL     1      -6.662  12.591  69.935  1.00  0.00     0.237 C  
HETATM    9  C   UNL     1      -7.338  12.731  67.485  1.00  0.00    -0.153 C  
BRANCH   9  10
HETATM   10  C   UNL     1      -7.642  14.217  67.641  1.00  0.00    -0.193 C  
BRANCH  10  11
HETATM   11  C   UNL     1      -9.135  14.492  67.734  1.00  0.00    -0.190 C  
HETATM   12  C   UNL     1      -9.450  15.589  68.768  1.00  0.00    -0.210 C  
HETATM   13  C   UNL     1     -10.972  15.754  68.947  1.00  0.00    -0.283 C  
HETATM   14  C   UNL     1      -8.819  16.938  68.403  1.00  0.00    -0.244 C  
BRANCH  13  15
HETATM   15  C   UNL     1     -11.706  14.493  69.419  1.00  0.00    -0.361 C  
BRANCH  15  16
HETATM   16  C   UNL     1     -12.027  13.532  68.274  1.00  0.00    -0.377 C  
BRANCH  16  17
HETATM   17  C   UNL     1     -11.732  12.100  68.641  1.00  0.00    -0.382 C  
HETATM   18  C   UNL     1     -11.303  11.245  67.691  1.00  0.00    -0.352 C  
HETATM   19  C   UNL     1     -11.885  11.725  70.085  1.00  0.00    -0.408 C  
BRANCH  18  20
HETATM   20  C   UNL     1     -10.880   9.813  67.891  1.00  0.00    -0.298 C  
BRANCH  20  21
HETATM   21  C   UNL     1      -9.965   9.344  66.777  1.00  0.00    -0.305 C  
HETATM   22  C   UNL     1      -9.684  10.054  65.664  1.00  0.00    -0.336 C  
HETATM   23  C   UNL     1     -10.266  11.397  65.312  1.00  0.00    -0.320 C  
HETATM   24  C   UNL     1      -8.707   9.547  64.655  1.00  0.00    -0.205 C  
HETATM   25  O   UNL     1      -8.484  10.166  63.624  1.00  0.00    -0.162 OA 
HETATM   26  C   UNL     1      -7.997   8.290  64.936  1.00  0.00    -0.144 A  
HETATM   27  C   UNL     1      -8.306   7.545  66.065  1.00  0.00    -0.136 A  
HETATM   28  C   UNL     1      -9.349   8.002  66.994  1.00  0.00    -0.156 C  
HETATM   29  C   UNL     1      -7.630   6.345  66.318  1.00  0.00    -0.090 A  
HETATM   30  C   UNL     1      -6.639   5.899  65.440  1.00  0.00    -0.043 A  
HETATM   31  O   UNL     1      -9.680   7.282  67.929  1.00  0.00    -0.137 OA 
HETATM   32  C   UNL     1      -6.325   6.651  64.308  1.00  0.00    -0.038 A  
HETATM   33  C   UNL     1      -7.002   7.844  64.054  1.00  0.00    -0.063 A  
ENDBRANCH  20  21
ENDBRANCH  18  20
ENDBRANCH  16  17
ENDBRANCH  15  16
ENDBRANCH  13  15
ENDBRANCH  10  11
ENDBRANCH   9  10
ENDBRANCH   5   6
ENDBRANCH   4   5
TORSDOF 9
ENDMDL
MODEL      335
REMARK 921   NORMALIZED FREE ENERGY PREDICTED BY IDOCK:   -3.32 KCAL/MOL
REMARK 922        TOTAL FREE ENERGY PREDICTED BY IDOCK:   -8.26 KCAL/MOL
REMARK 923 INTER-LIGAND FREE ENERGY PREDICTED BY IDOCK:   -6.08 KCAL/MOL
REMARK 924 INTRA-LIGAND FREE ENERGY PREDICTED BY IDOCK:   -2.19 KCAL/MOL
REMARK 927      BINDING AFFINITY PREDICTED BY RF-SCORE:    0.00 PKD
ROOT
HETATM    1  C   UNL     1      -7.519   3.640  66.579  1.00  0.00    -0.077 C  
HETATM    2  C   UNL     1      -7.578   4.986  65.860  1.00  0.00    -0.090 C  
HETATM    3  C   UNL     1      -8.960   5.174  65.225  1.00  0.00    -0.144 C  
HETATM    4  C   UNL     1      -7.215   6.115  66.843  1.00  0.00    -0.074 C  
ENDROOT
BRANCH   4   5
HETATM    5  C   UNL     1      -7.250   7.482  66.173  1.00  0.00    -0.074 C  
BRANCH   5   6
HETATM    6  C   UNL     1      -7.451   8.624  67.165  1.00  0.00    -0.088 C  
HETATM    7  C   UNL     1      -6.523   9.814  66.852  1.00  0.00    -0.066 C  
HETATM    8  C   UNL     1      -6.765  10.379  65.444  1.00  0.00    -0.113 C  
HETATM    9  C   UNL     1      -6.703  10.891  67.935  1.00  0.00    -0.064 C  
BRANCH   9  10
HETATM   10  C   UNL     1      -5.809  12.099  67.678  1.00  0.00    -0.102 C  
BRANCH  10  11
HETATM   11  C   UNL     1      -6.612  13.359  67.396  1.00  0.00    -0.038 C  
HETATM   12  C   UNL     1      -7.406  13.819  68.633  1.00  0.00    -0.117 C  
HETATM   13  C   UNL     1      -8.318  15.013  68.288  1.00  0.00    -0.145 C  
HETATM   14  C   UNL     1      -6.496  14.182  69.813  1.00  0.00    -0.130 C  
BRANCH  13  15
HETATM   15  C   UNL     1      -9.353  14.737  67.190  1.00  0.00    -0.233 C  
BRANCH  15  16
HETATM   16  C   UNL     1      -9.255  13.317  66.629  1.00  0.00    -0.222 C  
BRANCH  16  17
HETATM   17  C   UNL     1     -10.512  12.524  66.885  1.00  0.00    -0.244 C  
HETATM   18  C   UNL     1     -10.770  12.071  68.128  1.00  0.00    -0.246 C  
HETATM   19  C   UNL     1     -11.441  12.334  65.723  1.00  0.00    -0.417 C  
BRANCH  18  20
HETATM   20  C   UNL     1     -12.008  11.342  68.583  1.00  0.00    -0.317 C  
BRANCH  20  21
HETATM   21  C   UNL     1     -11.660  10.094  69.369  1.00  0.00    -0.151 C  
HETATM   22  C   UNL     1     -11.871   9.937  70.694  1.00  0.00    -0.386 C  
HETATM   23  C   UNL     1     -12.435  10.981  71.620  1.00  0.00    -0.310 C  
HETATM   24  C   UNL     1     -11.569   8.642  71.371  1.00  0.00    -0.293 C  
HETATM   25  O   UNL     1     -11.718   8.510  72.579  1.00  0.00    -0.380 OA 
HETATM   26  C   UNL     1     -11.106   7.512  70.552  1.00  0.00    -0.275 A  
HETATM   27  C   UNL     1     -10.860   7.681  69.197  1.00  0.00    -0.082 A  
HETATM   28  C   UNL     1     -11.057   8.992  68.564  1.00  0.00     0.212 C  
HETATM   29  C   UNL     1     -10.410   6.600  68.428  1.00  0.00    -0.220 A  
HETATM   30  C   UNL     1     -10.217   5.350  69.019  1.00  0.00    -0.291 A  
HETATM   31  O   UNL     1     -10.737   9.148  67.391  1.00  0.00    -0.277 OA 
HETATM   32  C   UNL     1     -10.469   5.179  70.380  1.00  0.00    -0.287 A  
HETATM   33  C   UNL     1     -10.912   6.258  71.148  1.00  0.00    -0.336 A  
ENDBRANCH  20  21
ENDBRANCH  18  20
ENDBRANCH  16  17
ENDBRANCH  15  16
ENDBRANCH  13  15
ENDBRANCH  10  11
ENDBRANCH   9  10
ENDBRANCH   5   6
ENDBRANCH   4   5
TORSDOF 9
ENDMDL
MODEL      336
REMARK 921   NORMALIZED FREE ENERGY PREDICTED BY IDOCK:   -3.32 KCAL/MOL
REMARK 922        TOTAL FREE ENERGY PREDICTED BY IDOCK:   -8.26 KCAL/MOL
REMARK 923 INTER-LIGAND FREE ENERGY PREDICTED BY IDOCK:   -7.88 KCAL/MOL
REMARK 924 INTRA-LIGAND FREE ENERGY PREDICTED BY IDOCK:   -0.38 KCAL/MOL
REMARK 927      BINDING AFFINITY PREDICTED BY RF-SCORE:    0.00 PKD
ROOT
HETATM    1  C   UNL     1     -13.491  13.325  72.115  1.00  0.00    -0.655 C  
HETATM    2  C   UNL     1     -13.070  14.426  71.145  1.00  0.00    -0.419 C  
HETATM    3  C   UNL     1     -12.890  15.745  71.904  1.00  0.00    -0.514 C  
HETATM    4  C   UNL     1     -11.798  13.994  70.390  1.00  0.00    -0.356 C  
ENDROOT
BRANCH   4   5
HETATM    5  C   UNL     1     -11.340  15.056  69.400  1.00  0.00    -0.314 C  
BRANCH   5   6
HETATM    6  C   UNL     1     -12.091  14.993  68.074  1.00  0.00    -0.045 C  
HETATM    7  C   UNL     1     -11.629  13.798  67.218  1.00  0.00    -0.391 C  
HETATM    8  C   UNL     1     -11.848  12.457  67.935  1.00  0.00    -0.370 C  
HETATM    9  C   UNL     1     -12.351  13.842  65.860  1.00  0.00    -0.516 C  
BRANCH   9  10
HETATM   10  C   UNL     1     -11.935  12.678  64.967  1.00  0.00    -0.467 C  
BRANCH  10  11
HETATM   11  C   UNL     1     -10.538  12.174  65.292  1.00  0.00    -0.319 C  
HETATM   12  C   UNL     1     -10.169  10.933  64.458  1.00  0.00    -0.422 C  
HETATM   13  C   UNL     1      -8.809  10.357  64.899  1.00  0.00    -0.209 C  
HETATM   14  C   UNL     1     -10.148  11.224  62.952  1.00  0.00    -0.243 C  
BRANCH  13  15
HETATM   15  C   UNL     1      -8.740   9.925  66.369  1.00  0.00    -0.144 C  
BRANCH  15  16
HETATM   16  C   UNL     1      -7.929  10.893  67.232  1.00  0.00    -0.123 C  
BRANCH  16  17
HETATM   17  C   UNL     1      -7.096  10.168  68.260  1.00  0.00    -0.075 C  
HETATM   18  C   UNL     1      -7.424  10.257  69.564  1.00  0.00    -0.142 C  
HETATM   19  C   UNL     1      -5.963   9.331  67.744  1.00  0.00    -0.053 C  
BRANCH  18  20
HETATM   20  C   UNL     1      -6.763   9.537  70.711  1.00  0.00    -0.105 C  
BRANCH  20  21
HETATM   21  C   UNL     1      -7.445   8.215  71.002  1.00  0.00    -0.067 C  
HETATM   22  C   UNL     1      -6.853   7.006  70.897  1.00  0.00    -0.054 C  
HETATM   23  C   UNL     1      -5.444   6.759  70.427  1.00  0.00    -0.023 C  
HETATM   24  C   UNL     1      -7.579   5.760  71.281  1.00  0.00    -0.104 C  
HETATM   25  O   UNL     1      -7.061   4.659  71.146  1.00  0.00    -0.041 OA 
HETATM   26  C   UNL     1      -8.929   5.881  71.850  1.00  0.00    -0.139 A  
HETATM   27  C   UNL     1      -9.550   7.118  71.930  1.00  0.00    -0.161 A  
HETATM   28  C   UNL     1      -8.865   8.325  71.446  1.00  0.00    -0.162 C  
HETATM   29  C   UNL     1     -10.840   7.221  72.465  1.00  0.00    -0.312 A  
HETATM   30  C   UNL     1     -11.502   6.081  72.925  1.00  0.00    -0.185 A  
HETATM   31  O   UNL     1      -9.467   9.393  71.430  1.00  0.00    -0.254 OA 
HETATM   32  C   UNL     1     -10.876   4.837  72.849  1.00  0.00    -0.306 A  
HETATM   33  C   UNL     1      -9.592   4.734  72.311  1.00  0.00    -0.195 A  
ENDBRANCH  20  21
ENDBRANCH  18  20
ENDBRANCH  16  17
ENDBRANCH  15  16
ENDBRANCH  13  15
ENDBRANCH  10  11
ENDBRANCH   9  10
ENDBRANCH   5   6
ENDBRANCH   4   5
TORSDOF 9
ENDMDL
MODEL      337
REMARK 921   NORMALIZED FREE ENERGY PREDICTED BY IDOCK:   -3.29 KCAL/MOL
REMARK 922        TOTAL FREE ENERGY PREDICTED BY IDOCK:   -8.22 KCAL/MOL
REMARK 923 INTER-LIGAND FREE ENERGY PREDICTED BY IDOCK:   -6.91 KCAL/MOL
REMARK 924 INTRA-LIGAND FREE ENERGY PREDICTED BY IDOCK:   -1.32 KCAL/MOL
REMARK 927      BINDING AFFINITY PREDICTED BY RF-SCORE:    0.00 PKD
ROOT
HETATM    1  C   UNL     1     -13.748   7.354  71.255  1.00  0.00    -0.347 C  
HETATM    2  C   UNL     1     -13.062   8.718  71.217  1.00  0.00    -0.214 C  
HETATM    3  C   UNL     1     -13.336   9.473  72.522  1.00  0.00    -0.372 C  
HETATM    4  C   UNL     1     -11.558   8.534  70.938  1.00  0.00    -0.295 C  
ENDROOT
BRANCH   4   5
HETATM    5  C   UNL     1     -10.826   9.868  70.881  1.00  0.00    -0.357 C  
BRANCH   5   6
HETATM    6  C   UNL     1     -11.602  10.938  70.119  1.00  0.00    -0.425 C  
HETATM    7  C   UNL     1     -11.164  11.009  68.643  1.00  0.00    -0.322 C  
HETATM    8  C   UNL     1     -11.380   9.674  67.912  1.00  0.00     0.241 C  
HETATM    9  C   UNL     1     -11.910  12.163  67.951  1.00  0.00    -0.338 C  
BRANCH   9  10
HETATM   10  C   UNL     1     -11.519  12.282  66.482  1.00  0.00    -0.438 C  
BRANCH  10  11
HETATM   11  C   UNL     1     -10.252  11.506  66.159  1.00  0.00    -0.272 C  
HETATM   12  C   UNL     1     -10.333  10.828  64.779  1.00  0.00    -0.380 C  
HETATM   13  C   UNL     1      -9.101   9.936  64.530  1.00  0.00    -0.296 C  
HETATM   14  C   UNL     1     -10.483  11.840  63.636  1.00  0.00    -0.490 C  
BRANCH  13  15
HETATM   15  C   UNL     1      -8.905   8.810  65.553  1.00  0.00    -0.229 C  
BRANCH  15  16
HETATM   16  C   UNL     1      -8.024   7.677  65.024  1.00  0.00    -0.131 C  
BRANCH  16  17
HETATM   17  C   UNL     1      -8.061   6.468  65.925  1.00  0.00    -0.125 C  
HETATM   18  C   UNL     1      -7.048   6.250  66.786  1.00  0.00    -0.073 C  
HETATM   19  C   UNL     1      -9.279   5.597  65.838  1.00  0.00    -0.145 C  
BRANCH  18  20
HETATM   20  C   UNL     1      -6.958   5.151  67.813  1.00  0.00    -0.062 C  
BRANCH  20  21
HETATM   21  C   UNL     1      -7.806   5.458  69.031  1.00  0.00    -0.090 C  
HETATM   22  C   UNL     1      -8.840   4.702  69.458  1.00  0.00    -0.121 C  
HETATM   23  C   UNL     1      -9.358   3.463  68.777  1.00  0.00    -0.234 C  
HETATM   24  C   UNL     1      -9.571   5.039  70.715  1.00  0.00    -0.180 C  
HETATM   25  O   UNL     1     -10.535   4.382  71.081  1.00  0.00    -0.045 OA 
HETATM   26  C   UNL     1      -9.093   6.172  71.522  1.00  0.00    -0.145 A  
HETATM   27  C   UNL     1      -8.051   6.967  71.070  1.00  0.00    -0.105 A  
HETATM   28  C   UNL     1      -7.412   6.690  69.776  1.00  0.00    -0.092 C  
HETATM   29  C   UNL     1      -7.610   8.049  71.842  1.00  0.00    -0.101 A  
HETATM   30  C   UNL     1      -8.211   8.325  73.072  1.00  0.00    -0.227 A  
HETATM   31  O   UNL     1      -6.564   7.462  69.345  1.00  0.00    -0.035 OA 
HETATM   32  C   UNL     1      -9.256   7.522  73.529  1.00  0.00    -0.301 A  
HETATM   33  C   UNL     1      -9.698   6.447  72.757  1.00  0.00    -0.163 A  
ENDBRANCH  20  21
ENDBRANCH  18  20
ENDBRANCH  16  17
ENDBRANCH  15  16
ENDBRANCH  13  15
ENDBRANCH  10  11
ENDBRANCH   9  10
ENDBRANCH   5   6
ENDBRANCH   4   5
TORSDOF 9
ENDMDL
MODEL      338
REMARK 921   NORMALIZED FREE ENERGY PREDICTED BY IDOCK:   -3.27 KCAL/MOL
REMARK 922        TOTAL FREE ENERGY PREDICTED BY IDOCK:   -8.20 KCAL/MOL
REMARK 923 INTER-LIGAND FREE ENERGY PREDICTED BY IDOCK:   -7.77 KCAL/MOL
REMARK 924 INTRA-LIGAND FREE ENERGY PREDICTED BY IDOCK:   -0.43 KCAL/MOL
REMARK 927      BINDING AFFINITY PREDICTED BY RF-SCORE:    0.00 PKD
ROOT
HETATM    1  C   UNL     1      -7.017   4.312  71.976  1.00  0.00    -0.046 C  
HETATM    2  C   UNL     1      -7.246   5.755  72.420  1.00  0.00    -0.090 C  
HETATM    3  C   UNL     1      -7.013   5.876  73.930  1.00  0.00    -0.081 C  
HETATM    4  C   UNL     1      -6.345   6.698  71.600  1.00  0.00    -0.042 C  
ENDROOT
BRANCH   4   5
HETATM    5  C   UNL     1      -6.541   8.155  71.998  1.00  0.00    -0.067 C  
BRANCH   5   6
HETATM    6  C   UNL     1      -8.008   8.573  72.016  1.00  0.00    -0.160 C  
HETATM    7  C   UNL     1      -8.470   9.074  70.635  1.00  0.00    -0.229 C  
HETATM    8  C   UNL     1      -8.311   8.000  69.548  1.00  0.00    -0.127 C  
HETATM    9  C   UNL     1      -9.924   9.567  70.739  1.00  0.00    -0.334 C  
BRANCH   9  10
HETATM   10  C   UNL     1     -10.440  10.075  69.397  1.00  0.00    -0.252 C  
BRANCH  10  11
HETATM   11  C   UNL     1      -9.370  10.040  68.318  1.00  0.00    -0.136 C  
HETATM   12  C   UNL     1      -9.187  11.415  67.649  1.00  0.00    -0.158 C  
HETATM   13  C   UNL     1      -8.200  11.326  66.468  1.00  0.00    -0.165 C  
HETATM   14  C   UNL     1      -8.721  12.491  68.637  1.00  0.00     0.047 C  
BRANCH  13  15
HETATM   15  C   UNL     1      -8.614  10.356  65.355  1.00  0.00    -0.183 C  
BRANCH  15  16
HETATM   16  C   UNL     1     -10.130  10.289  65.163  1.00  0.00    -0.355 C  
BRANCH  16  17
HETATM   17  C   UNL     1     -10.691  11.591  64.649  1.00  0.00    -0.379 C  
HETATM   18  C   UNL     1     -11.557  12.288  65.410  1.00  0.00    -0.412 C  
HETATM   19  C   UNL     1     -10.192  12.063  63.316  1.00  0.00    -0.398 C  
BRANCH  18  20
HETATM   20  C   UNL     1     -12.147  13.639  65.099  1.00  0.00    -0.426 C  
BRANCH  20  21
HETATM   21  C   UNL     1     -11.673  14.691  66.082  1.00  0.00    -0.316 C  
HETATM   22  C   UNL     1     -11.710  14.558  67.425  1.00  0.00    -0.425 C  
HETATM   23  C   UNL     1     -12.270  13.378  68.174  1.00  0.00    -0.122 C  
HETATM   24  C   UNL     1     -11.148  15.615  68.317  1.00  0.00    -0.336 C  
HETATM   25  O   UNL     1     -11.219  15.519  69.534  1.00  0.00    -0.256 OA 
HETATM   26  C   UNL     1     -10.483  16.773  67.700  1.00  0.00    -0.328 A  
HETATM   27  C   UNL     1     -10.471  16.925  66.322  1.00  0.00    -0.263 A  
HETATM   28  C   UNL     1     -11.125  15.931  65.459  1.00  0.00    -0.146 C  
HETATM   29  C   UNL     1      -9.843  18.036  65.746  1.00  0.00     0.110 A  
HETATM   30  C   UNL     1      -9.221  18.989  66.555  1.00  0.00    -0.357 A  
HETATM   31  O   UNL     1     -11.194  16.133  64.252  1.00  0.00    -0.660 OA 
HETATM   32  C   UNL     1      -9.229  18.834  67.941  1.00  0.00    -0.324 A  
HETATM   33  C   UNL     1      -9.859  17.729  68.515  1.00  0.00    -0.355 A  
ENDBRANCH  20  21
ENDBRANCH  18  20
ENDBRANCH  16  17
ENDBRANCH  15  16
ENDBRANCH  13  15
ENDBRANCH  10  11
ENDBRANCH   9  10
ENDBRANCH   5   6
ENDBRANCH   4   5
TORSDOF 9
ENDMDL
MODEL      339
REMARK 921   NORMALIZED FREE ENERGY PREDICTED BY IDOCK:   -3.23 KCAL/MOL
REMARK 922        TOTAL FREE ENERGY PREDICTED BY IDOCK:   -8.14 KCAL/MOL
REMARK 923 INTER-LIGAND FREE ENERGY PREDICTED BY IDOCK:   -6.60 KCAL/MOL
REMARK 924 INTRA-LIGAND FREE ENERGY PREDICTED BY IDOCK:   -1.53 KCAL/MOL
REMARK 927      BINDING AFFINITY PREDICTED BY RF-SCORE:    0.00 PKD
ROOT
HETATM    1  C   UNL     1     -10.458  20.325  66.377  1.00  0.00    -0.331 C  
HETATM    2  C   UNL     1      -9.843  19.082  67.017  1.00  0.00    -0.379 C  
HETATM    3  C   UNL     1     -10.075  19.109  68.531  1.00  0.00    -0.499 C  
HETATM    4  C   UNL     1     -10.414  17.818  66.347  1.00  0.00    -0.297 C  
ENDROOT
BRANCH   4   5
HETATM    5  C   UNL     1      -9.825  16.546  66.944  1.00  0.00    -0.262 C  
BRANCH   5   6
HETATM    6  C   UNL     1      -9.766  15.395  65.945  1.00  0.00    -0.392 C  
HETATM    7  C   UNL     1     -10.239  14.072  66.579  1.00  0.00    -0.279 C  
HETATM    8  C   UNL     1     -11.684  14.163  67.093  1.00  0.00    -0.430 C  
HETATM    9  C   UNL     1     -10.070  12.935  65.557  1.00  0.00    -0.270 C  
BRANCH   9  10
HETATM   10  C   UNL     1     -10.525  11.596  66.129  1.00  0.00    -0.289 C  
BRANCH  10  11
HETATM   11  C   UNL     1      -9.609  10.455  65.719  1.00  0.00    -0.269 C  
HETATM   12  C   UNL     1      -9.518   9.374  66.813  1.00  0.00    -0.217 C  
HETATM   13  C   UNL     1      -8.480   8.297  66.439  1.00  0.00    -0.125 C  
HETATM   14  C   UNL     1     -10.873   8.715  67.101  1.00  0.00    -0.061 C  
BRANCH  13  15
HETATM   15  C   UNL     1      -7.054   8.823  66.231  1.00  0.00    -0.082 C  
BRANCH  15  16
HETATM   16  C   UNL     1      -6.008   7.707  66.229  1.00  0.00    -0.037 C  
BRANCH  16  17
HETATM   17  C   UNL     1      -5.872   7.060  67.584  1.00  0.00    -0.021 C  
HETATM   18  C   UNL     1      -6.011   7.809  68.696  1.00  0.00    -0.035 C  
HETATM   19  C   UNL     1      -5.641   5.578  67.606  1.00  0.00    -0.012 C  
BRANCH  18  20
HETATM   20  C   UNL     1      -5.994   7.320  70.120  1.00  0.00    -0.024 C  
BRANCH  20  21
HETATM   21  C   UNL     1      -7.365   6.847  70.561  1.00  0.00    -0.077 C  
HETATM   22  C   UNL     1      -7.661   5.581  70.926  1.00  0.00    -0.090 C  
HETATM   23  C   UNL     1      -6.704   4.419  70.909  1.00  0.00    -0.035 C  
HETATM   24  C   UNL     1      -9.022   5.223  71.422  1.00  0.00    -0.141 C  
HETATM   25  O   UNL     1      -9.306   4.069  71.712  1.00  0.00    -0.118 OA 
HETATM   26  C   UNL     1     -10.017   6.294  71.579  1.00  0.00    -0.208 A  
HETATM   27  C   UNL     1      -9.724   7.589  71.176  1.00  0.00    -0.168 A  
HETATM   28  C   UNL     1      -8.417   7.906  70.586  1.00  0.00    -0.125 C  
HETATM   29  C   UNL     1     -10.683   8.600  71.321  1.00  0.00    -0.322 A  
HETATM   30  C   UNL     1     -11.930   8.311  71.877  1.00  0.00    -0.383 A  
HETATM   31  O   UNL     1      -8.213   9.031  70.142  1.00  0.00    -0.109 OA 
HETATM   32  C   UNL     1     -12.223   7.010  72.287  1.00  0.00    -0.174 A  
HETATM   33  C   UNL     1     -11.269   6.001  72.138  1.00  0.00    -0.341 A  
ENDBRANCH  20  21
ENDBRANCH  18  20
ENDBRANCH  16  17
ENDBRANCH  15  16
ENDBRANCH  13  15
ENDBRANCH  10  11
ENDBRANCH   9  10
ENDBRANCH   5   6
ENDBRANCH   4   5
TORSDOF 9
ENDMDL
MODEL      340
REMARK 921   NORMALIZED FREE ENERGY PREDICTED BY IDOCK:   -3.23 KCAL/MOL
REMARK 922        TOTAL FREE ENERGY PREDICTED BY IDOCK:   -8.13 KCAL/MOL
REMARK 923 INTER-LIGAND FREE ENERGY PREDICTED BY IDOCK:   -6.98 KCAL/MOL
REMARK 924 INTRA-LIGAND FREE ENERGY PREDICTED BY IDOCK:   -1.15 KCAL/MOL
REMARK 927      BINDING AFFINITY PREDICTED BY RF-SCORE:    0.00 PKD
ROOT
HETATM    1  C   UNL     1     -14.350  15.496  72.358  1.00  0.00    -0.475 C  
HETATM    2  C   UNL     1     -13.140  15.491  71.426  1.00  0.00    -0.580 C  
HETATM    3  C   UNL     1     -11.909  16.016  72.172  1.00  0.00    -0.623 C  
HETATM    4  C   UNL     1     -12.932  14.075  70.855  1.00  0.00    -0.347 C  
ENDROOT
BRANCH   4   5
HETATM    5  C   UNL     1     -11.740  14.016  69.910  1.00  0.00    -0.368 C  
BRANCH   5   6
HETATM    6  C   UNL     1     -11.816  12.848  68.932  1.00  0.00    -0.352 C  
HETATM    7  C   UNL     1     -11.033  11.626  69.449  1.00  0.00    -0.211 C  
HETATM    8  C   UNL     1     -11.566  11.129  70.801  1.00  0.00    -0.064 C  
HETATM    9  C   UNL     1     -11.068  10.518  68.382  1.00  0.00    -0.335 C  
BRANCH   9  10
HETATM   10  C   UNL     1     -10.309   9.277  68.839  1.00  0.00    -0.231 C  
BRANCH  10  11
HETATM   11  C   UNL     1      -9.676   9.461  70.209  1.00  0.00    -0.292 C  
HETATM   12  C   UNL     1      -8.637   8.365  70.512  1.00  0.00    -0.137 C  
HETATM   13  C   UNL     1      -8.110   8.489  71.954  1.00  0.00    -0.185 C  
HETATM   14  C   UNL     1      -7.463   8.380  69.525  1.00  0.00    -0.088 C  
BRANCH  13  15
HETATM   15  C   UNL     1      -9.184   8.379  73.044  1.00  0.00    -0.256 C  
BRANCH  15  16
HETATM   16  C   UNL     1      -9.025   7.126  73.907  1.00  0.00    -0.237 C  
BRANCH  16  17
HETATM   17  C   UNL     1      -8.807   5.890  73.070  1.00  0.00    -0.122 C  
HETATM   18  C   UNL     1      -9.778   5.475  72.233  1.00  0.00    -0.181 C  
HETATM   19  C   UNL     1      -7.470   5.220  73.187  1.00  0.00    -0.092 C  
BRANCH  18  20
HETATM   20  C   UNL     1      -9.703   4.322  71.266  1.00  0.00    -0.256 C  
BRANCH  20  21
HETATM   21  C   UNL     1      -9.268   4.781  69.889  1.00  0.00    -0.183 C  
HETATM   22  C   UNL     1      -9.991   5.592  69.086  1.00  0.00    -0.256 C  
HETATM   23  C   UNL     1     -11.361   6.134  69.394  1.00  0.00    -0.401 C  
HETATM   24  C   UNL     1      -9.448   6.057  67.776  1.00  0.00    -0.112 C  
HETATM   25  O   UNL     1     -10.118   6.756  67.027  1.00  0.00    -0.167 OA 
HETATM   26  C   UNL     1      -8.077   5.675  67.408  1.00  0.00    -0.102 A  
HETATM   27  C   UNL     1      -7.345   4.818  68.217  1.00  0.00    -0.066 A  
HETATM   28  C   UNL     1      -7.933   4.279  69.451  1.00  0.00    -0.060 C  
HETATM   29  C   UNL     1      -6.043   4.452  67.852  1.00  0.00    -0.031 A  
HETATM   30  C   UNL     1      -5.475   4.956  66.680  1.00  0.00    -0.013 A  
HETATM   31  O   UNL     1      -7.312   3.444  70.099  1.00  0.00    -0.041 OA 
HETATM   32  C   UNL     1      -6.209   5.821  65.869  1.00  0.00    -0.034 A  
HETATM   33  C   UNL     1      -7.508   6.181  66.230  1.00  0.00    -0.086 A  
ENDBRANCH  20  21
ENDBRANCH  18  20
ENDBRANCH  16  17
ENDBRANCH  15  16
ENDBRANCH  13  15
ENDBRANCH  10  11
ENDBRANCH   9  10
ENDBRANCH   5   6
ENDBRANCH   4   5
TORSDOF 9
ENDMDL
MODEL      341
REMARK 921   NORMALIZED FREE ENERGY PREDICTED BY IDOCK:   -3.23 KCAL/MOL
REMARK 922        TOTAL FREE ENERGY PREDICTED BY IDOCK:   -8.13 KCAL/MOL
REMARK 923 INTER-LIGAND FREE ENERGY PREDICTED BY IDOCK:   -7.37 KCAL/MOL
REMARK 924 INTRA-LIGAND FREE ENERGY PREDICTED BY IDOCK:   -0.77 KCAL/MOL
REMARK 927      BINDING AFFINITY PREDICTED BY RF-SCORE:    0.00 PKD
ROOT
HETATM    1  C   UNL     1      -8.980  19.663  66.089  1.00  0.00    -0.375 C  
HETATM    2  C   UNL     1      -9.064  18.197  66.510  1.00  0.00    -0.287 C  
HETATM    3  C   UNL     1      -8.612  18.049  67.966  1.00  0.00    -0.267 C  
HETATM    4  C   UNL     1     -10.492  17.670  66.271  1.00  0.00    -0.292 C  
ENDROOT
BRANCH   4   5
HETATM    5  C   UNL     1     -10.628  16.206  66.667  1.00  0.00    -0.274 C  
BRANCH   5   6
HETATM    6  C   UNL     1     -10.228  15.250  65.548  1.00  0.00    -0.417 C  
HETATM    7  C   UNL     1     -10.970  13.904  65.662  1.00  0.00    -0.290 C  
HETATM    8  C   UNL     1     -12.495  14.079  65.595  1.00  0.00    -0.531 C  
HETATM    9  C   UNL     1     -10.458  12.953  64.567  1.00  0.00    -0.400 C  
BRANCH   9  10
HETATM   10  C   UNL     1     -11.160  11.600  64.628  1.00  0.00    -0.342 C  
BRANCH  10  11
HETATM   11  C   UNL     1     -10.213  10.478  65.021  1.00  0.00    -0.365 C  
HETATM   12  C   UNL     1      -9.127  10.963  66.000  1.00  0.00    -0.208 C  
HETATM   13  C   UNL     1      -8.099   9.849  66.278  1.00  0.00    -0.114 C  
HETATM   14  C   UNL     1      -9.715  11.471  67.323  1.00  0.00    -0.197 C  
BRANCH  13  15
HETATM   15  C   UNL     1      -7.360   9.331  65.037  1.00  0.00    -0.102 C  
BRANCH  15  16
HETATM   16  C   UNL     1      -6.261   8.324  65.381  1.00  0.00    -0.045 C  
BRANCH  16  17
HETATM   17  C   UNL     1      -6.829   7.020  65.880  1.00  0.00    -0.057 C  
HETATM   18  C   UNL     1      -8.087   6.671  65.546  1.00  0.00    -0.124 C  
HETATM   19  C   UNL     1      -5.914   6.149  66.690  1.00  0.00    -0.025 C  
BRANCH  18  20
HETATM   20  C   UNL     1      -8.783   5.377  65.879  1.00  0.00    -0.145 C  
BRANCH  20  21
HETATM   21  C   UNL     1      -9.219   5.339  67.331  1.00  0.00    -0.116 C  
HETATM   22  C   UNL     1     -10.228   6.071  67.848  1.00  0.00    -0.217 C  
HETATM   23  C   UNL     1     -11.055   7.079  67.095  1.00  0.00    -0.298 C  
HETATM   24  C   UNL     1     -10.641   5.910  69.274  1.00  0.00    -0.308 C  
HETATM   25  O   UNL     1     -11.526   6.603  69.758  1.00  0.00    -0.351 OA 
HETATM   26  C   UNL     1      -9.973   4.883  70.086  1.00  0.00    -0.325 A  
HETATM   27  C   UNL     1      -8.916   4.152  69.565  1.00  0.00    -0.161 A  
HETATM   28  C   UNL     1      -8.448   4.396  68.194  1.00  0.00    -0.094 C  
HETATM   29  C   UNL     1      -8.281   3.181  70.351  1.00  0.00    -0.070 A  
HETATM   30  C   UNL     1      -8.715   2.942  71.656  1.00  0.00    -0.113 A  
HETATM   31  O   UNL     1      -7.449   3.815  67.785  1.00  0.00    -0.065 OA 
HETATM   32  C   UNL     1      -9.781   3.673  72.179  1.00  0.00    -0.231 A  
HETATM   33  C   UNL     1     -10.410   4.643  71.397  1.00  0.00    -0.160 A  
ENDBRANCH  20  21
ENDBRANCH  18  20
ENDBRANCH  16  17
ENDBRANCH  15  16
ENDBRANCH  13  15
ENDBRANCH  10  11
ENDBRANCH   9  10
ENDBRANCH   5   6
ENDBRANCH   4   5
TORSDOF 9
ENDMDL
MODEL      342
REMARK 921   NORMALIZED FREE ENERGY PREDICTED BY IDOCK:   -3.21 KCAL/MOL
REMARK 922        TOTAL FREE ENERGY PREDICTED BY IDOCK:   -8.10 KCAL/MOL
REMARK 923 INTER-LIGAND FREE ENERGY PREDICTED BY IDOCK:   -7.20 KCAL/MOL
REMARK 924 INTRA-LIGAND FREE ENERGY PREDICTED BY IDOCK:   -0.90 KCAL/MOL
REMARK 927      BINDING AFFINITY PREDICTED BY RF-SCORE:    0.00 PKD
ROOT
HETATM    1  C   UNL     1      -8.405  16.912  65.910  1.00  0.00    -0.013 C  
HETATM    2  C   UNL     1      -9.772  16.344  66.284  1.00  0.00    -0.332 C  
HETATM    3  C   UNL     1     -10.304  15.475  65.139  1.00  0.00    -0.388 C  
HETATM    4  C   UNL     1      -9.668  15.578  67.617  1.00  0.00    -0.212 C  
ENDROOT
BRANCH   4   5
HETATM    5  C   UNL     1     -11.010  14.997  68.042  1.00  0.00    -0.285 C  
BRANCH   5   6
HETATM    6  C   UNL     1     -10.886  13.987  69.178  1.00  0.00    -0.235 C  
HETATM    7  C   UNL     1     -11.811  12.774  68.959  1.00  0.00    -0.344 C  
HETATM    8  C   UNL     1     -11.494  12.036  67.649  1.00  0.00    -0.392 C  
HETATM    9  C   UNL     1     -11.712  11.840  70.177  1.00  0.00    -0.354 C  
BRANCH   9  10
HETATM   10  C   UNL     1     -12.607  10.615  70.017  1.00  0.00    -0.232 C  
BRANCH  10  11
HETATM   11  C   UNL     1     -12.024   9.384  70.693  1.00  0.00    -0.232 C  
HETATM   12  C   UNL     1     -12.831   8.982  71.942  1.00  0.00    -0.451 C  
HETATM   13  C   UNL     1     -12.147   7.820  72.689  1.00  0.00    -0.191 C  
HETATM   14  C   UNL     1     -14.280   8.605  71.608  1.00  0.00    -0.463 C  
BRANCH  13  15
HETATM   15  C   UNL     1     -10.722   8.118  73.173  1.00  0.00    -0.050 C  
BRANCH  15  16
HETATM   16  C   UNL     1      -9.985   6.864  73.646  1.00  0.00    -0.318 C  
BRANCH  16  17
HETATM   17  C   UNL     1      -9.953   5.795  72.583  1.00  0.00    -0.198 C  
HETATM   18  C   UNL     1      -9.440   6.079  71.370  1.00  0.00    -0.172 C  
HETATM   19  C   UNL     1     -10.457   4.437  72.973  1.00  0.00    -0.250 C  
BRANCH  18  20
HETATM   20  C   UNL     1      -9.249   5.119  70.224  1.00  0.00    -0.193 C  
BRANCH  20  21
HETATM   21  C   UNL     1      -9.050   5.853  68.913  1.00  0.00    -0.120 C  
HETATM   22  C   UNL     1      -9.120   5.279  67.693  1.00  0.00    -0.113 C  
HETATM   23  C   UNL     1      -9.354   3.816  67.426  1.00  0.00    -0.233 C  
HETATM   24  C   UNL     1      -8.989   6.096  66.451  1.00  0.00    -0.150 C  
HETATM   25  O   UNL     1      -9.009   5.572  65.345  1.00  0.00    -0.157 OA 
HETATM   26  C   UNL     1      -8.857   7.554  66.581  1.00  0.00    -0.162 A  
HETATM   27  C   UNL     1      -8.755   8.142  67.832  1.00  0.00    -0.128 A  
HETATM   28  C   UNL     1      -8.775   7.314  69.046  1.00  0.00    -0.132 C  
HETATM   29  C   UNL     1      -8.620   9.532  67.944  1.00  0.00    -0.119 A  
HETATM   30  C   UNL     1      -8.597  10.329  66.798  1.00  0.00    -0.129 A  
HETATM   31  O   UNL     1      -8.580   7.838  70.137  1.00  0.00    -0.135 OA 
HETATM   32  C   UNL     1      -8.705   9.739  65.540  1.00  0.00    -0.171 A  
HETATM   33  C   UNL     1      -8.834   8.354  65.428  1.00  0.00    -0.146 A  
ENDBRANCH  20  21
ENDBRANCH  18  20
ENDBRANCH  16  17
ENDBRANCH  15  16
ENDBRANCH  13  15
ENDBRANCH  10  11
ENDBRANCH   9  10
ENDBRANCH   5   6
ENDBRANCH   4   5
TORSDOF 9
ENDMDL
MODEL      343
REMARK 921   NORMALIZED FREE ENERGY PREDICTED BY IDOCK:   -3.20 KCAL/MOL
REMARK 922        TOTAL FREE ENERGY PREDICTED BY IDOCK:   -8.08 KCAL/MOL
REMARK 923 INTER-LIGAND FREE ENERGY PREDICTED BY IDOCK:   -7.31 KCAL/MOL
REMARK 924 INTRA-LIGAND FREE ENERGY PREDICTED BY IDOCK:   -0.77 KCAL/MOL
REMARK 927      BINDING AFFINITY PREDICTED BY RF-SCORE:    0.00 PKD
ROOT
HETATM    1  C   UNL     1     -10.199   4.929  71.953  1.00  0.00    -0.267 C  
HETATM    2  C   UNL     1      -9.451   4.050  70.953  1.00  0.00    -0.237 C  
HETATM    3  C   UNL     1      -9.658   2.573  71.304  1.00  0.00    -0.224 C  
HETATM    4  C   UNL     1      -9.905   4.393  69.521  1.00  0.00    -0.258 C  
ENDROOT
BRANCH   4   5
HETATM    5  C   UNL     1      -9.181   3.549  68.481  1.00  0.00    -0.225 C  
BRANCH   5   6
HETATM    6  C   UNL     1      -8.070   4.312  67.767  1.00  0.00    -0.094 C  
HETATM    7  C   UNL     1      -8.432   4.594  66.296  1.00  0.00    -0.113 C  
HETATM    8  C   UNL     1      -9.718   5.425  66.168  1.00  0.00    -0.165 C  
HETATM    9  C   UNL     1      -7.241   5.280  65.606  1.00  0.00    -0.068 C  
BRANCH   9  10
HETATM   10  C   UNL     1      -7.542   5.587  64.143  1.00  0.00    -0.075 C  
BRANCH  10  11
HETATM   11  C   UNL     1      -7.734   7.075  63.896  1.00  0.00    -0.119 C  
HETATM   12  C   UNL     1      -6.397   7.839  63.939  1.00  0.00    -0.058 C  
HETATM   13  C   UNL     1      -6.628   9.359  63.824  1.00  0.00    -0.095 C  
HETATM   14  C   UNL     1      -5.421   7.376  62.850  1.00  0.00    -0.041 C  
BRANCH  13  15
HETATM   15  C   UNL     1      -7.506   9.961  64.928  1.00  0.00    -0.135 C  
BRANCH  15  16
HETATM   16  C   UNL     1      -8.543   8.974  65.465  1.00  0.00    -0.190 C  
BRANCH  16  17
HETATM   17  C   UNL     1      -9.779   9.674  65.969  1.00  0.00    -0.331 C  
HETATM   18  C   UNL     1     -10.124  10.869  65.451  1.00  0.00    -0.336 C  
HETATM   19  C   UNL     1     -10.594   8.950  67.000  1.00  0.00    -0.279 C  
BRANCH  18  20
HETATM   20  C   UNL     1     -11.362  11.667  65.769  1.00  0.00    -0.244 C  
BRANCH  20  21
HETATM   21  C   UNL     1     -11.034  12.897  66.591  1.00  0.00    -0.302 C  
HETATM   22  C   UNL     1     -11.242  13.011  67.920  1.00  0.00    -0.304 C  
HETATM   23  C   UNL     1     -11.878  11.968  68.799  1.00  0.00    -0.358 C  
HETATM   24  C   UNL     1     -10.814  14.234  68.662  1.00  0.00    -0.253 C  
HETATM   25  O   UNL     1     -11.041  14.359  69.858  1.00  0.00    -0.216 OA 
HETATM   26  C   UNL     1     -10.091  15.283  67.929  1.00  0.00    -0.233 A  
HETATM   27  C   UNL     1      -9.903  15.181  66.559  1.00  0.00    -0.278 A  
HETATM   28  C   UNL     1     -10.426  14.023  65.821  1.00  0.00    -0.309 C  
HETATM   29  C   UNL     1      -9.221  16.191  65.868  1.00  0.00    -0.296 A  
HETATM   30  C   UNL     1      -8.721  17.298  66.558  1.00  0.00    -0.293 A  
HETATM   31  O   UNL     1     -10.342  13.998  64.599  1.00  0.00    -0.440 OA 
HETATM   32  C   UNL     1      -8.906  17.398  67.936  1.00  0.00    -0.237 A  
HETATM   33  C   UNL     1      -9.590  16.394  68.623  1.00  0.00    -0.240 A  
ENDBRANCH  20  21
ENDBRANCH  18  20
ENDBRANCH  16  17
ENDBRANCH  15  16
ENDBRANCH  13  15
ENDBRANCH  10  11
ENDBRANCH   9  10
ENDBRANCH   5   6
ENDBRANCH   4   5
TORSDOF 9
ENDMDL
MODEL      344
REMARK 921   NORMALIZED FREE ENERGY PREDICTED BY IDOCK:   -3.17 KCAL/MOL
REMARK 922        TOTAL FREE ENERGY PREDICTED BY IDOCK:   -8.04 KCAL/MOL
REMARK 923 INTER-LIGAND FREE ENERGY PREDICTED BY IDOCK:   -6.50 KCAL/MOL
REMARK 924 INTRA-LIGAND FREE ENERGY PREDICTED BY IDOCK:   -1.54 KCAL/MOL
REMARK 927      BINDING AFFINITY PREDICTED BY RF-SCORE:    0.00 PKD
ROOT
HETATM    1  C   UNL     1      -8.708   6.498  73.202  1.00  0.00    -0.128 C  
HETATM    2  C   UNL     1      -9.388   5.797  72.028  1.00  0.00    -0.163 C  
HETATM    3  C   UNL     1     -10.727   5.207  72.481  1.00  0.00    -0.286 C  
HETATM    4  C   UNL     1      -9.536   6.782  70.853  1.00  0.00    -0.173 C  
ENDROOT
BRANCH   4   5
HETATM    5  C   UNL     1     -10.202   6.130  69.649  1.00  0.00    -0.255 C  
BRANCH   5   6
HETATM    6  C   UNL     1      -9.225   5.335  68.789  1.00  0.00    -0.145 C  
HETATM    7  C   UNL     1      -9.950   4.590  67.651  1.00  0.00    -0.138 C  
HETATM    8  C   UNL     1     -10.705   5.552  66.721  1.00  0.00    -0.329 C  
HETATM    9  C   UNL     1      -8.930   3.736  66.879  1.00  0.00    -0.154 C  
BRANCH   9  10
HETATM   10  C   UNL     1      -9.590   2.974  65.735  1.00  0.00     0.061 C  
BRANCH  10  11
HETATM   11  C   UNL     1      -9.286   3.593  64.380  1.00  0.00    -0.146 C  
HETATM   12  C   UNL     1      -7.789   3.496  64.030  1.00  0.00    -0.081 C  
HETATM   13  C   UNL     1      -7.480   4.250  62.722  1.00  0.00    -0.049 C  
HETATM   14  C   UNL     1      -7.304   2.045  63.923  1.00  0.00    -0.057 C  
BRANCH  13  15
HETATM   15  C   UNL     1      -7.822   5.745  62.744  1.00  0.00    -0.094 C  
BRANCH  15  16
HETATM   16  C   UNL     1      -8.394   6.201  64.087  1.00  0.00     0.044 C  
BRANCH  16  17
HETATM   17  C   UNL     1      -7.939   7.592  64.450  1.00  0.00    -0.117 C  
HETATM   18  C   UNL     1      -8.494   8.218  65.506  1.00  0.00    -0.177 C  
HETATM   19  C   UNL     1      -6.833   8.179  63.624  1.00  0.00    -0.076 C  
BRANCH  18  20
HETATM   20  C   UNL     1      -8.105   9.563  66.063  1.00  0.00    -0.111 C  
BRANCH  20  21
HETATM   21  C   UNL     1      -9.313  10.465  66.229  1.00  0.00    -0.202 C  
HETATM   22  C   UNL     1     -10.123  10.472  67.309  1.00  0.00    -0.242 C  
HETATM   23  C   UNL     1     -10.001   9.561  68.501  1.00  0.00    -0.184 C  
HETATM   24  C   UNL     1     -11.244  11.451  67.421  1.00  0.00    -0.305 C  
HETATM   25  O   UNL     1     -12.007  11.431  68.378  1.00  0.00    -0.539 OA 
HETATM   26  C   UNL     1     -11.404  12.460  66.364  1.00  0.00    -0.392 A  
HETATM   27  C   UNL     1     -10.592  12.435  65.240  1.00  0.00    -0.322 A  
HETATM   28  C   UNL     1      -9.562  11.397  65.090  1.00  0.00    -0.229 C  
HETATM   29  C   UNL     1     -10.758  13.395  64.234  1.00  0.00    -0.374 A  
HETATM   30  C   UNL     1     -11.735  14.384  64.363  1.00  0.00    -0.390 A  
HETATM   31  O   UNL     1      -8.924  11.328  64.046  1.00  0.00    -0.051 OA 
HETATM   32  C   UNL     1     -12.549  14.413  65.496  1.00  0.00    -0.345 A  
HETATM   33  C   UNL     1     -12.386  13.452  66.496  1.00  0.00    -0.354 A  
ENDBRANCH  20  21
ENDBRANCH  18  20
ENDBRANCH  16  17
ENDBRANCH  15  16
ENDBRANCH  13  15
ENDBRANCH  10  11
ENDBRANCH   9  10
ENDBRANCH   5   6
ENDBRANCH   4   5
TORSDOF 9
ENDMDL
MODEL      345
REMARK 921   NORMALIZED FREE ENERGY PREDICTED BY IDOCK:   -3.17 KCAL/MOL
REMARK 922        TOTAL FREE ENERGY PREDICTED BY IDOCK:   -8.04 KCAL/MOL
REMARK 923 INTER-LIGAND FREE ENERGY PREDICTED BY IDOCK:   -6.90 KCAL/MOL
REMARK 924 INTRA-LIGAND FREE ENERGY PREDICTED BY IDOCK:   -1.13 KCAL/MOL
REMARK 927      BINDING AFFINITY PREDICTED BY RF-SCORE:    0.00 PKD
ROOT
HETATM    1  C   UNL     1      -6.376  20.780  64.159  1.00  0.00    -0.330 C  
HETATM    2  C   UNL     1      -6.525  20.410  65.633  1.00  0.00    -0.278 C  
HETATM    3  C   UNL     1      -7.944  19.899  65.899  1.00  0.00    -0.288 C  
HETATM    4  C   UNL     1      -5.439  19.388  66.022  1.00  0.00    -0.170 C  
ENDROOT
BRANCH   4   5
HETATM    5  C   UNL     1      -5.537  18.991  67.489  1.00  0.00    -0.166 C  
BRANCH   5   6
HETATM    6  C   UNL     1      -5.605  17.481  67.691  1.00  0.00    -0.143 C  
HETATM    7  C   UNL     1      -6.845  17.076  68.511  1.00  0.00    -0.179 C  
HETATM    8  C   UNL     1      -8.153  17.509  67.830  1.00  0.00    -0.230 C  
HETATM    9  C   UNL     1      -6.810  15.558  68.761  1.00  0.00    -0.116 C  
BRANCH   9  10
HETATM   10  C   UNL     1      -8.018  15.095  69.568  1.00  0.00    -0.175 C  
BRANCH  10  11
HETATM   11  C   UNL     1      -9.178  14.677  68.679  1.00  0.00    -0.194 C  
HETATM   12  C   UNL     1      -8.695  13.920  67.428  1.00  0.00    -0.208 C  
HETATM   13  C   UNL     1      -9.870  13.627  66.474  1.00  0.00    -0.295 C  
HETATM   14  C   UNL     1      -7.969  12.614  67.776  1.00  0.00    -0.158 C  
BRANCH  13  15
HETATM   15  C   UNL     1     -10.612  14.870  65.967  1.00  0.00    -0.321 C  
BRANCH  15  16
HETATM   16  C   UNL     1     -11.262  14.654  64.600  1.00  0.00    -0.353 C  
BRANCH  16  17
HETATM   17  C   UNL     1     -11.451  13.190  64.292  1.00  0.00    -0.428 C  
HETATM   18  C   UNL     1     -10.414  12.470  63.821  1.00  0.00    -0.451 C  
HETATM   19  C   UNL     1     -12.800  12.604  64.589  1.00  0.00    -0.361 C  
BRANCH  18  20
HETATM   20  C   UNL     1     -10.396  10.989  63.543  1.00  0.00    -0.402 C  
BRANCH  20  21
HETATM   21  C   UNL     1      -9.374  10.275  64.406  1.00  0.00    -0.329 C  
HETATM   22  C   UNL     1      -9.537   9.995  65.717  1.00  0.00    -0.291 C  
HETATM   23  C   UNL     1     -10.726  10.385  66.554  1.00  0.00    -0.162 C  
HETATM   24  C   UNL     1      -8.510   9.217  66.469  1.00  0.00    -0.123 C  
HETATM   25  O   UNL     1      -8.634   8.999  67.667  1.00  0.00    -0.120 OA 
HETATM   26  C   UNL     1      -7.349   8.694  65.735  1.00  0.00    -0.081 A  
HETATM   27  C   UNL     1      -7.165   9.006  64.396  1.00  0.00    -0.098 A  
HETATM   28  C   UNL     1      -8.128   9.865  63.694  1.00  0.00    -0.153 C  
HETATM   29  C   UNL     1      -6.050   8.510  63.709  1.00  0.00    -0.072 A  
HETATM   30  C   UNL     1      -5.126   7.694  64.366  1.00  0.00    -0.029 A  
HETATM   31  O   UNL     1      -7.897  10.214  62.543  1.00  0.00    -0.126 OA 
HETATM   32  C   UNL     1      -5.313   7.377  65.710  1.00  0.00    -0.028 A  
HETATM   33  C   UNL     1      -6.422   7.875  66.397  1.00  0.00    -0.047 A  
ENDBRANCH  20  21
ENDBRANCH  18  20
ENDBRANCH  16  17
ENDBRANCH  15  16
ENDBRANCH  13  15
ENDBRANCH  10  11
ENDBRANCH   9  10
ENDBRANCH   5   6
ENDBRANCH   4   5
TORSDOF 9
ENDMDL
MODEL      346
REMARK 921   NORMALIZED FREE ENERGY PREDICTED BY IDOCK:   -3.17 KCAL/MOL
REMARK 922        TOTAL FREE ENERGY PREDICTED BY IDOCK:   -8.03 KCAL/MOL
REMARK 923 INTER-LIGAND FREE ENERGY PREDICTED BY IDOCK:   -7.38 KCAL/MOL
REMARK 924 INTRA-LIGAND FREE ENERGY PREDICTED BY IDOCK:   -0.66 KCAL/MOL
REMARK 927      BINDING AFFINITY PREDICTED BY RF-SCORE:    0.00 PKD
ROOT
HETATM    1  C   UNL     1     -10.196   8.231  66.611  1.00  0.00    -0.333 C  
HETATM    2  C   UNL     1      -9.265   7.028  66.480  1.00  0.00    -0.198 C  
HETATM    3  C   UNL     1      -7.963   7.295  67.242  1.00  0.00    -0.111 C  
HETATM    4  C   UNL     1      -9.990   5.757  66.964  1.00  0.00    -0.193 C  
ENDROOT
BRANCH   4   5
HETATM    5  C   UNL     1      -9.106   4.523  66.846  1.00  0.00    -0.130 C  
BRANCH   5   6
HETATM    6  C   UNL     1      -9.111   3.667  68.109  1.00  0.00    -0.197 C  
HETATM    7  C   UNL     1      -9.395   4.514  69.364  1.00  0.00    -0.217 C  
HETATM    8  C   UNL     1     -10.754   5.226  69.284  1.00  0.00    -0.071 C  
HETATM    9  C   UNL     1      -9.294   3.618  70.610  1.00  0.00    -0.228 C  
BRANCH   9  10
HETATM   10  C   UNL     1      -9.569   4.403  71.888  1.00  0.00    -0.212 C  
BRANCH  10  11
HETATM   11  C   UNL     1      -9.044   5.827  71.813  1.00  0.00    -0.150 C  
HETATM   12  C   UNL     1     -10.145   6.859  72.121  1.00  0.00    -0.198 C  
HETATM   13  C   UNL     1      -9.629   8.296  71.904  1.00  0.00    -0.288 C  
HETATM   14  C   UNL     1     -10.703   6.715  73.542  1.00  0.00    -0.301 C  
BRANCH  13  15
HETATM   15  C   UNL     1      -9.142   8.596  70.481  1.00  0.00    -0.188 C  
BRANCH  15  16
HETATM   16  C   UNL     1      -9.614   9.958  69.970  1.00  0.00    -0.260 C  
BRANCH  16  17
HETATM   17  C   UNL     1      -8.589  10.611  69.078  1.00  0.00    -0.150 C  
HETATM   18  C   UNL     1      -8.948  11.656  68.306  1.00  0.00    -0.185 C  
HETATM   19  C   UNL     1      -7.189  10.077  69.152  1.00  0.00    -0.076 C  
BRANCH  18  20
HETATM   20  C   UNL     1      -8.044  12.480  67.426  1.00  0.00    -0.180 C  
BRANCH  20  21
HETATM   21  C   UNL     1      -8.653  13.833  67.117  1.00  0.00    -0.210 C  
HETATM   22  C   UNL     1      -9.660  14.039  66.241  1.00  0.00    -0.284 C  
HETATM   23  C   UNL     1     -10.311  12.982  65.390  1.00  0.00    -0.313 C  
HETATM   24  C   UNL     1     -10.252  15.397  66.058  1.00  0.00    -0.324 C  
HETATM   25  O   UNL     1     -11.134  15.596  65.234  1.00  0.00    -0.344 OA 
HETATM   26  C   UNL     1      -9.767  16.495  66.908  1.00  0.00    -0.259 A  
HETATM   27  C   UNL     1      -8.713  16.291  67.786  1.00  0.00    -0.182 A  
HETATM   28  C   UNL     1      -8.066  14.975  67.877  1.00  0.00    -0.136 C  
HETATM   29  C   UNL     1      -8.253  17.346  68.584  1.00  0.00    -0.264 A  
HETATM   30  C   UNL     1      -8.858  18.602  68.504  1.00  0.00    -0.361 A  
HETATM   31  O   UNL     1      -7.072  14.840  68.582  1.00  0.00    -0.102 OA 
HETATM   32  C   UNL     1      -9.921  18.806  67.625  1.00  0.00    -0.390 A  
HETATM   33  C   UNL     1     -10.376  17.756  66.826  1.00  0.00    -0.343 A  
ENDBRANCH  20  21
ENDBRANCH  18  20
ENDBRANCH  16  17
ENDBRANCH  15  16
ENDBRANCH  13  15
ENDBRANCH  10  11
ENDBRANCH   9  10
ENDBRANCH   5   6
ENDBRANCH   4   5
TORSDOF 9
ENDMDL
MODEL      347
REMARK 921   NORMALIZED FREE ENERGY PREDICTED BY IDOCK:   -3.13 KCAL/MOL
REMARK 922        TOTAL FREE ENERGY PREDICTED BY IDOCK:   -7.98 KCAL/MOL
REMARK 923 INTER-LIGAND FREE ENERGY PREDICTED BY IDOCK:   -6.00 KCAL/MOL
REMARK 924 INTRA-LIGAND FREE ENERGY PREDICTED BY IDOCK:   -1.99 KCAL/MOL
REMARK 927      BINDING AFFINITY PREDICTED BY RF-SCORE:    0.00 PKD
ROOT
HETATM    1  C   UNL     1     -11.660  14.252  70.109  1.00  0.00    -0.312 C  
HETATM    2  C   UNL     1     -11.349  13.094  69.162  1.00  0.00    -0.335 C  
HETATM    3  C   UNL     1     -11.796  11.772  69.796  1.00  0.00    -0.420 C  
HETATM    4  C   UNL     1     -12.007  13.353  67.793  1.00  0.00    -0.363 C  
ENDROOT
BRANCH   4   5
HETATM    5  C   UNL     1     -11.719  12.229  66.806  1.00  0.00    -0.411 C  
BRANCH   5   6
HETATM    6  C   UNL     1     -10.228  12.030  66.553  1.00  0.00    -0.232 C  
HETATM    7  C   UNL     1      -9.974  11.305  65.217  1.00  0.00    -0.301 C  
HETATM    8  C   UNL     1     -10.545  12.081  64.021  1.00  0.00    -0.423 C  
HETATM    9  C   UNL     1      -8.465  11.050  65.062  1.00  0.00     0.074 C  
BRANCH   9  10
HETATM   10  C   UNL     1      -8.150  10.333  63.753  1.00  0.00    -0.143 C  
BRANCH  10  11
HETATM   11  C   UNL     1      -6.892   9.486  63.850  1.00  0.00    -0.105 C  
HETATM   12  C   UNL     1      -7.222   7.990  64.016  1.00  0.00    -0.087 C  
HETATM   13  C   UNL     1      -5.940   7.167  64.251  1.00  0.00    -0.037 C  
HETATM   14  C   UNL     1      -7.994   7.423  62.818  1.00  0.00    -0.117 C  
BRANCH  13  15
HETATM   15  C   UNL     1      -5.133   7.571  65.491  1.00  0.00    -0.025 C  
BRANCH  15  16
HETATM   16  C   UNL     1      -6.021   7.991  66.663  1.00  0.00    -0.045 C  
BRANCH  16  17
HETATM   17  C   UNL     1      -6.521   6.803  67.444  1.00  0.00    -0.049 C  
HETATM   18  C   UNL     1      -7.807   6.420  67.322  1.00  0.00    -0.105 C  
HETATM   19  C   UNL     1      -5.515   6.073  68.284  1.00  0.00    -0.004 C  
BRANCH  18  20
HETATM   20  C   UNL     1      -8.454   5.215  67.954  1.00  0.00    -0.104 C  
BRANCH  20  21
HETATM   21  C   UNL     1      -9.007   5.539  69.328  1.00  0.00    -0.125 C  
HETATM   22  C   UNL     1      -8.496   5.079  70.490  1.00  0.00    -0.109 C  
HETATM   23  C   UNL     1      -7.332   4.132  70.621  1.00  0.00    -0.041 C  
HETATM   24  C   UNL     1      -9.059   5.514  71.802  1.00  0.00    -0.139 C  
HETATM   25  O   UNL     1      -8.627   5.065  72.855  1.00  0.00    -0.117 OA 
HETATM   26  C   UNL     1     -10.135   6.515  71.807  1.00  0.00    -0.202 A  
HETATM   27  C   UNL     1     -10.681   6.966  70.614  1.00  0.00    -0.267 A  
HETATM   28  C   UNL     1     -10.192   6.447  69.330  1.00  0.00    -0.192 C  
HETATM   29  C   UNL     1     -11.713   7.914  70.630  1.00  0.00    -0.169 A  
HETATM   30  C   UNL     1     -12.188   8.412  71.845  1.00  0.00    -0.395 A  
HETATM   31  O   UNL     1     -10.754   6.778  68.292  1.00  0.00    -0.214 OA 
HETATM   32  C   UNL     1     -11.636   7.963  73.044  1.00  0.00    -0.158 A  
HETATM   33  C   UNL     1     -10.612   7.015  73.027  1.00  0.00    -0.323 A  
ENDBRANCH  20  21
ENDBRANCH  18  20
ENDBRANCH  16  17
ENDBRANCH  15  16
ENDBRANCH  13  15
ENDBRANCH  10  11
ENDBRANCH   9  10
ENDBRANCH   5   6
ENDBRANCH   4   5
TORSDOF 9
ENDMDL
MODEL      348
REMARK 921   NORMALIZED FREE ENERGY PREDICTED BY IDOCK:   -3.13 KCAL/MOL
REMARK 922        TOTAL FREE ENERGY PREDICTED BY IDOCK:   -7.98 KCAL/MOL
REMARK 923 INTER-LIGAND FREE ENERGY PREDICTED BY IDOCK:   -7.10 KCAL/MOL
REMARK 924 INTRA-LIGAND FREE ENERGY PREDICTED BY IDOCK:   -0.88 KCAL/MOL
REMARK 927      BINDING AFFINITY PREDICTED BY RF-SCORE:    0.00 PKD
ROOT
HETATM    1  C   UNL     1      -6.489  20.279  69.428  1.00  0.00    -0.286 C  
HETATM    2  C   UNL     1      -7.514  20.317  68.297  1.00  0.00    -0.174 C  
HETATM    3  C   UNL     1      -6.824  20.018  66.961  1.00  0.00    -0.252 C  
HETATM    4  C   UNL     1      -8.664  19.339  68.606  1.00  0.00    -0.402 C  
ENDROOT
BRANCH   4   5
HETATM    5  C   UNL     1      -9.721  19.344  67.511  1.00  0.00    -0.432 C  
BRANCH   5   6
HETATM    6  C   UNL     1     -10.618  18.111  67.546  1.00  0.00    -0.419 C  
HETATM    7  C   UNL     1     -10.076  16.992  66.635  1.00  0.00    -0.308 C  
HETATM    8  C   UNL     1      -8.664  16.547  67.045  1.00  0.00    -0.221 C  
HETATM    9  C   UNL     1     -11.067  15.815  66.639  1.00  0.00    -0.099 C  
BRANCH   9  10
HETATM   10  C   UNL     1     -10.582  14.672  65.754  1.00  0.00    -0.330 C  
BRANCH  10  11
HETATM   11  C   UNL     1     -10.426  13.372  66.526  1.00  0.00    -0.283 C  
HETATM   12  C   UNL     1     -11.716  12.530  66.494  1.00  0.00    -0.454 C  
HETATM   13  C   UNL     1     -11.583  11.287  67.395  1.00  0.00    -0.214 C  
HETATM   14  C   UNL     1     -12.104  12.105  65.072  1.00  0.00    -0.311 C  
BRANCH  13  15
HETATM   15  C   UNL     1     -11.302  11.589  68.872  1.00  0.00    -0.331 C  
BRANCH  15  16
HETATM   16  C   UNL     1     -11.556  10.385  69.781  1.00  0.00    -0.339 C  
BRANCH  16  17
HETATM   17  C   UNL     1     -10.296   9.597  70.036  1.00  0.00    -0.298 C  
HETATM   18  C   UNL     1      -9.247   9.732  69.202  1.00  0.00    -0.177 C  
HETATM   19  C   UNL     1     -10.275   8.735  71.264  1.00  0.00    -0.332 C  
BRANCH  18  20
HETATM   20  C   UNL     1      -7.889   9.095  69.350  1.00  0.00    -0.095 C  
BRANCH  20  21
HETATM   21  C   UNL     1      -7.902   7.650  68.893  1.00  0.00    -0.123 C  
HETATM   22  C   UNL     1      -7.522   6.601  69.653  1.00  0.00    -0.096 C  
HETATM   23  C   UNL     1      -6.977   6.686  71.054  1.00  0.00    -0.067 C  
HETATM   24  C   UNL     1      -7.643   5.202  69.147  1.00  0.00    -0.069 C  
HETATM   25  O   UNL     1      -7.259   4.252  69.816  1.00  0.00    -0.048 OA 
HETATM   26  C   UNL     1      -8.256   4.983  67.829  1.00  0.00    -0.098 A  
HETATM   27  C   UNL     1      -8.619   6.061  67.034  1.00  0.00    -0.107 A  
HETATM   28  C   UNL     1      -8.393   7.436  67.500  1.00  0.00    -0.113 C  
HETATM   29  C   UNL     1      -9.194   5.841  65.776  1.00  0.00    -0.086 A  
HETATM   30  C   UNL     1      -9.411   4.538  65.322  1.00  0.00    -0.160 A  
HETATM   31  O   UNL     1      -8.624   8.373  66.745  1.00  0.00    -0.114 OA 
HETATM   32  C   UNL     1      -9.051   3.455  66.122  1.00  0.00    -0.155 A  
HETATM   33  C   UNL     1      -8.473   3.674  67.374  1.00  0.00    -0.103 A  
ENDBRANCH  20  21
ENDBRANCH  18  20
ENDBRANCH  16  17
ENDBRANCH  15  16
ENDBRANCH  13  15
ENDBRANCH  10  11
ENDBRANCH   9  10
ENDBRANCH   5   6
ENDBRANCH   4   5
TORSDOF 9
ENDMDL
MODEL      349
REMARK 921   NORMALIZED FREE ENERGY PREDICTED BY IDOCK:   -3.10 KCAL/MOL
REMARK 922        TOTAL FREE ENERGY PREDICTED BY IDOCK:   -7.93 KCAL/MOL
REMARK 923 INTER-LIGAND FREE ENERGY PREDICTED BY IDOCK:   -6.02 KCAL/MOL
REMARK 924 INTRA-LIGAND FREE ENERGY PREDICTED BY IDOCK:   -1.91 KCAL/MOL
REMARK 927      BINDING AFFINITY PREDICTED BY RF-SCORE:    0.00 PKD
ROOT
HETATM    1  C   UNL     1     -11.798  14.317  69.027  1.00  0.00    -0.370 C  
HETATM    2  C   UNL     1     -11.861  14.836  67.593  1.00  0.00    -0.319 C  
HETATM    3  C   UNL     1     -10.531  15.501  67.223  1.00  0.00    -0.279 C  
HETATM    4  C   UNL     1     -12.238  13.685  66.641  1.00  0.00    -0.437 C  
ENDROOT
BRANCH   4   5
HETATM    5  C   UNL     1     -12.324  14.153  65.194  1.00  0.00    -0.460 C  
BRANCH   5   6
HETATM    6  C   UNL     1     -11.085  13.793  64.380  1.00  0.00    -0.356 C  
HETATM    7  C   UNL     1     -10.979  12.272  64.155  1.00  0.00    -0.415 C  
HETATM    8  C   UNL     1     -12.199  11.713  63.407  1.00  0.00    -0.319 C  
HETATM    9  C   UNL     1      -9.667  11.963  63.413  1.00  0.00    -0.296 C  
BRANCH   9  10
HETATM   10  C   UNL     1      -9.506  10.468  63.159  1.00  0.00    -0.367 C  
BRANCH  10  11
HETATM   11  C   UNL     1      -8.083  10.100  62.770  1.00  0.00    -0.151 C  
HETATM   12  C   UNL     1      -7.747   8.644  63.141  1.00  0.00    -0.127 C  
HETATM   13  C   UNL     1      -6.263   8.334  62.866  1.00  0.00    -0.086 C  
HETATM   14  C   UNL     1      -8.636   7.631  62.407  1.00  0.00     0.106 C  
BRANCH  13  15
HETATM   15  C   UNL     1      -5.269   9.215  63.633  1.00  0.00    -0.061 C  
BRANCH  15  16
HETATM   16  C   UNL     1      -5.151   8.827  65.108  1.00  0.00    -0.037 C  
BRANCH  16  17
HETATM   17  C   UNL     1      -5.921   9.768  66.000  1.00  0.00    -0.064 C  
HETATM   18  C   UNL     1      -7.057   9.346  66.590  1.00  0.00    -0.085 C  
HETATM   19  C   UNL     1      -5.327  11.128  66.223  1.00  0.00    -0.136 C  
BRANCH  18  20
HETATM   20  C   UNL     1      -7.902  10.113  67.572  1.00  0.00    -0.102 C  
BRANCH  20  21
HETATM   21  C   UNL     1      -8.482   9.201  68.636  1.00  0.00    -0.127 C  
HETATM   22  C   UNL     1      -9.788   8.879  68.741  1.00  0.00    -0.182 C  
HETATM   23  C   UNL     1     -10.894   9.403  67.864  1.00  0.00    -0.215 C  
HETATM   24  C   UNL     1     -10.259   7.909  69.774  1.00  0.00    -0.212 C  
HETATM   25  O   UNL     1     -11.448   7.648  69.901  1.00  0.00    -0.094 OA 
HETATM   26  C   UNL     1      -9.258   7.252  70.627  1.00  0.00    -0.157 A  
HETATM   27  C   UNL     1      -7.920   7.604  70.540  1.00  0.00    -0.100 A  
HETATM   28  C   UNL     1      -7.484   8.641  69.594  1.00  0.00    -0.068 C  
HETATM   29  C   UNL     1      -6.976   6.978  71.365  1.00  0.00    -0.065 A  
HETATM   30  C   UNL     1      -7.378   5.993  72.269  1.00  0.00    -0.094 A  
HETATM   31  O   UNL     1      -6.316   9.012  69.603  1.00  0.00    -0.038 OA 
HETATM   32  C   UNL     1      -8.723   5.635  72.354  1.00  0.00    -0.128 A  
HETATM   33  C   UNL     1      -9.664   6.263  71.535  1.00  0.00    -0.179 A  
ENDBRANCH  20  21
ENDBRANCH  18  20
ENDBRANCH  16  17
ENDBRANCH  15  16
ENDBRANCH  13  15
ENDBRANCH  10  11
ENDBRANCH   9  10
ENDBRANCH   5   6
ENDBRANCH   4   5
TORSDOF 9
ENDMDL
MODEL      350
REMARK 921   NORMALIZED FREE ENERGY PREDICTED BY IDOCK:   -3.09 KCAL/MOL
REMARK 922        TOTAL FREE ENERGY PREDICTED BY IDOCK:   -7.92 KCAL/MOL
REMARK 923 INTER-LIGAND FREE ENERGY PREDICTED BY IDOCK:   -6.34 KCAL/MOL
REMARK 924 INTRA-LIGAND FREE ENERGY PREDICTED BY IDOCK:   -1.58 KCAL/MOL
REMARK 927      BINDING AFFINITY PREDICTED BY RF-SCORE:    0.00 PKD
ROOT
HETATM    1  C   UNL     1      -5.206  15.700  67.676  1.00  0.00    -0.085 C  
HETATM    2  C   UNL     1      -6.649  16.160  67.871  1.00  0.00    -0.155 C  
HETATM    3  C   UNL     1      -6.810  16.784  69.261  1.00  0.00    -0.225 C  
HETATM    4  C   UNL     1      -7.044  17.122  66.735  1.00  0.00    -0.259 C  
ENDROOT
BRANCH   4   5
HETATM    5  C   UNL     1      -8.481  17.605  66.877  1.00  0.00    -0.261 C  
BRANCH   5   6
HETATM    6  C   UNL     1      -9.476  16.741  66.109  1.00  0.00    -0.295 C  
HETATM    7  C   UNL     1     -10.317  15.867  67.060  1.00  0.00    -0.297 C  
HETATM    8  C   UNL     1     -11.118  16.710  68.063  1.00  0.00    -0.255 C  
HETATM    9  C   UNL     1     -11.232  14.953  66.226  1.00  0.00    -0.331 C  
BRANCH   9  10
HETATM   10  C   UNL     1     -12.093  14.062  67.114  1.00  0.00    -0.436 C  
BRANCH  10  11
HETATM   11  C   UNL     1     -11.909  12.586  66.801  1.00  0.00    -0.416 C  
HETATM   12  C   UNL     1     -11.117  11.861  67.905  1.00  0.00    -0.297 C  
HETATM   13  C   UNL     1     -10.822  10.403  67.505  1.00  0.00    -0.358 C  
HETATM   14  C   UNL     1     -11.837  11.894  69.260  1.00  0.00    -0.379 C  
BRANCH  13  15
HETATM   15  C   UNL     1     -10.008  10.242  66.215  1.00  0.00    -0.295 C  
BRANCH  15  16
HETATM   16  C   UNL     1      -9.902   8.786  65.760  1.00  0.00    -0.026 C  
BRANCH  16  17
HETATM   17  C   UNL     1      -8.615   8.146  66.216  1.00  0.00    -0.157 C  
HETATM   18  C   UNL     1      -8.119   8.444  67.433  1.00  0.00    -0.106 C  
HETATM   19  C   UNL     1      -7.986   7.153  65.285  1.00  0.00    -0.127 C  
BRANCH  18  20
HETATM   20  C   UNL     1      -6.903   7.839  68.084  1.00  0.00    -0.068 C  
BRANCH  20  21
HETATM   21  C   UNL     1      -7.058   7.767  69.591  1.00  0.00    -0.063 C  
HETATM   22  C   UNL     1      -6.612   8.704  70.454  1.00  0.00    -0.037 C  
HETATM   23  C   UNL     1      -5.845   9.945  70.081  1.00  0.00    -0.050 C  
HETATM   24  C   UNL     1      -6.879   8.589  71.918  1.00  0.00    -0.090 C  
HETATM   25  O   UNL     1      -6.438   9.413  72.708  1.00  0.00    -0.280 OA 
HETATM   26  C   UNL     1      -7.705   7.470  72.395  1.00  0.00    -0.105 A  
HETATM   27  C   UNL     1      -8.139   6.491  71.513  1.00  0.00    -0.112 A  
HETATM   28  C   UNL     1      -7.776   6.558  70.091  1.00  0.00    -0.102 C  
HETATM   29  C   UNL     1      -8.918   5.424  71.980  1.00  0.00    -0.142 A  
HETATM   30  C   UNL     1      -9.267   5.348  73.330  1.00  0.00    -0.132 A  
HETATM   31  O   UNL     1      -8.080   5.633  69.347  1.00  0.00    -0.097 OA 
HETATM   32  C   UNL     1      -8.835   6.335  74.215  1.00  0.00    -0.147 A  
HETATM   33  C   UNL     1      -8.055   7.395  73.751  1.00  0.00    -0.156 A  
ENDBRANCH  20  21
ENDBRANCH  18  20
ENDBRANCH  16  17
ENDBRANCH  15  16
ENDBRANCH  13  15
ENDBRANCH  10  11
ENDBRANCH   9  10
ENDBRANCH   5   6
ENDBRANCH   4   5
TORSDOF 9
ENDMDL
MODEL      351
REMARK 921   NORMALIZED FREE ENERGY PREDICTED BY IDOCK:   -3.07 KCAL/MOL
REMARK 922        TOTAL FREE ENERGY PREDICTED BY IDOCK:   -7.89 KCAL/MOL
REMARK 923 INTER-LIGAND FREE ENERGY PREDICTED BY IDOCK:   -6.89 KCAL/MOL
REMARK 924 INTRA-LIGAND FREE ENERGY PREDICTED BY IDOCK:   -1.00 KCAL/MOL
REMARK 927      BINDING AFFINITY PREDICTED BY RF-SCORE:    0.00 PKD
ROOT
HETATM    1  C   UNL     1      -6.188  17.943  67.692  1.00  0.00    -0.171 C  
HETATM    2  C   UNL     1      -6.755  16.677  67.054  1.00  0.00    -0.242 C  
HETATM    3  C   UNL     1      -6.395  15.459  67.911  1.00  0.00    -0.170 C  
HETATM    4  C   UNL     1      -8.275  16.835  66.851  1.00  0.00    -0.244 C  
ENDROOT
BRANCH   4   5
HETATM    5  C   UNL     1      -8.891  15.600  66.207  1.00  0.00    -0.364 C  
BRANCH   5   6
HETATM    6  C   UNL     1     -10.105  15.078  66.969  1.00  0.00    -0.244 C  
HETATM    7  C   UNL     1     -10.030  13.553  67.176  1.00  0.00    -0.246 C  
HETATM    8  C   UNL     1      -8.778  13.139  67.964  1.00  0.00    -0.190 C  
HETATM    9  C   UNL     1     -11.320  13.074  67.863  1.00  0.00    -0.327 C  
BRANCH   9  10
HETATM   10  C   UNL     1     -11.303  11.567  68.097  1.00  0.00    -0.367 C  
BRANCH  10  11
HETATM   11  C   UNL     1     -12.357  11.129  69.101  1.00  0.00    -0.107 C  
HETATM   12  C   UNL     1     -12.088  11.711  70.502  1.00  0.00    -0.458 C  
HETATM   13  C   UNL     1     -13.085  11.146  71.533  1.00  0.00    -0.489 C  
HETATM   14  C   UNL     1     -12.134  13.244  70.519  1.00  0.00    -0.391 C  
BRANCH  13  15
HETATM   15  C   UNL     1     -13.056   9.620  71.687  1.00  0.00    -0.503 C  
BRANCH  15  16
HETATM   16  C   UNL     1     -11.662   9.086  72.018  1.00  0.00    -0.417 C  
BRANCH  16  17
HETATM   17  C   UNL     1     -11.338   7.837  71.239  1.00  0.00    -0.289 C  
HETATM   18  C   UNL     1     -10.056   7.436  71.126  1.00  0.00    -0.189 C  
HETATM   19  C   UNL     1     -12.498   7.073  70.672  1.00  0.00    -0.173 C  
BRANCH  18  20
HETATM   20  C   UNL     1      -9.559   6.178  70.464  1.00  0.00    -0.192 C  
BRANCH  20  21
HETATM   21  C   UNL     1      -8.608   6.488  69.326  1.00  0.00    -0.127 C  
HETATM   22  C   UNL     1      -7.363   6.988  69.479  1.00  0.00    -0.094 C  
HETATM   23  C   UNL     1      -6.728   7.369  70.790  1.00  0.00    -0.047 C  
HETATM   24  C   UNL     1      -6.465   7.188  68.304  1.00  0.00    -0.044 C  
HETATM   25  O   UNL     1      -5.353   7.682  68.434  1.00  0.00    -0.025 OA 
HETATM   26  C   UNL     1      -6.937   6.759  66.979  1.00  0.00    -0.070 A  
HETATM   27  C   UNL     1      -8.226   6.274  66.815  1.00  0.00    -0.110 A  
HETATM   28  C   UNL     1      -9.138   6.184  67.964  1.00  0.00    -0.114 C  
HETATM   29  C   UNL     1      -8.669   5.877  65.547  1.00  0.00    -0.133 A  
HETATM   30  C   UNL     1      -7.812   5.960  64.447  1.00  0.00    -0.112 A  
HETATM   31  O   UNL     1     -10.303   5.851  67.784  1.00  0.00    -0.167 OA 
HETATM   32  C   UNL     1      -6.515   6.443  64.612  1.00  0.00    -0.034 A  
HETATM   33  C   UNL     1      -6.076   6.844  65.875  1.00  0.00    -0.035 A  
ENDBRANCH  20  21
ENDBRANCH  18  20
ENDBRANCH  16  17
ENDBRANCH  15  16
ENDBRANCH  13  15
ENDBRANCH  10  11
ENDBRANCH   9  10
ENDBRANCH   5   6
ENDBRANCH   4   5
TORSDOF 9
ENDMDL
MODEL      352
REMARK 921   NORMALIZED FREE ENERGY PREDICTED BY IDOCK:   -3.04 KCAL/MOL
REMARK 922        TOTAL FREE ENERGY PREDICTED BY IDOCK:   -7.84 KCAL/MOL
REMARK 923 INTER-LIGAND FREE ENERGY PREDICTED BY IDOCK:   -7.32 KCAL/MOL
REMARK 924 INTRA-LIGAND FREE ENERGY PREDICTED BY IDOCK:   -0.52 KCAL/MOL
REMARK 927      BINDING AFFINITY PREDICTED BY RF-SCORE:    0.00 PKD
ROOT
HETATM    1  C   UNL     1     -10.645   5.548  73.653  1.00  0.00    -0.316 C  
HETATM    2  C   UNL     1     -10.602   6.366  72.364  1.00  0.00    -0.240 C  
HETATM    3  C   UNL     1     -10.339   7.839  72.693  1.00  0.00    -0.352 C  
HETATM    4  C   UNL     1      -9.550   5.771  71.408  1.00  0.00    -0.188 C  
ENDROOT
BRANCH   4   5
HETATM    5  C   UNL     1      -9.472   6.547  70.100  1.00  0.00    -0.164 C  
BRANCH   5   6
HETATM    6  C   UNL     1      -8.862   5.732  68.963  1.00  0.00    -0.111 C  
HETATM    7  C   UNL     1      -8.149   6.636  67.940  1.00  0.00    -0.113 C  
HETATM    8  C   UNL     1      -7.016   7.452  68.581  1.00  0.00    -0.079 C  
HETATM    9  C   UNL     1      -7.638   5.772  66.774  1.00  0.00    -0.096 C  
BRANCH   9  10
HETATM   10  C   UNL     1      -6.918   6.614  65.726  1.00  0.00    -0.057 C  
BRANCH  10  11
HETATM   11  C   UNL     1      -7.861   7.116  64.645  1.00  0.00    -0.123 C  
HETATM   12  C   UNL     1      -7.096   7.765  63.476  1.00  0.00    -0.075 C  
HETATM   13  C   UNL     1      -8.072   8.390  62.459  1.00  0.00    -0.169 C  
HETATM   14  C   UNL     1      -6.164   6.776  62.764  1.00  0.00    -0.039 C  
BRANCH  13  15
HETATM   15  C   UNL     1      -8.988   9.478  63.032  1.00  0.00    -0.221 C  
BRANCH  15  16
HETATM   16  C   UNL     1      -8.395  10.163  64.265  1.00  0.00    -0.171 C  
BRANCH  16  17
HETATM   17  C   UNL     1      -9.442  10.905  65.056  1.00  0.00    -0.274 C  
HETATM   18  C   UNL     1      -9.940  12.062  64.578  1.00  0.00    -0.239 C  
HETATM   19  C   UNL     1      -9.913  10.261  66.326  1.00  0.00    -0.295 C  
BRANCH  18  20
HETATM   20  C   UNL     1     -11.045  12.887  65.185  1.00  0.00    -0.321 C  
BRANCH  20  21
HETATM   21  C   UNL     1     -10.558  14.271  65.566  1.00  0.00    -0.351 C  
HETATM   22  C   UNL     1     -11.039  15.423  65.051  1.00  0.00    -0.428 C  
HETATM   23  C   UNL     1     -12.094  15.532  63.982  1.00  0.00     0.058 C  
HETATM   24  C   UNL     1     -10.554  16.746  65.544  1.00  0.00    -0.230 C  
HETATM   25  O   UNL     1     -10.955  17.791  65.049  1.00  0.00    -0.784 OA 
HETATM   26  C   UNL     1      -9.594  16.772  66.657  1.00  0.00    -0.274 A  
HETATM   27  C   UNL     1      -9.077  15.590  67.167  1.00  0.00    -0.233 A  
HETATM   28  C   UNL     1      -9.481  14.296  66.598  1.00  0.00    -0.286 C  
HETATM   29  C   UNL     1      -8.156  15.626  68.222  1.00  0.00    -0.134 A  
HETATM   30  C   UNL     1      -7.763  16.849  68.768  1.00  0.00    -0.247 A  
HETATM   31  O   UNL     1      -8.937  13.270  66.990  1.00  0.00    -0.220 OA 
HETATM   32  C   UNL     1      -8.287  18.037  68.260  1.00  0.00    -0.295 A  
HETATM   33  C   UNL     1      -9.201  18.001  67.205  1.00  0.00    -0.255 A  
ENDBRANCH  20  21
ENDBRANCH  18  20
ENDBRANCH  16  17
ENDBRANCH  15  16
ENDBRANCH  13  15
ENDBRANCH  10  11
ENDBRANCH   9  10
ENDBRANCH   5   6
ENDBRANCH   4   5
TORSDOF 9
ENDMDL
MODEL      353
REMARK 921   NORMALIZED FREE ENERGY PREDICTED BY IDOCK:   -3.04 KCAL/MOL
REMARK 922        TOTAL FREE ENERGY PREDICTED BY IDOCK:   -7.84 KCAL/MOL
REMARK 923 INTER-LIGAND FREE ENERGY PREDICTED BY IDOCK:   -4.88 KCAL/MOL
REMARK 924 INTRA-LIGAND FREE ENERGY PREDICTED BY IDOCK:   -2.96 KCAL/MOL
REMARK 927      BINDING AFFINITY PREDICTED BY RF-SCORE:    0.00 PKD
ROOT
HETATM    1  C   UNL     1     -10.395   7.074  73.901  1.00  0.00    -0.386 C  
HETATM    2  C   UNL     1     -10.785   7.184  72.429  1.00  0.00    -0.273 C  
HETATM    3  C   UNL     1     -11.517   5.912  71.990  1.00  0.00    -0.311 C  
HETATM    4  C   UNL     1     -11.619   8.460  72.208  1.00  0.00    -0.453 C  
ENDROOT
BRANCH   4   5
HETATM    5  C   UNL     1     -12.028   8.623  70.750  1.00  0.00    -0.143 C  
BRANCH   5   6
HETATM    6  C   UNL     1     -11.246   9.720  70.035  1.00  0.00    -0.297 C  
HETATM    7  C   UNL     1      -9.788   9.296  69.773  1.00  0.00    -0.202 C  
HETATM    8  C   UNL     1      -9.702   8.030  68.908  1.00  0.00    -0.159 C  
HETATM    9  C   UNL     1      -9.028  10.473  69.137  1.00  0.00    -0.171 C  
BRANCH   9  10
HETATM   10  C   UNL     1      -7.574  10.112  68.852  1.00  0.00    -0.090 C  
BRANCH  10  11
HETATM   11  C   UNL     1      -7.232  10.229  67.375  1.00  0.00    -0.092 C  
HETATM   12  C   UNL     1      -8.474  10.553  66.524  1.00  0.00    -0.139 C  
HETATM   13  C   UNL     1      -8.132  10.531  65.021  1.00  0.00    -0.096 C  
HETATM   14  C   UNL     1      -9.104  11.902  66.895  1.00  0.00    -0.196 C  
BRANCH  13  15
HETATM   15  C   UNL     1      -7.592   9.192  64.504  1.00  0.00    -0.107 C  
BRANCH  15  16
HETATM   16  C   UNL     1      -8.459   8.003  64.922  1.00  0.00    -0.066 C  
BRANCH  16  17
HETATM   17  C   UNL     1      -7.626   6.819  65.341  1.00  0.00    -0.090 C  
HETATM   18  C   UNL     1      -7.321   6.648  66.643  1.00  0.00    -0.078 C  
HETATM   19  C   UNL     1      -7.228   5.855  64.263  1.00  0.00    -0.056 C  
BRANCH  18  20
HETATM   20  C   UNL     1      -6.579   5.486  67.250  1.00  0.00    -0.053 C  
BRANCH  20  21
HETATM   21  C   UNL     1      -7.460   4.701  68.202  1.00  0.00    -0.066 C  
HETATM   22  C   UNL     1      -8.225   3.647  67.848  1.00  0.00    -0.089 C  
HETATM   23  C   UNL     1      -8.375   3.103  66.451  1.00  0.00    -0.100 C  
HETATM   24  C   UNL     1      -9.001   2.883  68.869  1.00  0.00    -0.130 C  
HETATM   25  O   UNL     1      -9.729   1.954  68.545  1.00  0.00    -0.155 OA 
HETATM   26  C   UNL     1      -8.857   3.256  70.284  1.00  0.00    -0.145 A  
HETATM   27  C   UNL     1      -8.096   4.358  70.646  1.00  0.00    -0.067 A  
HETATM   28  C   UNL     1      -7.425   5.167  69.619  1.00  0.00    -0.061 C  
HETATM   29  C   UNL     1      -7.972   4.710  71.996  1.00  0.00    -0.100 A  
HETATM   30  C   UNL     1      -8.608   3.950  72.980  1.00  0.00    -0.095 A  
HETATM   31  O   UNL     1      -6.843   6.195  69.948  1.00  0.00    -0.053 OA 
HETATM   32  C   UNL     1      -9.369   2.840  72.617  1.00  0.00    -0.141 A  
HETATM   33  C   UNL     1      -9.495   2.492  71.271  1.00  0.00    -0.220 A  
ENDBRANCH  20  21
ENDBRANCH  18  20
ENDBRANCH  16  17
ENDBRANCH  15  16
ENDBRANCH  13  15
ENDBRANCH  10  11
ENDBRANCH   9  10
ENDBRANCH   5   6
ENDBRANCH   4   5
TORSDOF 9
ENDMDL
MODEL      354
REMARK 921   NORMALIZED FREE ENERGY PREDICTED BY IDOCK:   -3.04 KCAL/MOL
REMARK 922        TOTAL FREE ENERGY PREDICTED BY IDOCK:   -7.84 KCAL/MOL
REMARK 923 INTER-LIGAND FREE ENERGY PREDICTED BY IDOCK:   -5.97 KCAL/MOL
REMARK 924 INTRA-LIGAND FREE ENERGY PREDICTED BY IDOCK:   -1.86 KCAL/MOL
REMARK 927      BINDING AFFINITY PREDICTED BY RF-SCORE:    0.00 PKD
ROOT
HETATM    1  C   UNL     1      -5.327  15.856  67.342  1.00  0.00    -0.031 C  
HETATM    2  C   UNL     1      -6.790  16.208  67.602  1.00  0.00    -0.176 C  
HETATM    3  C   UNL     1      -6.987  16.543  69.085  1.00  0.00    -0.225 C  
HETATM    4  C   UNL     1      -7.221  17.355  66.669  1.00  0.00    -0.275 C  
ENDROOT
BRANCH   4   5
HETATM    5  C   UNL     1      -8.679  17.740  66.881  1.00  0.00    -0.262 C  
BRANCH   5   6
HETATM    6  C   UNL     1      -9.618  17.088  65.872  1.00  0.00    -0.143 C  
HETATM    7  C   UNL     1     -10.186  15.758  66.405  1.00  0.00    -0.304 C  
HETATM    8  C   UNL     1     -10.974  15.950  67.710  1.00  0.00    -0.315 C  
HETATM    9  C   UNL     1     -11.047  15.104  65.311  1.00  0.00    -0.389 C  
BRANCH   9  10
HETATM   10  C   UNL     1     -11.641  13.781  65.782  1.00  0.00    -0.342 C  
BRANCH  10  11
HETATM   11  C   UNL     1     -10.610  12.663  65.803  1.00  0.00    -0.296 C  
HETATM   12  C   UNL     1     -10.552  11.965  67.175  1.00  0.00    -0.264 C  
HETATM   13  C   UNL     1      -9.410  10.931  67.218  1.00  0.00    -0.168 C  
HETATM   14  C   UNL     1     -11.879  11.291  67.547  1.00  0.00    -0.030 C  
BRANCH  13  15
HETATM   15  C   UNL     1      -8.010  11.507  66.967  1.00  0.00    -0.161 C  
BRANCH  15  16
HETATM   16  C   UNL     1      -6.931  10.427  66.890  1.00  0.00    -0.093 C  
BRANCH  16  17
HETATM   17  C   UNL     1      -6.676   9.789  68.232  1.00  0.00    -0.060 C  
HETATM   18  C   UNL     1      -7.301  10.268  69.326  1.00  0.00    -0.099 C  
HETATM   19  C   UNL     1      -5.763   8.599  68.253  1.00  0.00    -0.038 C  
BRANCH  18  20
HETATM   20  C   UNL     1      -7.234   9.706  70.722  1.00  0.00    -0.072 C  
BRANCH  20  21
HETATM   21  C   UNL     1      -8.126   8.490  70.874  1.00  0.00    -0.140 C  
HETATM   22  C   UNL     1      -9.474   8.514  70.809  1.00  0.00    -0.213 C  
HETATM   23  C   UNL     1     -10.321   9.746  70.628  1.00  0.00    -0.330 C  
HETATM   24  C   UNL     1     -10.270   7.253  70.890  1.00  0.00    -0.196 C  
HETATM   25  O   UNL     1     -11.493   7.275  70.876  1.00  0.00    -0.275 OA 
HETATM   26  C   UNL     1      -9.550   5.973  70.967  1.00  0.00    -0.197 A  
HETATM   27  C   UNL     1      -8.167   5.949  71.064  1.00  0.00    -0.122 A  
HETATM   28  C   UNL     1      -7.402   7.203  71.093  1.00  0.00    -0.075 C  
HETATM   29  C   UNL     1      -7.492   4.724  71.146  1.00  0.00    -0.072 A  
HETATM   30  C   UNL     1      -8.209   3.525  71.123  1.00  0.00    -0.078 A  
HETATM   31  O   UNL     1      -6.192   7.167  71.283  1.00  0.00    -0.036 OA 
HETATM   32  C   UNL     1      -9.599   3.549  71.020  1.00  0.00    -0.243 A  
HETATM   33  C   UNL     1     -10.271   4.770  70.943  1.00  0.00    -0.247 A  
ENDBRANCH  20  21
ENDBRANCH  18  20
ENDBRANCH  16  17
ENDBRANCH  15  16
ENDBRANCH  13  15
ENDBRANCH  10  11
ENDBRANCH   9  10
ENDBRANCH   5   6
ENDBRANCH   4   5
TORSDOF 9
ENDMDL
MODEL      355
REMARK 921   NORMALIZED FREE ENERGY PREDICTED BY IDOCK:   -3.03 KCAL/MOL
REMARK 922        TOTAL FREE ENERGY PREDICTED BY IDOCK:   -7.82 KCAL/MOL
REMARK 923 INTER-LIGAND FREE ENERGY PREDICTED BY IDOCK:   -7.65 KCAL/MOL
REMARK 924 INTRA-LIGAND FREE ENERGY PREDICTED BY IDOCK:   -0.17 KCAL/MOL
REMARK 927      BINDING AFFINITY PREDICTED BY RF-SCORE:    0.00 PKD
ROOT
HETATM    1  C   UNL     1      -7.897   8.795  71.756  1.00  0.00    -0.097 C  
HETATM    2  C   UNL     1      -7.799   7.449  71.042  1.00  0.00    -0.092 C  
HETATM    3  C   UNL     1      -6.440   6.804  71.333  1.00  0.00    -0.042 C  
HETATM    4  C   UNL     1      -8.985   6.556  71.455  1.00  0.00    -0.140 C  
ENDROOT
BRANCH   4   5
HETATM    5  C   UNL     1      -8.940   5.201  70.762  1.00  0.00    -0.162 C  
BRANCH   5   6
HETATM    6  C   UNL     1      -9.646   5.203  69.410  1.00  0.00    -0.225 C  
HETATM    7  C   UNL     1      -8.698   5.649  68.279  1.00  0.00    -0.106 C  
HETATM    8  C   UNL     1      -7.472   4.732  68.158  1.00  0.00    -0.074 C  
HETATM    9  C   UNL     1      -9.488   5.722  66.961  1.00  0.00    -0.131 C  
BRANCH   9  10
HETATM   10  C   UNL     1      -8.600   6.158  65.800  1.00  0.00    -0.153 C  
BRANCH  10  11
HETATM   11  C   UNL     1      -8.674   7.655  65.550  1.00  0.00    -0.079 C  
HETATM   12  C   UNL     1      -7.723   8.094  64.420  1.00  0.00    -0.126 C  
HETATM   13  C   UNL     1      -7.711   9.629  64.276  1.00  0.00    -0.129 C  
HETATM   14  C   UNL     1      -8.074   7.447  63.074  1.00  0.00    -0.048 C  
BRANCH  13  15
HETATM   15  C   UNL     1      -7.268  10.389  65.532  1.00  0.00    -0.138 C  
BRANCH  15  16
HETATM   16  C   UNL     1      -8.020   9.947  66.788  1.00  0.00    -0.116 C  
BRANCH  16  17
HETATM   17  C   UNL     1      -9.402  10.546  66.856  1.00  0.00    -0.181 C  
HETATM   18  C   UNL     1      -9.619  11.778  66.354  1.00  0.00    -0.234 C  
HETATM   19  C   UNL     1     -10.484   9.688  67.444  1.00  0.00    -0.319 C  
BRANCH  18  20
HETATM   20  C   UNL     1     -10.941  12.493  66.259  1.00  0.00    -0.311 C  
BRANCH  20  21
HETATM   21  C   UNL     1     -10.752  13.980  66.035  1.00  0.00    -0.294 C  
HETATM   22  C   UNL     1     -11.309  14.682  65.025  1.00  0.00    -0.390 C  
HETATM   23  C   UNL     1     -12.164  14.107  63.926  1.00  0.00    -0.288 C  
HETATM   24  C   UNL     1     -11.132  16.161  64.927  1.00  0.00    -0.325 C  
HETATM   25  O   UNL     1     -11.599  16.793  63.990  1.00  0.00    -1.195 OA 
HETATM   26  C   UNL     1     -10.400  16.852  65.999  1.00  0.00    -0.335 A  
HETATM   27  C   UNL     1      -9.801  16.130  67.020  1.00  0.00    -0.248 A  
HETATM   28  C   UNL     1      -9.890  14.663  67.044  1.00  0.00    -0.244 C  
HETATM   29  C   UNL     1      -9.098  16.798  68.031  1.00  0.00    -0.228 A  
HETATM   30  C   UNL     1      -9.004  18.191  68.017  1.00  0.00    -0.289 A  
HETATM   31  O   UNL     1      -9.270  14.036  67.895  1.00  0.00    -0.182 OA 
HETATM   32  C   UNL     1      -9.610  18.918  66.993  1.00  0.00    -0.348 A  
HETATM   33  C   UNL     1     -10.306  18.251  65.983  1.00  0.00    -0.377 A  
ENDBRANCH  20  21
ENDBRANCH  18  20
ENDBRANCH  16  17
ENDBRANCH  15  16
ENDBRANCH  13  15
ENDBRANCH  10  11
ENDBRANCH   9  10
ENDBRANCH   5   6
ENDBRANCH   4   5
TORSDOF 9
ENDMDL
MODEL      356
REMARK 921   NORMALIZED FREE ENERGY PREDICTED BY IDOCK:   -3.02 KCAL/MOL
REMARK 922        TOTAL FREE ENERGY PREDICTED BY IDOCK:   -7.82 KCAL/MOL
REMARK 923 INTER-LIGAND FREE ENERGY PREDICTED BY IDOCK:   -7.57 KCAL/MOL
REMARK 924 INTRA-LIGAND FREE ENERGY PREDICTED BY IDOCK:   -0.24 KCAL/MOL
REMARK 927      BINDING AFFINITY PREDICTED BY RF-SCORE:    0.00 PKD
ROOT
HETATM    1  C   UNL     1      -9.366  10.310  65.441  1.00  0.00    -0.258 C  
HETATM    2  C   UNL     1      -9.158   8.805  65.594  1.00  0.00    -0.247 C  
HETATM    3  C   UNL     1      -7.811   8.534  66.271  1.00  0.00    -0.098 C  
HETATM    4  C   UNL     1     -10.346   8.193  66.361  1.00  0.00     0.011 C  
ENDROOT
BRANCH   4   5
HETATM    5  C   UNL     1     -10.192   6.688  66.534  1.00  0.00    -0.129 C  
BRANCH   5   6
HETATM    6  C   UNL     1     -10.920   6.155  67.764  1.00  0.00    -0.400 C  
HETATM    7  C   UNL     1     -10.292   6.688  69.067  1.00  0.00    -0.216 C  
HETATM    8  C   UNL     1     -10.328   8.222  69.139  1.00  0.00    -0.225 C  
HETATM    9  C   UNL     1     -11.005   6.045  70.269  1.00  0.00    -0.412 C  
BRANCH   9  10
HETATM   10  C   UNL     1     -10.427   6.538  71.591  1.00  0.00    -0.241 C  
BRANCH  10  11
HETATM   11  C   UNL     1      -8.930   6.786  71.508  1.00  0.00    -0.137 C  
HETATM   12  C   UNL     1      -8.537   8.132  72.144  1.00  0.00    -0.226 C  
HETATM   13  C   UNL     1      -7.040   8.428  71.927  1.00  0.00    -0.103 C  
HETATM   14  C   UNL     1      -8.868   8.193  73.641  1.00  0.00    -0.296 C  
BRANCH  13  15
HETATM   15  C   UNL     1      -6.605   8.503  70.458  1.00  0.00    -0.037 C  
BRANCH  15  16
HETATM   16  C   UNL     1      -7.532   9.375  69.610  1.00  0.00    -0.084 C  
BRANCH  16  17
HETATM   17  C   UNL     1      -7.048  10.801  69.533  1.00  0.00    -0.132 C  
HETATM   18  C   UNL     1      -7.801  11.726  68.906  1.00  0.00    -0.013 C  
HETATM   19  C   UNL     1      -5.755  11.115  70.226  1.00  0.00    -0.128 C  
BRANCH  18  20
HETATM   20  C   UNL     1      -7.520  13.203  68.808  1.00  0.00    -0.050 C  
BRANCH  20  21
HETATM   21  C   UNL     1      -8.447  13.880  67.818  1.00  0.00    -0.183 C  
HETATM   22  C   UNL     1      -8.145  14.997  67.122  1.00  0.00    -0.245 C  
HETATM   23  C   UNL     1      -6.868  15.786  67.244  1.00  0.00    -0.220 C  
HETATM   24  C   UNL     1      -9.090  15.550  66.109  1.00  0.00    -0.324 C  
HETATM   25  O   UNL     1      -8.838  16.586  65.508  1.00  0.00    -0.325 OA 
HETATM   26  C   UNL     1     -10.329  14.810  65.828  1.00  0.00    -0.358 A  
HETATM   27  C   UNL     1     -10.655  13.680  66.562  1.00  0.00    -0.282 A  
HETATM   28  C   UNL     1      -9.767  13.208  67.633  1.00  0.00    -0.213 C  
HETATM   29  C   UNL     1     -11.843  12.988  66.292  1.00  0.00    -0.466 A  
HETATM   30  C   UNL     1     -12.697  13.428  65.279  1.00  0.00    -0.481 A  
HETATM   31  O   UNL     1     -10.119  12.270  68.340  1.00  0.00    -0.214 OA 
HETATM   32  C   UNL     1     -12.367  14.561  64.537  1.00  0.00    -0.434 A  
HETATM   33  C   UNL     1     -11.186  15.254  64.809  1.00  0.00    -0.405 A  
ENDBRANCH  20  21
ENDBRANCH  18  20
ENDBRANCH  16  17
ENDBRANCH  15  16
ENDBRANCH  13  15
ENDBRANCH  10  11
ENDBRANCH   9  10
ENDBRANCH   5   6
ENDBRANCH   4   5
TORSDOF 9
ENDMDL
MODEL      357
REMARK 921   NORMALIZED FREE ENERGY PREDICTED BY IDOCK:   -3.00 KCAL/MOL
REMARK 922        TOTAL FREE ENERGY PREDICTED BY IDOCK:   -7.77 KCAL/MOL
REMARK 923 INTER-LIGAND FREE ENERGY PREDICTED BY IDOCK:   -8.19 KCAL/MOL
REMARK 924 INTRA-LIGAND FREE ENERGY PREDICTED BY IDOCK:    0.41 KCAL/MOL
REMARK 927      BINDING AFFINITY PREDICTED BY RF-SCORE:    0.00 PKD
ROOT
HETATM    1  C   UNL     1     -12.388   8.440  72.323  1.00  0.00    -0.436 C  
HETATM    2  C   UNL     1     -11.421   7.311  72.673  1.00  0.00    -0.304 C  
HETATM    3  C   UNL     1     -11.624   6.137  71.709  1.00  0.00    -0.333 C  
HETATM    4  C   UNL     1      -9.976   7.845  72.666  1.00  0.00    -0.330 C  
ENDROOT
BRANCH   4   5
HETATM    5  C   UNL     1      -8.969   6.759  73.018  1.00  0.00    -0.142 C  
BRANCH   5   6
HETATM    6  C   UNL     1      -8.628   5.860  71.834  1.00  0.00    -0.137 C  
HETATM    7  C   UNL     1      -8.228   6.686  70.595  1.00  0.00    -0.124 C  
HETATM    8  C   UNL     1      -7.006   7.577  70.866  1.00  0.00    -0.054 C  
HETATM    9  C   UNL     1      -7.987   5.733  69.412  1.00  0.00    -0.097 C  
BRANCH   9  10
HETATM   10  C   UNL     1      -7.585   6.495  68.153  1.00  0.00    -0.103 C  
BRANCH  10  11
HETATM   11  C   UNL     1      -8.483   7.693  67.894  1.00  0.00    -0.123 C  
HETATM   12  C   UNL     1      -9.563   7.381  66.840  1.00  0.00    -0.240 C  
HETATM   13  C   UNL     1     -10.373   8.645  66.491  1.00  0.00    -0.237 C  
HETATM   14  C   UNL     1     -10.511   6.260  67.286  1.00  0.00    -0.316 C  
BRANCH  13  15
HETATM   15  C   UNL     1      -9.544   9.806  65.928  1.00  0.00    -0.313 C  
BRANCH  15  16
HETATM   16  C   UNL     1      -9.431  10.979  66.903  1.00  0.00    -0.197 C  
BRANCH  16  17
HETATM   17  C   UNL     1      -9.962  12.259  66.307  1.00  0.00    -0.249 C  
HETATM   18  C   UNL     1      -9.327  13.421  66.556  1.00  0.00    -0.225 C  
HETATM   19  C   UNL     1     -11.158  12.142  65.410  1.00  0.00    -0.362 C  
BRANCH  18  20
HETATM   20  C   UNL     1      -9.662  14.772  65.980  1.00  0.00    -0.350 C  
BRANCH  20  21
HETATM   21  C   UNL     1      -8.890  15.878  66.674  1.00  0.00    -0.316 C  
HETATM   22  C   UNL     1      -7.854  15.679  67.516  1.00  0.00    -0.184 C  
HETATM   23  C   UNL     1      -7.321  14.339  67.948  1.00  0.00    -0.163 C  
HETATM   24  C   UNL     1      -7.101  16.832  68.092  1.00  0.00    -0.159 C  
HETATM   25  O   UNL     1      -6.189  16.656  68.889  1.00  0.00    -0.145 OA 
HETATM   26  C   UNL     1      -7.464  18.191  67.666  1.00  0.00    -0.218 A  
HETATM   27  C   UNL     1      -8.548  18.398  66.826  1.00  0.00    -0.285 A  
HETATM   28  C   UNL     1      -9.348  17.261  66.352  1.00  0.00    -0.258 C  
HETATM   29  C   UNL     1      -8.890  19.698  66.433  1.00  0.00    -0.419 A  
HETATM   30  C   UNL     1      -8.139  20.787  66.879  1.00  0.00    -0.152 A  
HETATM   31  O   UNL     1     -10.362  17.470  65.695  1.00  0.00    -0.601 OA 
HETATM   32  C   UNL     1      -7.046  20.579  67.720  1.00  0.00    -0.337 A  
HETATM   33  C   UNL     1      -6.708  19.284  68.115  1.00  0.00    -0.276 A  
ENDBRANCH  20  21
ENDBRANCH  18  20
ENDBRANCH  16  17
ENDBRANCH  15  16
ENDBRANCH  13  15
ENDBRANCH  10  11
ENDBRANCH   9  10
ENDBRANCH   5   6
ENDBRANCH   4   5
TORSDOF 9
ENDMDL
MODEL      358
REMARK 921   NORMALIZED FREE ENERGY PREDICTED BY IDOCK:   -2.99 KCAL/MOL
REMARK 922        TOTAL FREE ENERGY PREDICTED BY IDOCK:   -7.77 KCAL/MOL
REMARK 923 INTER-LIGAND FREE ENERGY PREDICTED BY IDOCK:   -7.02 KCAL/MOL
REMARK 924 INTRA-LIGAND FREE ENERGY PREDICTED BY IDOCK:   -0.75 KCAL/MOL
REMARK 927      BINDING AFFINITY PREDICTED BY RF-SCORE:    0.00 PKD
ROOT
HETATM    1  C   UNL     1      -7.845  12.086  67.102  1.00  0.00    -0.168 C  
HETATM    2  C   UNL     1      -6.733  11.223  67.694  1.00  0.00    -0.073 C  
HETATM    3  C   UNL     1      -5.391  11.596  67.056  1.00  0.00    -0.116 C  
HETATM    4  C   UNL     1      -6.726  11.367  69.228  1.00  0.00    -0.113 C  
ENDROOT
BRANCH   4   5
HETATM    5  C   UNL     1      -5.639  10.517  69.871  1.00  0.00    -0.048 C  
BRANCH   5   6
HETATM    6  C   UNL     1      -5.784   9.031  69.556  1.00  0.00    -0.034 C  
HETATM    7  C   UNL     1      -6.043   8.206  70.831  1.00  0.00    -0.033 C  
HETATM    8  C   UNL     1      -7.323   8.650  71.556  1.00  0.00    -0.118 C  
HETATM    9  C   UNL     1      -6.086   6.713  70.464  1.00  0.00    -0.027 C  
BRANCH   9  10
HETATM   10  C   UNL     1      -6.343   5.842  71.689  1.00  0.00    -0.048 C  
BRANCH  10  11
HETATM   11  C   UNL     1      -7.543   4.927  71.504  1.00  0.00    -0.084 C  
HETATM   12  C   UNL     1      -7.199   3.701  70.638  1.00  0.00    -0.037 C  
HETATM   13  C   UNL     1      -8.458   2.861  70.348  1.00  0.00    -0.097 C  
HETATM   14  C   UNL     1      -6.119   2.817  71.276  1.00  0.00    -0.014 C  
BRANCH  13  15
HETATM   15  C   UNL     1      -9.576   3.610  69.610  1.00  0.00    -0.211 C  
BRANCH  15  16
HETATM   16  C   UNL     1     -10.107   4.806  70.401  1.00  0.00    -0.301 C  
BRANCH  16  17
HETATM   17  C   UNL     1     -10.076   6.076  69.589  1.00  0.00    -0.244 C  
HETATM   18  C   UNL     1     -10.609   7.205  70.099  1.00  0.00    -0.247 C  
HETATM   19  C   UNL     1      -9.389   6.012  68.257  1.00  0.00    -0.116 C  
BRANCH  18  20
HETATM   20  C   UNL     1     -10.590   8.574  69.471  1.00  0.00    -0.215 C  
BRANCH  20  21
HETATM   21  C   UNL     1     -11.500   9.535  70.210  1.00  0.00    -0.256 C  
HETATM   22  C   UNL     1     -12.339   9.185  71.208  1.00  0.00    -0.382 C  
HETATM   23  C   UNL     1     -12.554   7.786  71.720  1.00  0.00    -0.356 C  
HETATM   24  C   UNL     1     -13.142  10.213  71.933  1.00  0.00    -0.466 C  
HETATM   25  O   UNL     1     -13.936   9.894  72.808  1.00  0.00    -0.009 OA 
HETATM   26  C   UNL     1     -12.944  11.629  71.589  1.00  0.00    -0.483 A  
HETATM   27  C   UNL     1     -12.105  11.988  70.545  1.00  0.00    -0.402 A  
HETATM   28  C   UNL     1     -11.405  10.957  69.766  1.00  0.00    -0.301 C  
HETATM   29  C   UNL     1     -11.931  13.339  70.220  1.00  0.00    -0.372 A  
HETATM   30  C   UNL     1     -12.594  14.328  70.950  1.00  0.00    -0.426 A  
HETATM   31  O   UNL     1     -10.750  11.285  68.784  1.00  0.00    -0.184 OA 
HETATM   32  C   UNL     1     -13.433  13.967  72.003  1.00  0.00    -0.528 A  
HETATM   33  C   UNL     1     -13.611  12.620  72.324  1.00  0.00    -0.508 A  
ENDBRANCH  20  21
ENDBRANCH  18  20
ENDBRANCH  16  17
ENDBRANCH  15  16
ENDBRANCH  13  15
ENDBRANCH  10  11
ENDBRANCH   9  10
ENDBRANCH   5   6
ENDBRANCH   4   5
TORSDOF 9
ENDMDL
MODEL      359
REMARK 921   NORMALIZED FREE ENERGY PREDICTED BY IDOCK:   -2.99 KCAL/MOL
REMARK 922        TOTAL FREE ENERGY PREDICTED BY IDOCK:   -7.76 KCAL/MOL
REMARK 923 INTER-LIGAND FREE ENERGY PREDICTED BY IDOCK:   -4.40 KCAL/MOL
REMARK 924 INTRA-LIGAND FREE ENERGY PREDICTED BY IDOCK:   -3.36 KCAL/MOL
REMARK 927      BINDING AFFINITY PREDICTED BY RF-SCORE:    0.00 PKD
ROOT
HETATM    1  C   UNL     1     -13.551   8.503  72.173  1.00  0.00    -0.402 C  
HETATM    2  C   UNL     1     -12.273   7.735  71.838  1.00  0.00    -0.341 C  
HETATM    3  C   UNL     1     -11.991   7.830  70.334  1.00  0.00     0.103 C  
HETATM    4  C   UNL     1     -11.110   8.264  72.698  1.00  0.00    -0.400 C  
ENDROOT
BRANCH   4   5
HETATM    5  C   UNL     1      -9.811   7.524  72.409  1.00  0.00    -0.219 C  
BRANCH   5   6
HETATM    6  C   UNL     1      -8.595   8.445  72.396  1.00  0.00    -0.261 C  
HETATM    7  C   UNL     1      -7.821   8.339  71.068  1.00  0.00    -0.097 C  
HETATM    8  C   UNL     1      -8.694   8.712  69.860  1.00  0.00    -0.133 C  
HETATM    9  C   UNL     1      -6.559   9.216  71.150  1.00  0.00    -0.088 C  
BRANCH   9  10
HETATM   10  C   UNL     1      -5.749   9.154  69.858  1.00  0.00    -0.031 C  
BRANCH  10  11
HETATM   11  C   UNL     1      -6.392   9.956  68.738  1.00  0.00    -0.045 C  
HETATM   12  C   UNL     1      -6.510  11.448  69.099  1.00  0.00    -0.085 C  
HETATM   13  C   UNL     1      -7.286  12.218  68.011  1.00  0.00    -0.102 C  
HETATM   14  C   UNL     1      -5.143  12.107  69.328  1.00  0.00    -0.060 C  
BRANCH  13  15
HETATM   15  C   UNL     1      -8.715  11.718  67.766  1.00  0.00    -0.155 C  
BRANCH  15  16
HETATM   16  C   UNL     1      -9.006  11.461  66.287  1.00  0.00    -0.205 C  
BRANCH  16  17
HETATM   17  C   UNL     1      -8.511  10.108  65.843  1.00  0.00    -0.146 C  
HETATM   18  C   UNL     1      -9.165   8.998  66.238  1.00  0.00    -0.258 C  
HETATM   19  C   UNL     1      -7.327  10.090  64.922  1.00  0.00    -0.140 C  
BRANCH  18  20
HETATM   20  C   UNL     1      -8.867   7.581  65.824  1.00  0.00    -0.122 C  
BRANCH  20  21
HETATM   21  C   UNL     1      -8.670   6.681  67.028  1.00  0.00    -0.113 C  
HETATM   22  C   UNL     1      -9.663   6.024  67.666  1.00  0.00    -0.120 C  
HETATM   23  C   UNL     1     -11.128   6.111  67.329  1.00  0.00    -0.334 C  
HETATM   24  C   UNL     1      -9.367   5.095  68.796  1.00  0.00    -0.125 C  
HETATM   25  O   UNL     1     -10.267   4.533  69.405  1.00  0.00    -0.148 OA 
HETATM   26  C   UNL     1      -7.962   4.850  69.154  1.00  0.00    -0.075 A  
HETATM   27  C   UNL     1      -6.944   5.546  68.520  1.00  0.00    -0.064 A  
HETATM   28  C   UNL     1      -7.256   6.540  67.483  1.00  0.00    -0.086 C  
HETATM   29  C   UNL     1      -5.609   5.312  68.875  1.00  0.00    -0.014 A  
HETATM   30  C   UNL     1      -5.300   4.372  69.860  1.00  0.00    -0.008 A  
HETATM   31  O   UNL     1      -6.353   7.218  67.007  1.00  0.00    -0.047 OA 
HETATM   32  C   UNL     1      -6.323   3.669  70.494  1.00  0.00    -0.027 A  
HETATM   33  C   UNL     1      -7.653   3.906  70.144  1.00  0.00    -0.048 A  
ENDBRANCH  20  21
ENDBRANCH  18  20
ENDBRANCH  16  17
ENDBRANCH  15  16
ENDBRANCH  13  15
ENDBRANCH  10  11
ENDBRANCH   9  10
ENDBRANCH   5   6
ENDBRANCH   4   5
TORSDOF 9
ENDMDL
MODEL      360
REMARK 921   NORMALIZED FREE ENERGY PREDICTED BY IDOCK:   -2.98 KCAL/MOL
REMARK 922        TOTAL FREE ENERGY PREDICTED BY IDOCK:   -7.75 KCAL/MOL
REMARK 923 INTER-LIGAND FREE ENERGY PREDICTED BY IDOCK:   -6.85 KCAL/MOL
REMARK 924 INTRA-LIGAND FREE ENERGY PREDICTED BY IDOCK:   -0.90 KCAL/MOL
REMARK 927      BINDING AFFINITY PREDICTED BY RF-SCORE:    0.00 PKD
ROOT
HETATM    1  C   UNL     1      -7.434   6.433  64.861  1.00  0.00    -0.085 C  
HETATM    2  C   UNL     1      -7.906   5.254  65.709  1.00  0.00    -0.099 C  
HETATM    3  C   UNL     1      -7.370   3.944  65.121  1.00  0.00    -0.068 C  
HETATM    4  C   UNL     1      -7.483   5.468  67.175  1.00  0.00    -0.084 C  
ENDROOT
BRANCH   4   5
HETATM    5  C   UNL     1      -7.938   4.322  68.068  1.00  0.00    -0.086 C  
BRANCH   5   6
HETATM    6  C   UNL     1      -8.346   4.783  69.463  1.00  0.00    -0.086 C  
HETATM    7  C   UNL     1      -9.444   5.863  69.402  1.00  0.00    -0.157 C  
HETATM    8  C   UNL     1     -10.711   5.359  68.695  1.00  0.00    -0.088 C  
HETATM    9  C   UNL     1      -9.746   6.355  70.828  1.00  0.00    -0.197 C  
BRANCH   9  10
HETATM   10  C   UNL     1     -10.830   7.427  70.833  1.00  0.00    -0.255 C  
BRANCH  10  11
HETATM   11  C   UNL     1     -10.639   8.444  69.719  1.00  0.00    -0.221 C  
HETATM   12  C   UNL     1      -9.762   9.628  70.170  1.00  0.00    -0.301 C  
HETATM   13  C   UNL     1      -9.694  10.711  69.075  1.00  0.00    -0.214 C  
HETATM   14  C   UNL     1      -8.344   9.193  70.561  1.00  0.00    -0.222 C  
BRANCH  13  15
HETATM   15  C   UNL     1     -11.050  11.306  68.674  1.00  0.00    -0.286 C  
BRANCH  15  16
HETATM   16  C   UNL     1     -11.387  11.069  67.201  1.00  0.00    -0.214 C  
BRANCH  16  17
HETATM   17  C   UNL     1     -11.177  12.308  66.369  1.00  0.00    -0.370 C  
HETATM   18  C   UNL     1     -10.736  13.438  66.957  1.00  0.00    -0.271 C  
HETATM   19  C   UNL     1     -11.427  12.184  64.895  1.00  0.00    -0.379 C  
BRANCH  18  20
HETATM   20  C   UNL     1     -10.390  14.735  66.274  1.00  0.00    -0.305 C  
BRANCH  20  21
HETATM   21  C   UNL     1      -9.376  15.529  67.073  1.00  0.00    -0.239 C  
HETATM   22  C   UNL     1      -8.222  15.029  67.563  1.00  0.00    -0.199 C  
HETATM   23  C   UNL     1      -7.770  13.597  67.448  1.00  0.00    -0.156 C  
HETATM   24  C   UNL     1      -7.244  15.906  68.271  1.00  0.00    -0.116 C  
HETATM   25  O   UNL     1      -6.218  15.447  68.754  1.00  0.00    -0.095 OA 
HETATM   26  C   UNL     1      -7.527  17.346  68.359  1.00  0.00    -0.234 A  
HETATM   27  C   UNL     1      -8.726  17.856  67.883  1.00  0.00    -0.252 A  
HETATM   28  C   UNL     1      -9.729  16.964  67.286  1.00  0.00    -0.251 C  
HETATM   29  C   UNL     1      -8.990  19.229  67.980  1.00  0.00    -0.362 A  
HETATM   30  C   UNL     1      -8.046  20.087  68.548  1.00  0.00    -0.116 A  
HETATM   31  O   UNL     1     -10.822  17.415  66.965  1.00  0.00    -0.209 OA 
HETATM   32  C   UNL     1      -6.839  19.574  69.022  1.00  0.00    -0.384 A  
HETATM   33  C   UNL     1      -6.578  18.206  68.929  1.00  0.00    -0.243 A  
ENDBRANCH  20  21
ENDBRANCH  18  20
ENDBRANCH  16  17
ENDBRANCH  15  16
ENDBRANCH  13  15
ENDBRANCH  10  11
ENDBRANCH   9  10
ENDBRANCH   5   6
ENDBRANCH   4   5
TORSDOF 9
ENDMDL
MODEL      361
REMARK 921   NORMALIZED FREE ENERGY PREDICTED BY IDOCK:   -2.94 KCAL/MOL
REMARK 922        TOTAL FREE ENERGY PREDICTED BY IDOCK:   -7.69 KCAL/MOL
REMARK 923 INTER-LIGAND FREE ENERGY PREDICTED BY IDOCK:   -6.76 KCAL/MOL
REMARK 924 INTRA-LIGAND FREE ENERGY PREDICTED BY IDOCK:   -0.93 KCAL/MOL
REMARK 927      BINDING AFFINITY PREDICTED BY RF-SCORE:    0.00 PKD
ROOT
HETATM    1  C   UNL     1      -6.404  20.296  64.703  1.00  0.00    -0.331 C  
HETATM    2  C   UNL     1      -6.548  19.276  65.831  1.00  0.00    -0.260 C  
HETATM    3  C   UNL     1      -5.386  19.428  66.818  1.00  0.00    -0.163 C  
HETATM    4  C   UNL     1      -7.926  19.435  66.501  1.00  0.00    -0.309 C  
ENDROOT
BRANCH   4   5
HETATM    5  C   UNL     1      -8.125  18.433  67.630  1.00  0.00    -0.257 C  
BRANCH   5   6
HETATM    6  C   UNL     1      -9.595  18.126  67.898  1.00  0.00    -0.290 C  
HETATM    7  C   UNL     1      -9.839  16.611  68.038  1.00  0.00    -0.245 C  
HETATM    8  C   UNL     1      -9.024  16.000  69.188  1.00  0.00    -0.252 C  
HETATM    9  C   UNL     1     -11.347  16.359  68.213  1.00  0.00    -0.241 C  
BRANCH   9  10
HETATM   10  C   UNL     1     -11.652  14.872  68.360  1.00  0.00    -0.348 C  
BRANCH  10  11
HETATM   11  C   UNL     1     -10.973  14.037  67.286  1.00  0.00    -0.303 C  
HETATM   12  C   UNL     1     -11.988  13.190  66.494  1.00  0.00    -0.459 C  
HETATM   13  C   UNL     1     -11.269  12.250  65.506  1.00  0.00    -0.376 C  
HETATM   14  C   UNL     1     -13.011  14.052  65.743  1.00  0.00    -0.297 C  
BRANCH  13  15
HETATM   15  C   UNL     1     -10.294  11.260  66.155  1.00  0.00    -0.300 C  
BRANCH  15  16
HETATM   16  C   UNL     1      -8.978  11.136  65.386  1.00  0.00    -0.154 C  
BRANCH  16  17
HETATM   17  C   UNL     1      -8.826   9.780  64.744  1.00  0.00    -0.239 C  
HETATM   18  C   UNL     1      -8.484   8.720  65.503  1.00  0.00    -0.181 C  
HETATM   19  C   UNL     1      -9.128   9.687  63.277  1.00  0.00    -0.223 C  
BRANCH  18  20
HETATM   20  C   UNL     1      -8.373   7.287  65.052  1.00  0.00    -0.054 C  
BRANCH  20  21
HETATM   21  C   UNL     1      -8.079   6.360  66.215  1.00  0.00    -0.114 C  
HETATM   22  C   UNL     1      -6.912   5.708  66.402  1.00  0.00    -0.060 C  
HETATM   23  C   UNL     1      -5.730   5.745  65.470  1.00  0.00    -0.017 C  
HETATM   24  C   UNL     1      -6.683   4.877  67.620  1.00  0.00    -0.055 C  
HETATM   25  O   UNL     1      -5.643   4.250  67.771  1.00  0.00    -0.019 OA 
HETATM   26  C   UNL     1      -7.728   4.843  68.654  1.00  0.00    -0.077 A  
HETATM   27  C   UNL     1      -8.939   5.488  68.450  1.00  0.00    -0.113 A  
HETATM   28  C   UNL     1      -9.194   6.212  67.197  1.00  0.00    -0.118 C  
HETATM   29  C   UNL     1      -9.931   5.441  69.437  1.00  0.00    -0.280 A  
HETATM   30  C   UNL     1      -9.702   4.754  70.631  1.00  0.00    -0.271 A  
HETATM   31  O   UNL     1     -10.304   6.688  66.991  1.00  0.00    -0.205 OA 
HETATM   32  C   UNL     1      -8.483   4.110  70.838  1.00  0.00    -0.101 A  
HETATM   33  C   UNL     1      -7.496   4.152  69.852  1.00  0.00    -0.049 A  
ENDBRANCH  20  21
ENDBRANCH  18  20
ENDBRANCH  16  17
ENDBRANCH  15  16
ENDBRANCH  13  15
ENDBRANCH  10  11
ENDBRANCH   9  10
ENDBRANCH   5   6
ENDBRANCH   4   5
TORSDOF 9
ENDMDL
MODEL      362
REMARK 921   NORMALIZED FREE ENERGY PREDICTED BY IDOCK:   -2.93 KCAL/MOL
REMARK 922        TOTAL FREE ENERGY PREDICTED BY IDOCK:   -7.68 KCAL/MOL
REMARK 923 INTER-LIGAND FREE ENERGY PREDICTED BY IDOCK:   -6.84 KCAL/MOL
REMARK 924 INTRA-LIGAND FREE ENERGY PREDICTED BY IDOCK:   -0.84 KCAL/MOL
REMARK 927      BINDING AFFINITY PREDICTED BY RF-SCORE:    0.00 PKD
ROOT
HETATM    1  C   UNL     1     -10.854   8.759  71.908  1.00  0.00    -0.431 C  
HETATM    2  C   UNL     1     -11.503   7.553  72.582  1.00  0.00    -0.369 C  
HETATM    3  C   UNL     1     -12.418   6.832  71.586  1.00  0.00    -0.398 C  
HETATM    4  C   UNL     1     -10.412   6.634  73.164  1.00  0.00    -0.277 C  
ENDROOT
BRANCH   4   5
HETATM    5  C   UNL     1     -11.008   5.417  73.858  1.00  0.00    -0.118 C  
BRANCH   5   6
HETATM    6  C   UNL     1     -10.830   4.131  73.056  1.00  0.00    -0.252 C  
HETATM    7  C   UNL     1      -9.700   4.265  72.017  1.00  0.00    -0.227 C  
HETATM    8  C   UNL     1      -8.349   4.590  72.673  1.00  0.00    -0.110 C  
HETATM    9  C   UNL     1      -9.631   2.976  71.180  1.00  0.00    -0.229 C  
BRANCH   9  10
HETATM   10  C   UNL     1      -8.525   3.048  70.132  1.00  0.00    -0.094 C  
BRANCH  10  11
HETATM   11  C   UNL     1      -8.779   4.136  69.102  1.00  0.00    -0.124 C  
HETATM   12  C   UNL     1      -8.230   3.750  67.715  1.00  0.00    -0.091 C  
HETATM   13  C   UNL     1      -8.373   4.919  66.722  1.00  0.00    -0.107 C  
HETATM   14  C   UNL     1      -8.906   2.496  67.146  1.00  0.00    -0.155 C  
BRANCH  13  15
HETATM   15  C   UNL     1      -7.644   6.205  67.131  1.00  0.00    -0.092 C  
BRANCH  15  16
HETATM   16  C   UNL     1      -8.399   7.000  68.197  1.00  0.00    -0.123 C  
BRANCH  16  17
HETATM   17  C   UNL     1      -9.306   8.039  67.588  1.00  0.00    -0.162 C  
HETATM   18  C   UNL     1      -8.769   9.081  66.922  1.00  0.00    -0.132 C  
HETATM   19  C   UNL     1     -10.783   7.810  67.718  1.00  0.00    -0.197 C  
BRANCH  18  20
HETATM   20  C   UNL     1      -9.517  10.159  66.181  1.00  0.00    -0.238 C  
BRANCH  20  21
HETATM   21  C   UNL     1      -9.320  11.516  66.828  1.00  0.00    -0.191 C  
HETATM   22  C   UNL     1      -8.142  12.174  66.888  1.00  0.00    -0.112 C  
HETATM   23  C   UNL     1      -6.824  11.659  66.375  1.00  0.00     0.135 C  
HETATM   24  C   UNL     1      -8.058  13.544  67.475  1.00  0.00    -0.186 C  
HETATM   25  O   UNL     1      -6.985  14.125  67.571  1.00  0.00    -0.180 OA 
HETATM   26  C   UNL     1      -9.298  14.195  67.920  1.00  0.00    -0.204 A  
HETATM   27  C   UNL     1     -10.503  13.508  67.888  1.00  0.00    -0.253 A  
HETATM   28  C   UNL     1     -10.555  12.120  67.409  1.00  0.00    -0.226 C  
HETATM   29  C   UNL     1     -11.678  14.135  68.323  1.00  0.00    -0.383 A  
HETATM   30  C   UNL     1     -11.641  15.453  68.783  1.00  0.00    -0.382 A  
HETATM   31  O   UNL     1     -11.607  11.496  67.483  1.00  0.00    -0.477 OA 
HETATM   32  C   UNL     1     -10.431  16.145  68.812  1.00  0.00    -0.264 A  
HETATM   33  C   UNL     1      -9.260  15.519  68.382  1.00  0.00    -0.191 A  
ENDBRANCH  20  21
ENDBRANCH  18  20
ENDBRANCH  16  17
ENDBRANCH  15  16
ENDBRANCH  13  15
ENDBRANCH  10  11
ENDBRANCH   9  10
ENDBRANCH   5   6
ENDBRANCH   4   5
TORSDOF 9
ENDMDL
MODEL      363
REMARK 921   NORMALIZED FREE ENERGY PREDICTED BY IDOCK:   -2.92 KCAL/MOL
REMARK 922        TOTAL FREE ENERGY PREDICTED BY IDOCK:   -7.66 KCAL/MOL
REMARK 923 INTER-LIGAND FREE ENERGY PREDICTED BY IDOCK:   -7.27 KCAL/MOL
REMARK 924 INTRA-LIGAND FREE ENERGY PREDICTED BY IDOCK:   -0.40 KCAL/MOL
REMARK 927      BINDING AFFINITY PREDICTED BY RF-SCORE:    0.00 PKD
ROOT
HETATM    1  C   UNL     1      -7.135   5.703  64.760  1.00  0.00    -0.060 C  
HETATM    2  C   UNL     1      -7.273   4.449  65.620  1.00  0.00    -0.072 C  
HETATM    3  C   UNL     1      -6.078   3.521  65.380  1.00  0.00    -0.023 C  
HETATM    4  C   UNL     1      -7.430   4.851  67.100  1.00  0.00    -0.086 C  
ENDROOT
BRANCH   4   5
HETATM    5  C   UNL     1      -7.581   3.634  68.003  1.00  0.00    -0.065 C  
BRANCH   5   6
HETATM    6  C   UNL     1      -8.537   3.875  69.167  1.00  0.00    -0.113 C  
HETATM    7  C   UNL     1      -9.482   5.060  68.887  1.00  0.00    -0.195 C  
HETATM    8  C   UNL     1     -10.335   4.833  67.630  1.00  0.00    -0.028 C  
HETATM    9  C   UNL     1     -10.354   5.313  70.128  1.00  0.00    -0.354 C  
BRANCH   9  10
HETATM   10  C   UNL     1     -11.315   6.477  69.910  1.00  0.00    -0.469 C  
BRANCH  10  11
HETATM   11  C   UNL     1     -10.584   7.784  69.648  1.00  0.00    -0.242 C  
HETATM   12  C   UNL     1     -11.292   8.978  70.316  1.00  0.00    -0.202 C  
HETATM   13  C   UNL     1     -10.617  10.308  69.925  1.00  0.00    -0.324 C  
HETATM   14  C   UNL     1     -11.345   8.850  71.843  1.00  0.00    -0.446 C  
BRANCH  13  15
HETATM   15  C   UNL     1     -10.599  10.603  68.420  1.00  0.00    -0.231 C  
BRANCH  15  16
HETATM   16  C   UNL     1      -9.266  10.244  67.763  1.00  0.00    -0.149 C  
BRANCH  16  17
HETATM   17  C   UNL     1      -8.292  11.394  67.800  1.00  0.00    -0.127 C  
HETATM   18  C   UNL     1      -8.750  12.648  67.984  1.00  0.00    -0.190 C  
HETATM   19  C   UNL     1      -6.836  11.052  67.684  1.00  0.00    -0.081 C  
BRANCH  18  20
HETATM   20  C   UNL     1      -7.923  13.898  68.133  1.00  0.00    -0.148 C  
BRANCH  20  21
HETATM   21  C   UNL     1      -8.755  15.144  67.905  1.00  0.00    -0.157 C  
HETATM   22  C   UNL     1     -10.011  15.324  68.366  1.00  0.00    -0.220 C  
HETATM   23  C   UNL     1     -10.816  14.310  69.134  1.00  0.00    -0.264 C  
HETATM   24  C   UNL     1     -10.726  16.618  68.161  1.00  0.00    -0.349 C  
HETATM   25  O   UNL     1     -11.880  16.769  68.538  1.00  0.00     0.155 OA 
HETATM   26  C   UNL     1     -10.006  17.723  67.510  1.00  0.00    -0.324 A  
HETATM   27  C   UNL     1      -8.727  17.530  67.010  1.00  0.00    -0.254 A  
HETATM   28  C   UNL     1      -8.076  16.218  67.122  1.00  0.00    -0.188 C  
HETATM   29  C   UNL     1      -8.054  18.587  66.384  1.00  0.00    -0.295 A  
HETATM   30  C   UNL     1      -8.664  19.838  66.269  1.00  0.00    -0.403 A  
HETATM   31  O   UNL     1      -6.989  16.037  66.584  1.00  0.00    -0.216 OA 
HETATM   32  C   UNL     1      -9.948  20.033  66.777  1.00  0.00    -0.585 A  
HETATM   33  C   UNL     1     -10.620  18.979  67.396  1.00  0.00    -0.559 A  
ENDBRANCH  20  21
ENDBRANCH  18  20
ENDBRANCH  16  17
ENDBRANCH  15  16
ENDBRANCH  13  15
ENDBRANCH  10  11
ENDBRANCH   9  10
ENDBRANCH   5   6
ENDBRANCH   4   5
TORSDOF 9
ENDMDL
MODEL      364
REMARK 921   NORMALIZED FREE ENERGY PREDICTED BY IDOCK:   -2.92 KCAL/MOL
REMARK 922        TOTAL FREE ENERGY PREDICTED BY IDOCK:   -7.66 KCAL/MOL
REMARK 923 INTER-LIGAND FREE ENERGY PREDICTED BY IDOCK:   -6.65 KCAL/MOL
REMARK 924 INTRA-LIGAND FREE ENERGY PREDICTED BY IDOCK:   -1.01 KCAL/MOL
REMARK 927      BINDING AFFINITY PREDICTED BY RF-SCORE:    0.00 PKD
ROOT
HETATM    1  C   UNL     1      -5.829  18.250  67.157  1.00  0.00    -0.160 C  
HETATM    2  C   UNL     1      -7.019  17.903  68.049  1.00  0.00    -0.202 C  
HETATM    3  C   UNL     1      -6.601  17.973  69.522  1.00  0.00    -0.140 C  
HETATM    4  C   UNL     1      -8.203  18.832  67.719  1.00  0.00    -0.285 C  
ENDROOT
BRANCH   4   5
HETATM    5  C   UNL     1      -9.422  18.520  68.577  1.00  0.00    -0.375 C  
BRANCH   5   6
HETATM    6  C   UNL     1     -10.379  17.536  67.911  1.00  0.00    -0.371 C  
HETATM    7  C   UNL     1     -10.367  16.169  68.621  1.00  0.00    -0.252 C  
HETATM    8  C   UNL     1     -10.776  16.281  70.098  1.00  0.00    -0.246 C  
HETATM    9  C   UNL     1     -11.277  15.195  67.852  1.00  0.00    -0.334 C  
BRANCH   9  10
HETATM   10  C   UNL     1     -11.307  13.819  68.511  1.00  0.00    -0.318 C  
BRANCH  10  11
HETATM   11  C   UNL     1     -11.190  12.693  67.496  1.00  0.00    -0.335 C  
HETATM   12  C   UNL     1     -10.749  11.373  68.156  1.00  0.00    -0.241 C  
HETATM   13  C   UNL     1     -10.503  10.282  67.095  1.00  0.00    -0.311 C  
HETATM   14  C   UNL     1     -11.760  10.870  69.195  1.00  0.00    -0.397 C  
BRANCH  13  15
HETATM   15  C   UNL     1      -9.427  10.626  66.057  1.00  0.00    -0.233 C  
BRANCH  15  16
HETATM   16  C   UNL     1      -9.643   9.912  64.722  1.00  0.00    -0.339 C  
BRANCH  16  17
HETATM   17  C   UNL     1      -8.757   8.701  64.581  1.00  0.00    -0.065 C  
HETATM   18  C   UNL     1      -8.593   7.871  65.631  1.00  0.00    -0.159 C  
HETATM   19  C   UNL     1      -8.147   8.461  63.232  1.00  0.00    -0.151 C  
BRANCH  18  20
HETATM   20  C   UNL     1      -7.821   6.578  65.646  1.00  0.00    -0.100 C  
BRANCH  20  21
HETATM   21  C   UNL     1      -7.939   5.877  66.985  1.00  0.00    -0.102 C  
HETATM   22  C   UNL     1      -7.755   6.473  68.182  1.00  0.00    -0.105 C  
HETATM   23  C   UNL     1      -7.355   7.909  68.394  1.00  0.00    -0.101 C  
HETATM   24  C   UNL     1      -7.969   5.723  69.455  1.00  0.00    -0.097 C  
HETATM   25  O   UNL     1      -7.761   6.247  70.541  1.00  0.00    -0.097 OA 
HETATM   26  C   UNL     1      -8.459   4.339  69.379  1.00  0.00    -0.094 A  
HETATM   27  C   UNL     1      -8.620   3.716  68.151  1.00  0.00    -0.117 A  
HETATM   28  C   UNL     1      -8.300   4.431  66.908  1.00  0.00    -0.101 C  
HETATM   29  C   UNL     1      -9.078   2.394  68.091  1.00  0.00    -0.225 A  
HETATM   30  C   UNL     1      -9.383   1.702  69.265  1.00  0.00    -0.171 A  
HETATM   31  O   UNL     1      -8.348   3.833  65.839  1.00  0.00    -0.107 OA 
HETATM   32  C   UNL     1      -9.227   2.330  70.500  1.00  0.00    -0.192 A  
HETATM   33  C   UNL     1      -8.765   3.646  70.560  1.00  0.00    -0.124 A  
ENDBRANCH  20  21
ENDBRANCH  18  20
ENDBRANCH  16  17
ENDBRANCH  15  16
ENDBRANCH  13  15
ENDBRANCH  10  11
ENDBRANCH   9  10
ENDBRANCH   5   6
ENDBRANCH   4   5
TORSDOF 9
ENDMDL
MODEL      365
REMARK 921   NORMALIZED FREE ENERGY PREDICTED BY IDOCK:   -2.91 KCAL/MOL
REMARK 922        TOTAL FREE ENERGY PREDICTED BY IDOCK:   -7.65 KCAL/MOL
REMARK 923 INTER-LIGAND FREE ENERGY PREDICTED BY IDOCK:   -5.95 KCAL/MOL
REMARK 924 INTRA-LIGAND FREE ENERGY PREDICTED BY IDOCK:   -1.70 KCAL/MOL
REMARK 927      BINDING AFFINITY PREDICTED BY RF-SCORE:    0.00 PKD
ROOT
HETATM    1  C   UNL     1     -10.278   4.534  70.970  1.00  0.00    -0.167 C  
HETATM    2  C   UNL     1      -8.981   4.842  70.224  1.00  0.00    -0.147 C  
HETATM    3  C   UNL     1      -7.780   4.519  71.119  1.00  0.00    -0.076 C  
HETATM    4  C   UNL     1      -8.955   4.073  68.890  1.00  0.00    -0.168 C  
ENDROOT
BRANCH   4   5
HETATM    5  C   UNL     1      -7.683   4.352  68.100  1.00  0.00    -0.079 C  
BRANCH   5   6
HETATM    6  C   UNL     1      -7.580   5.802  67.637  1.00  0.00    -0.089 C  
HETATM    7  C   UNL     1      -7.335   5.893  66.118  1.00  0.00    -0.081 C  
HETATM    8  C   UNL     1      -8.462   5.231  65.311  1.00  0.00    -0.147 C  
HETATM    9  C   UNL     1      -7.146   7.369  65.727  1.00  0.00    -0.065 C  
BRANCH   9  10
HETATM   10  C   UNL     1      -6.901   7.525  64.230  1.00  0.00    -0.052 C  
BRANCH  10  11
HETATM   11  C   UNL     1      -7.933   8.425  63.569  1.00  0.00    -0.159 C  
HETATM   12  C   UNL     1      -7.702   9.908  63.913  1.00  0.00    -0.140 C  
HETATM   13  C   UNL     1      -8.835  10.787  63.349  1.00  0.00    -0.161 C  
HETATM   14  C   UNL     1      -6.345  10.422  63.413  1.00  0.00    -0.084 C  
BRANCH  13  15
HETATM   15  C   UNL     1     -10.237  10.438  63.863  1.00  0.00    -0.050 C  
BRANCH  15  16
HETATM   16  C   UNL     1     -10.926  11.619  64.549  1.00  0.00    -0.376 C  
BRANCH  16  17
HETATM   17  C   UNL     1     -10.367  11.874  65.926  1.00  0.00    -0.277 C  
HETATM   18  C   UNL     1      -9.491  12.881  66.112  1.00  0.00    -0.161 C  
HETATM   19  C   UNL     1     -10.878  11.004  67.036  1.00  0.00    -0.334 C  
BRANCH  18  20
HETATM   20  C   UNL     1      -8.901  13.333  67.422  1.00  0.00    -0.204 C  
BRANCH  20  21
HETATM   21  C   UNL     1      -9.236  14.782  67.711  1.00  0.00    -0.194 C  
HETATM   22  C   UNL     1     -10.444  15.224  68.122  1.00  0.00    -0.246 C  
HETATM   23  C   UNL     1     -11.670  14.372  68.312  1.00  0.00    -0.376 C  
HETATM   24  C   UNL     1     -10.662  16.662  68.459  1.00  0.00    -0.351 C  
HETATM   25  O   UNL     1     -11.766  17.074  68.789  1.00  0.00     0.292 OA 
HETATM   26  C   UNL     1      -9.512  17.577  68.408  1.00  0.00    -0.292 A  
HETATM   27  C   UNL     1      -8.279  17.131  67.957  1.00  0.00    -0.216 A  
HETATM   28  C   UNL     1      -8.105  15.738  67.524  1.00  0.00    -0.159 C  
HETATM   29  C   UNL     1      -7.192  18.014  67.904  1.00  0.00    -0.222 A  
HETATM   30  C   UNL     1      -7.345  19.341  68.311  1.00  0.00    -0.329 A  
HETATM   31  O   UNL     1      -7.038  15.388  67.033  1.00  0.00    -0.195 OA 
HETATM   32  C   UNL     1      -8.584  19.788  68.768  1.00  0.00    -0.195 A  
HETATM   33  C   UNL     1      -9.668  18.910  68.816  1.00  0.00    -0.454 A  
ENDBRANCH  20  21
ENDBRANCH  18  20
ENDBRANCH  16  17
ENDBRANCH  15  16
ENDBRANCH  13  15
ENDBRANCH  10  11
ENDBRANCH   9  10
ENDBRANCH   5   6
ENDBRANCH   4   5
TORSDOF 9
ENDMDL
MODEL      366
REMARK 921   NORMALIZED FREE ENERGY PREDICTED BY IDOCK:   -2.91 KCAL/MOL
REMARK 922        TOTAL FREE ENERGY PREDICTED BY IDOCK:   -7.64 KCAL/MOL
REMARK 923 INTER-LIGAND FREE ENERGY PREDICTED BY IDOCK:   -7.00 KCAL/MOL
REMARK 924 INTRA-LIGAND FREE ENERGY PREDICTED BY IDOCK:   -0.64 KCAL/MOL
REMARK 927      BINDING AFFINITY PREDICTED BY RF-SCORE:    0.00 PKD
ROOT
HETATM    1  C   UNL     1      -8.376   7.991  73.504  1.00  0.00    -0.292 C  
HETATM    2  C   UNL     1      -9.584   7.669  72.627  1.00  0.00    -0.235 C  
HETATM    3  C   UNL     1     -10.730   7.141  73.496  1.00  0.00    -0.375 C  
HETATM    4  C   UNL     1      -9.978   8.915  71.810  1.00  0.00    -0.397 C  
ENDROOT
BRANCH   4   5
HETATM    5  C   UNL     1     -11.175   8.644  70.909  1.00  0.00    -0.311 C  
BRANCH   5   6
HETATM    6  C   UNL     1     -12.441   9.358  71.374  1.00  0.00    -0.435 C  
HETATM    7  C   UNL     1     -12.254  10.887  71.389  1.00  0.00    -0.332 C  
HETATM    8  C   UNL     1     -11.899  11.439  70.000  1.00  0.00    -0.440 C  
HETATM    9  C   UNL     1     -13.526  11.544  71.954  1.00  0.00    -0.275 C  
BRANCH   9  10
HETATM   10  C   UNL     1     -13.402  13.064  71.991  1.00  0.00    -0.588 C  
BRANCH  10  11
HETATM   11  C   UNL     1     -12.323  13.576  71.050  1.00  0.00    -0.422 C  
HETATM   12  C   UNL     1     -12.612  15.013  70.578  1.00  0.00    -0.420 C  
HETATM   13  C   UNL     1     -11.584  15.462  69.521  1.00  0.00    -0.346 C  
HETATM   14  C   UNL     1     -12.640  16.017  71.737  1.00  0.00    -0.405 C  
BRANCH  13  15
HETATM   15  C   UNL     1     -11.539  14.594  68.257  1.00  0.00    -0.353 C  
BRANCH  15  16
HETATM   16  C   UNL     1     -11.060  15.365  67.027  1.00  0.00    -0.273 C  
BRANCH  16  17
HETATM   17  C   UNL     1      -9.555  15.443  66.962  1.00  0.00    -0.227 C  
HETATM   18  C   UNL     1      -8.824  14.321  67.118  1.00  0.00    -0.243 C  
HETATM   19  C   UNL     1      -8.959  16.787  66.665  1.00  0.00    -0.278 C  
BRANCH  18  20
HETATM   20  C   UNL     1      -7.328  14.197  66.998  1.00  0.00     0.367 C  
BRANCH  20  21
HETATM   21  C   UNL     1      -6.796  13.059  67.847  1.00  0.00    -0.130 C  
HETATM   22  C   UNL     1      -6.629  13.113  69.186  1.00  0.00    -0.104 C  
HETATM   23  C   UNL     1      -6.890  14.316  70.053  1.00  0.00     0.022 C  
HETATM   24  C   UNL     1      -6.174  11.915  69.951  1.00  0.00    -0.139 C  
HETATM   25  O   UNL     1      -5.979  11.973  71.158  1.00  0.00    -0.314 OA 
HETATM   26  C   UNL     1      -5.982  10.650  69.227  1.00  0.00    -0.042 A  
HETATM   27  C   UNL     1      -6.124  10.601  67.849  1.00  0.00    -0.050 A  
HETATM   28  C   UNL     1      -6.466  11.814  67.093  1.00  0.00    -0.146 C  
HETATM   29  C   UNL     1      -5.929   9.393  67.168  1.00  0.00    -0.049 A  
HETATM   30  C   UNL     1      -5.601   8.234  67.874  1.00  0.00    -0.035 A  
HETATM   31  O   UNL     1      -6.486  11.776  65.868  1.00  0.00     0.331 OA 
HETATM   32  C   UNL     1      -5.464   8.282  69.261  1.00  0.00    -0.031 A  
HETATM   33  C   UNL     1      -5.652   9.488  69.939  1.00  0.00    -0.032 A  
ENDBRANCH  20  21
ENDBRANCH  18  20
ENDBRANCH  16  17
ENDBRANCH  15  16
ENDBRANCH  13  15
ENDBRANCH  10  11
ENDBRANCH   9  10
ENDBRANCH   5   6
ENDBRANCH   4   5
TORSDOF 9
ENDMDL
MODEL      367
REMARK 921   NORMALIZED FREE ENERGY PREDICTED BY IDOCK:   -2.90 KCAL/MOL
REMARK 922        TOTAL FREE ENERGY PREDICTED BY IDOCK:   -7.63 KCAL/MOL
REMARK 923 INTER-LIGAND FREE ENERGY PREDICTED BY IDOCK:   -6.01 KCAL/MOL
REMARK 924 INTRA-LIGAND FREE ENERGY PREDICTED BY IDOCK:   -1.62 KCAL/MOL
REMARK 927      BINDING AFFINITY PREDICTED BY RF-SCORE:    0.00 PKD
ROOT
HETATM    1  C   UNL     1     -10.919   5.439  73.517  1.00  0.00    -0.323 C  
HETATM    2  C   UNL     1     -11.179   6.111  72.170  1.00  0.00    -0.335 C  
HETATM    3  C   UNL     1     -10.631   7.542  72.190  1.00  0.00    -0.262 C  
HETATM    4  C   UNL     1     -10.574   5.255  71.039  1.00  0.00    -0.240 C  
ENDROOT
BRANCH   4   5
HETATM    5  C   UNL     1     -10.814   5.877  69.670  1.00  0.00    -0.444 C  
BRANCH   5   6
HETATM    6  C   UNL     1     -10.342   4.988  68.524  1.00  0.00    -0.094 C  
HETATM    7  C   UNL     1      -9.316   5.712  67.632  1.00  0.00    -0.111 C  
HETATM    8  C   UNL     1      -8.071   6.147  68.421  1.00  0.00    -0.108 C  
HETATM    9  C   UNL     1      -8.949   4.804  66.446  1.00  0.00    -0.113 C  
BRANCH   9  10
HETATM   10  C   UNL     1      -7.931   5.468  65.525  1.00  0.00    -0.111 C  
BRANCH  10  11
HETATM   11  C   UNL     1      -8.595   6.247  64.401  1.00  0.00     0.221 C  
HETATM   12  C   UNL     1      -7.557   6.905  63.472  1.00  0.00    -0.101 C  
HETATM   13  C   UNL     1      -8.247   7.801  62.424  1.00  0.00    -0.125 C  
HETATM   14  C   UNL     1      -6.663   5.876  62.769  1.00  0.00    -0.039 C  
BRANCH  13  15
HETATM   15  C   UNL     1      -9.089   8.943  63.008  1.00  0.00     0.374 C  
BRANCH  15  16
HETATM   16  C   UNL     1      -8.341   9.742  64.076  1.00  0.00    -0.169 C  
BRANCH  16  17
HETATM   17  C   UNL     1      -9.282  10.349  65.086  1.00  0.00    -0.250 C  
HETATM   18  C   UNL     1      -9.613  11.651  64.988  1.00  0.00    -0.187 C  
HETATM   19  C   UNL     1      -9.844   9.426  66.127  1.00  0.00    -0.356 C  
BRANCH  18  20
HETATM   20  C   UNL     1     -10.598  12.398  65.849  1.00  0.00    -0.289 C  
BRANCH  20  21
HETATM   21  C   UNL     1     -10.044  13.738  66.291  1.00  0.00    -0.304 C  
HETATM   22  C   UNL     1      -8.959  13.898  67.080  1.00  0.00    -0.251 C  
HETATM   23  C   UNL     1      -8.151  12.786  67.694  1.00  0.00    -0.175 C  
HETATM   24  C   UNL     1      -8.437  15.259  67.400  1.00  0.00    -0.179 C  
HETATM   25  O   UNL     1      -7.481  15.409  68.150  1.00  0.00    -0.108 OA 
HETATM   26  C   UNL     1      -9.083  16.424  66.777  1.00  0.00    -0.259 A  
HETATM   27  C   UNL     1     -10.214  16.263  65.991  1.00  0.00    -0.376 A  
HETATM   28  C   UNL     1     -10.784  14.926  65.773  1.00  0.00    -0.331 C  
HETATM   29  C   UNL     1     -10.827  17.380  65.410  1.00  0.00     0.018 A  
HETATM   30  C   UNL     1     -10.297  18.656  65.612  1.00  0.00    -0.066 A  
HETATM   31  O   UNL     1     -11.840  14.813  65.163  1.00  0.00    -0.359 OA 
HETATM   32  C   UNL     1      -9.156  18.817  66.398  1.00  0.00    -0.305 A  
HETATM   33  C   UNL     1      -8.549  17.704  66.981  1.00  0.00    -0.252 A  
ENDBRANCH  20  21
ENDBRANCH  18  20
ENDBRANCH  16  17
ENDBRANCH  15  16
ENDBRANCH  13  15
ENDBRANCH  10  11
ENDBRANCH   9  10
ENDBRANCH   5   6
ENDBRANCH   4   5
TORSDOF 9
ENDMDL
MODEL      368
REMARK 921   NORMALIZED FREE ENERGY PREDICTED BY IDOCK:   -2.89 KCAL/MOL
REMARK 922        TOTAL FREE ENERGY PREDICTED BY IDOCK:   -7.61 KCAL/MOL
REMARK 923 INTER-LIGAND FREE ENERGY PREDICTED BY IDOCK:   -5.89 KCAL/MOL
REMARK 924 INTRA-LIGAND FREE ENERGY PREDICTED BY IDOCK:   -1.72 KCAL/MOL
REMARK 927      BINDING AFFINITY PREDICTED BY RF-SCORE:    0.00 PKD
ROOT
HETATM    1  C   UNL     1      -8.399   4.702  72.989  1.00  0.00    -0.100 C  
HETATM    2  C   UNL     1      -8.833   4.049  71.678  1.00  0.00    -0.144 C  
HETATM    3  C   UNL     1      -9.904   2.989  71.957  1.00  0.00    -0.242 C  
HETATM    4  C   UNL     1      -9.308   5.133  70.691  1.00  0.00    -0.211 C  
ENDROOT
BRANCH   4   5
HETATM    5  C   UNL     1      -9.745   4.534  69.361  1.00  0.00    -0.272 C  
BRANCH   5   6
HETATM    6  C   UNL     1      -8.654   4.595  68.297  1.00  0.00    -0.105 C  
HETATM    7  C   UNL     1      -9.233   4.397  66.882  1.00  0.00    -0.150 C  
HETATM    8  C   UNL     1     -10.278   5.468  66.532  1.00  0.00    -0.273 C  
HETATM    9  C   UNL     1      -8.079   4.374  65.865  1.00  0.00    -0.102 C  
BRANCH   9  10
HETATM   10  C   UNL     1      -8.592   4.184  64.441  1.00  0.00    -0.115 C  
BRANCH  10  11
HETATM   11  C   UNL     1      -8.480   5.454  63.615  1.00  0.00    -0.059 C  
HETATM   12  C   UNL     1      -7.075   6.079  63.714  1.00  0.00    -0.056 C  
HETATM   13  C   UNL     1      -7.023   7.435  62.983  1.00  0.00    -0.067 C  
HETATM   14  C   UNL     1      -5.981   5.151  63.170  1.00  0.00    -0.017 C  
BRANCH  13  15
HETATM   15  C   UNL     1      -8.002   8.490  63.513  1.00  0.00    -0.161 C  
BRANCH  15  16
HETATM   16  C   UNL     1      -8.570   8.132  64.887  1.00  0.00    -0.039 C  
BRANCH  16  17
HETATM   17  C   UNL     1      -8.159   9.126  65.943  1.00  0.00    -0.111 C  
HETATM   18  C   UNL     1      -8.667   9.024  67.187  1.00  0.00    -0.123 C  
HETATM   19  C   UNL     1      -7.144  10.156  65.544  1.00  0.00    -0.138 C  
BRANCH  18  20
HETATM   20  C   UNL     1      -8.306   9.869  68.381  1.00  0.00    -0.107 C  
BRANCH  20  21
HETATM   21  C   UNL     1      -9.501  10.650  68.890  1.00  0.00    -0.199 C  
HETATM   22  C   UNL     1     -10.462  10.146  69.693  1.00  0.00    -0.282 C  
HETATM   23  C   UNL     1     -10.542   8.722  70.176  1.00  0.00    -0.237 C  
HETATM   24  C   UNL     1     -11.563  11.011  70.210  1.00  0.00    -0.322 C  
HETATM   25  O   UNL     1     -12.459  10.548  70.902  1.00  0.00    -0.325 OA 
HETATM   26  C   UNL     1     -11.538  12.446  69.889  1.00  0.00    -0.260 A  
HETATM   27  C   UNL     1     -10.568  12.959  69.040  1.00  0.00    -0.079 A  
HETATM   28  C   UNL     1      -9.555  12.075  68.449  1.00  0.00    -0.190 C  
HETATM   29  C   UNL     1     -10.559  14.326  68.732  1.00  0.00    -0.255 A  
HETATM   30  C   UNL     1     -11.519  15.176  69.286  1.00  0.00    -0.327 A  
HETATM   31  O   UNL     1      -8.770  12.525  67.622  1.00  0.00    -0.158 OA 
HETATM   32  C   UNL     1     -12.491  14.661  70.143  1.00  0.00    -0.369 A  
HETATM   33  C   UNL     1     -12.503  13.298  70.445  1.00  0.00    -0.295 A  
ENDBRANCH  20  21
ENDBRANCH  18  20
ENDBRANCH  16  17
ENDBRANCH  15  16
ENDBRANCH  13  15
ENDBRANCH  10  11
ENDBRANCH   9  10
ENDBRANCH   5   6
ENDBRANCH   4   5
TORSDOF 9
ENDMDL
MODEL      369
REMARK 921   NORMALIZED FREE ENERGY PREDICTED BY IDOCK:   -2.87 KCAL/MOL
REMARK 922        TOTAL FREE ENERGY PREDICTED BY IDOCK:   -7.58 KCAL/MOL
REMARK 923 INTER-LIGAND FREE ENERGY PREDICTED BY IDOCK:   -4.43 KCAL/MOL
REMARK 924 INTRA-LIGAND FREE ENERGY PREDICTED BY IDOCK:   -3.15 KCAL/MOL
REMARK 927      BINDING AFFINITY PREDICTED BY RF-SCORE:    0.00 PKD
ROOT
HETATM    1  C   UNL     1      -7.835  12.236  68.354  1.00  0.00    -0.151 C  
HETATM    2  C   UNL     1      -6.792  11.148  68.600  1.00  0.00    -0.070 C  
HETATM    3  C   UNL     1      -5.631  11.309  67.613  1.00  0.00    -0.047 C  
HETATM    4  C   UNL     1      -6.335  11.191  70.071  1.00  0.00    -0.147 C  
ENDROOT
BRANCH   4   5
HETATM    5  C   UNL     1      -5.298  10.117  70.373  1.00  0.00    -0.050 C  
BRANCH   5   6
HETATM    6  C   UNL     1      -5.810   8.706  70.102  1.00  0.00    -0.027 C  
HETATM    7  C   UNL     1      -5.969   7.902  71.407  1.00  0.00    -0.034 C  
HETATM    8  C   UNL     1      -6.953   8.570  72.379  1.00  0.00    -0.081 C  
HETATM    9  C   UNL     1      -6.396   6.465  71.064  1.00  0.00    -0.048 C  
BRANCH   9  10
HETATM   10  C   UNL     1      -6.572   5.618  72.320  1.00  0.00    -0.062 C  
BRANCH  10  11
HETATM   11  C   UNL     1      -8.037   5.410  72.672  1.00  0.00    -0.106 C  
HETATM   12  C   UNL     1      -8.759   4.542  71.625  1.00  0.00    -0.133 C  
HETATM   13  C   UNL     1     -10.268   4.458  71.925  1.00  0.00    -0.216 C  
HETATM   14  C   UNL     1      -8.168   3.130  71.525  1.00  0.00    -0.069 C  
BRANCH  13  15
HETATM   15  C   UNL     1     -10.997   5.807  71.943  1.00  0.00    -0.318 C  
BRANCH  15  16
HETATM   16  C   UNL     1     -11.323   6.322  70.541  1.00  0.00    -0.428 C  
BRANCH  16  17
HETATM   17  C   UNL     1     -10.524   7.553  70.193  1.00  0.00    -0.226 C  
HETATM   18  C   UNL     1      -9.683   7.524  69.140  1.00  0.00    -0.166 C  
HETATM   19  C   UNL     1     -10.765   8.775  71.028  1.00  0.00    -0.290 C  
BRANCH  18  20
HETATM   20  C   UNL     1      -8.878   8.676  68.597  1.00  0.00    -0.142 C  
BRANCH  20  21
HETATM   21  C   UNL     1      -8.699   8.569  67.096  1.00  0.00    -0.134 C  
HETATM   22  C   UNL     1      -9.358   9.321  66.189  1.00  0.00    -0.270 C  
HETATM   23  C   UNL     1     -10.412  10.348  66.503  1.00  0.00    -0.262 C  
HETATM   24  C   UNL     1      -9.059   9.202  64.731  1.00  0.00    -0.099 C  
HETATM   25  O   UNL     1      -9.686   9.850  63.903  1.00  0.00    -0.186 OA 
HETATM   26  C   UNL     1      -7.977   8.303  64.307  1.00  0.00    -0.148 A  
HETATM   27  C   UNL     1      -7.319   7.508  65.234  1.00  0.00    -0.072 A  
HETATM   28  C   UNL     1      -7.698   7.554  66.653  1.00  0.00    -0.101 C  
HETATM   29  C   UNL     1      -6.295   6.647  64.818  1.00  0.00    -0.038 A  
HETATM   30  C   UNL     1      -5.928   6.593  63.472  1.00  0.00    -0.034 A  
HETATM   31  O   UNL     1      -7.179   6.772  67.441  1.00  0.00    -0.084 OA 
HETATM   32  C   UNL     1      -6.586   7.395  62.540  1.00  0.00    -0.069 A  
HETATM   33  C   UNL     1      -7.609   8.249  62.954  1.00  0.00    -0.121 A  
ENDBRANCH  20  21
ENDBRANCH  18  20
ENDBRANCH  16  17
ENDBRANCH  15  16
ENDBRANCH  13  15
ENDBRANCH  10  11
ENDBRANCH   9  10
ENDBRANCH   5   6
ENDBRANCH   4   5
TORSDOF 9
ENDMDL
MODEL      370
REMARK 921   NORMALIZED FREE ENERGY PREDICTED BY IDOCK:   -2.87 KCAL/MOL
REMARK 922        TOTAL FREE ENERGY PREDICTED BY IDOCK:   -7.58 KCAL/MOL
REMARK 923 INTER-LIGAND FREE ENERGY PREDICTED BY IDOCK:   -4.99 KCAL/MOL
REMARK 924 INTRA-LIGAND FREE ENERGY PREDICTED BY IDOCK:   -2.59 KCAL/MOL
REMARK 927      BINDING AFFINITY PREDICTED BY RF-SCORE:    0.00 PKD
ROOT
HETATM    1  C   UNL     1     -11.808  12.631  67.375  1.00  0.00    -0.393 C  
HETATM    2  C   UNL     1     -10.864  12.605  66.175  1.00  0.00    -0.301 C  
HETATM    3  C   UNL     1      -9.939  13.826  66.217  1.00  0.00    -0.312 C  
HETATM    4  C   UNL     1     -10.092  11.272  66.151  1.00  0.00    -0.279 C  
ENDROOT
BRANCH   4   5
HETATM    5  C   UNL     1      -9.140  11.191  64.965  1.00  0.00    -0.138 C  
BRANCH   5   6
HETATM    6  C   UNL     1      -8.165  10.022  65.067  1.00  0.00    -0.148 C  
HETATM    7  C   UNL     1      -8.647   8.811  64.245  1.00  0.00    -0.093 C  
HETATM    8  C   UNL     1      -8.804   9.151  62.755  1.00  0.00    -0.151 C  
HETATM    9  C   UNL     1      -7.676   7.638  64.461  1.00  0.00    -0.126 C  
BRANCH   9  10
HETATM   10  C   UNL     1      -8.100   6.406  63.667  1.00  0.00    -0.029 C  
BRANCH  10  11
HETATM   11  C   UNL     1      -8.031   5.135  64.498  1.00  0.00    -0.106 C  
HETATM   12  C   UNL     1      -8.324   5.407  65.985  1.00  0.00    -0.120 C  
HETATM   13  C   UNL     1      -8.113   4.134  66.829  1.00  0.00    -0.101 C  
HETATM   14  C   UNL     1      -9.738   5.955  66.214  1.00  0.00    -0.132 C  
BRANCH  13  15
HETATM   15  C   UNL     1      -6.696   3.550  66.769  1.00  0.00    -0.049 C  
BRANCH  15  16
HETATM   16  C   UNL     1      -5.614   4.592  67.053  1.00  0.00    -0.014 C  
BRANCH  16  17
HETATM   17  C   UNL     1      -5.738   5.169  68.441  1.00  0.00    -0.016 C  
HETATM   18  C   UNL     1      -6.001   6.482  68.594  1.00  0.00    -0.021 C  
HETATM   19  C   UNL     1      -5.614   4.209  69.587  1.00  0.00    -0.016 C  
BRANCH  18  20
HETATM   20  C   UNL     1      -6.243   7.208  69.891  1.00  0.00    -0.027 C  
BRANCH  20  21
HETATM   21  C   UNL     1      -7.720   7.270  70.225  1.00  0.00    -0.094 C  
HETATM   22  C   UNL     1      -8.634   7.985  69.534  1.00  0.00    -0.136 C  
HETATM   23  C   UNL     1      -8.340   8.877  68.357  1.00  0.00    -0.125 C  
HETATM   24  C   UNL     1     -10.083   7.925  69.888  1.00  0.00    -0.197 C  
HETATM   25  O   UNL     1     -10.907   8.605  69.292  1.00  0.00    -0.180 OA 
HETATM   26  C   UNL     1     -10.507   7.010  70.958  1.00  0.00    -0.231 A  
HETATM   27  C   UNL     1      -9.567   6.298  71.687  1.00  0.00    -0.167 A  
HETATM   28  C   UNL     1      -8.133   6.450  71.402  1.00  0.00    -0.113 C  
HETATM   29  C   UNL     1      -9.981   5.436  72.711  1.00  0.00    -0.197 A  
HETATM   30  C   UNL     1     -11.340   5.285  72.994  1.00  0.00    -0.376 A  
HETATM   31  O   UNL     1      -7.313   5.894  72.122  1.00  0.00    -0.090 OA 
HETATM   32  C   UNL     1     -12.286   5.997  72.257  1.00  0.00    -0.125 A  
HETATM   33  C   UNL     1     -11.872   6.860  71.240  1.00  0.00    -0.385 A  
ENDBRANCH  20  21
ENDBRANCH  18  20
ENDBRANCH  16  17
ENDBRANCH  15  16
ENDBRANCH  13  15
ENDBRANCH  10  11
ENDBRANCH   9  10
ENDBRANCH   5   6
ENDBRANCH   4   5
TORSDOF 9
ENDMDL
MODEL      371
REMARK 921   NORMALIZED FREE ENERGY PREDICTED BY IDOCK:   -2.86 KCAL/MOL
REMARK 922        TOTAL FREE ENERGY PREDICTED BY IDOCK:   -7.56 KCAL/MOL
REMARK 923 INTER-LIGAND FREE ENERGY PREDICTED BY IDOCK:   -6.71 KCAL/MOL
REMARK 924 INTRA-LIGAND FREE ENERGY PREDICTED BY IDOCK:   -0.85 KCAL/MOL
REMARK 927      BINDING AFFINITY PREDICTED BY RF-SCORE:    0.00 PKD
ROOT
HETATM    1  C   UNL     1      -8.008   3.251  67.138  1.00  0.00    -0.079 C  
HETATM    2  C   UNL     1      -9.005   3.258  68.295  1.00  0.00    -0.188 C  
HETATM    3  C   UNL     1      -9.616   1.862  68.461  1.00  0.00    -0.151 C  
HETATM    4  C   UNL     1      -8.311   3.762  69.574  1.00  0.00    -0.079 C  
ENDROOT
BRANCH   4   5
HETATM    5  C   UNL     1      -9.266   3.797  70.760  1.00  0.00    -0.202 C  
BRANCH   5   6
HETATM    6  C   UNL     1      -8.980   4.948  71.718  1.00  0.00    -0.155 C  
HETATM    7  C   UNL     1      -9.828   6.190  71.379  1.00  0.00    -0.200 C  
HETATM    8  C   UNL     1     -11.334   5.896  71.449  1.00  0.00    -0.247 C  
HETATM    9  C   UNL     1      -9.429   7.343  72.316  1.00  0.00    -0.180 C  
BRANCH   9  10
HETATM   10  C   UNL     1     -10.239   8.603  72.029  1.00  0.00    -0.407 C  
BRANCH  10  11
HETATM   11  C   UNL     1     -10.253   8.954  70.550  1.00  0.00    -0.247 C  
HETATM   12  C   UNL     1      -9.158   9.978  70.196  1.00  0.00    -0.063 C  
HETATM   13  C   UNL     1      -9.276  10.423  68.725  1.00  0.00    -0.172 C  
HETATM   14  C   UNL     1      -7.745   9.443  70.466  1.00  0.00    -0.177 C  
BRANCH  13  15
HETATM   15  C   UNL     1     -10.614  11.078  68.357  1.00  0.00    -0.224 C  
BRANCH  15  16
HETATM   16  C   UNL     1     -11.200  10.532  67.054  1.00  0.00    -0.068 C  
BRANCH  16  17
HETATM   17  C   UNL     1     -10.873  11.416  65.877  1.00  0.00    -0.292 C  
HETATM   18  C   UNL     1     -10.647  12.730  66.073  1.00  0.00    -0.289 C  
HETATM   19  C   UNL     1     -10.763  10.747  64.538  1.00  0.00    -0.147 C  
BRANCH  18  20
HETATM   20  C   UNL     1     -10.226  13.738  65.036  1.00  0.00    -0.370 C  
BRANCH  20  21
HETATM   21  C   UNL     1      -9.915  15.082  65.663  1.00  0.00    -0.387 C  
HETATM   22  C   UNL     1     -10.500  16.247  65.312  1.00  0.00    -0.324 C  
HETATM   23  C   UNL     1     -11.514  16.421  64.213  1.00  0.00     0.120 C  
HETATM   24  C   UNL     1     -10.189  17.513  66.040  1.00  0.00    -0.299 C  
HETATM   25  O   UNL     1     -10.684  18.578  65.695  1.00  0.00    -0.549 OA 
HETATM   26  C   UNL     1      -9.287  17.453  67.199  1.00  0.00    -0.246 A  
HETATM   27  C   UNL     1      -8.663  16.263  67.543  1.00  0.00    -0.192 A  
HETATM   28  C   UNL     1      -8.893  15.047  66.750  1.00  0.00    -0.268 C  
HETATM   29  C   UNL     1      -7.798  16.219  68.644  1.00  0.00    -0.202 A  
HETATM   30  C   UNL     1      -7.569  17.368  69.403  1.00  0.00     0.164 A  
HETATM   31  O   UNL     1      -8.254  14.032  67.005  1.00  0.00    -0.158 OA 
HETATM   32  C   UNL     1      -8.201  18.563  69.061  1.00  0.00    -0.108 A  
HETATM   33  C   UNL     1      -9.059  18.608  67.960  1.00  0.00    -0.327 A  
ENDBRANCH  20  21
ENDBRANCH  18  20
ENDBRANCH  16  17
ENDBRANCH  15  16
ENDBRANCH  13  15
ENDBRANCH  10  11
ENDBRANCH   9  10
ENDBRANCH   5   6
ENDBRANCH   4   5
TORSDOF 9
ENDMDL
MODEL      372
REMARK 921   NORMALIZED FREE ENERGY PREDICTED BY IDOCK:   -2.84 KCAL/MOL
REMARK 922        TOTAL FREE ENERGY PREDICTED BY IDOCK:   -7.54 KCAL/MOL
REMARK 923 INTER-LIGAND FREE ENERGY PREDICTED BY IDOCK:   -6.45 KCAL/MOL
REMARK 924 INTRA-LIGAND FREE ENERGY PREDICTED BY IDOCK:   -1.09 KCAL/MOL
REMARK 927      BINDING AFFINITY PREDICTED BY RF-SCORE:    0.00 PKD
ROOT
HETATM    1  C   UNL     1      -8.709   6.507  73.192  1.00  0.00    -0.128 C  
HETATM    2  C   UNL     1      -9.380   5.803  72.015  1.00  0.00    -0.163 C  
HETATM    3  C   UNL     1     -10.728   5.224  72.457  1.00  0.00    -0.290 C  
HETATM    4  C   UNL     1      -9.509   6.781  70.832  1.00  0.00    -0.159 C  
ENDROOT
BRANCH   4   5
HETATM    5  C   UNL     1     -10.166   6.124  69.625  1.00  0.00    -0.255 C  
BRANCH   5   6
HETATM    6  C   UNL     1      -9.183   5.319  68.780  1.00  0.00    -0.145 C  
HETATM    7  C   UNL     1      -9.902   4.555  67.652  1.00  0.00    -0.181 C  
HETATM    8  C   UNL     1     -10.656   5.500  66.704  1.00  0.00    -0.365 C  
HETATM    9  C   UNL     1      -8.876   3.691  66.897  1.00  0.00    -0.140 C  
BRANCH   9  10
HETATM   10  C   UNL     1      -9.530   2.910  65.762  1.00  0.00     0.011 C  
BRANCH  10  11
HETATM   11  C   UNL     1      -9.192   3.486  64.397  1.00  0.00    -0.134 C  
HETATM   12  C   UNL     1      -7.703   3.298  64.050  1.00  0.00    -0.076 C  
HETATM   13  C   UNL     1      -7.352   4.008  62.728  1.00  0.00    -0.049 C  
HETATM   14  C   UNL     1      -7.302   1.819  63.969  1.00  0.00    -0.056 C  
BRANCH  13  15
HETATM   15  C   UNL     1      -7.608   5.521  62.723  1.00  0.00    -0.068 C  
BRANCH  15  16
HETATM   16  C   UNL     1      -8.033   6.053  64.092  1.00  0.00    -0.119 C  
BRANCH  16  17
HETATM   17  C   UNL     1      -7.449   7.415  64.372  1.00  0.00    -0.100 C  
HETATM   18  C   UNL     1      -8.082   8.248  65.222  1.00  0.00    -0.142 C  
HETATM   19  C   UNL     1      -6.140   7.739  63.714  1.00  0.00    -0.058 C  
BRANCH  18  20
HETATM   20  C   UNL     1      -7.604   9.600  65.683  1.00  0.00    -0.107 C  
BRANCH  20  21
HETATM   21  C   UNL     1      -8.680  10.654  65.520  1.00  0.00    -0.199 C  
HETATM   22  C   UNL     1      -9.308  10.937  64.358  1.00  0.00    -0.256 C  
HETATM   23  C   UNL     1      -9.016  10.297  63.027  1.00  0.00    -0.252 C  
HETATM   24  C   UNL     1     -10.413  11.939  64.307  1.00  0.00    -0.326 C  
HETATM   25  O   UNL     1     -10.955  12.229  63.249  1.00  0.00    -0.432 OA 
HETATM   26  C   UNL     1     -10.857  12.559  65.564  1.00  0.00    -0.312 A  
HETATM   27  C   UNL     1     -10.193  12.293  66.752  1.00  0.00    -0.229 A  
HETATM   28  C   UNL     1      -9.036  11.388  66.770  1.00  0.00    -0.176 C  
HETATM   29  C   UNL     1     -10.619  12.896  67.942  1.00  0.00    -0.232 A  
HETATM   30  C   UNL     1     -11.716  13.760  67.938  1.00  0.00    -0.395 A  
HETATM   31  O   UNL     1      -8.399  11.244  67.807  1.00  0.00    -0.119 OA 
HETATM   32  C   UNL     1     -12.387  14.025  66.744  1.00  0.00    -0.368 A  
HETATM   33  C   UNL     1     -11.959  13.427  65.557  1.00  0.00    -0.433 A  
ENDBRANCH  20  21
ENDBRANCH  18  20
ENDBRANCH  16  17
ENDBRANCH  15  16
ENDBRANCH  13  15
ENDBRANCH  10  11
ENDBRANCH   9  10
ENDBRANCH   5   6
ENDBRANCH   4   5
TORSDOF 9
ENDMDL
MODEL      373
REMARK 921   NORMALIZED FREE ENERGY PREDICTED BY IDOCK:   -2.81 KCAL/MOL
REMARK 922        TOTAL FREE ENERGY PREDICTED BY IDOCK:   -7.49 KCAL/MOL
REMARK 923 INTER-LIGAND FREE ENERGY PREDICTED BY IDOCK:   -6.14 KCAL/MOL
REMARK 924 INTRA-LIGAND FREE ENERGY PREDICTED BY IDOCK:   -1.35 KCAL/MOL
REMARK 927      BINDING AFFINITY PREDICTED BY RF-SCORE:    0.00 PKD
ROOT
HETATM    1  C   UNL     1      -9.533   9.536  65.417  1.00  0.00    -0.336 C  
HETATM    2  C   UNL     1      -8.507   8.445  65.715  1.00  0.00    -0.169 C  
HETATM    3  C   UNL     1      -7.300   9.052  66.438  1.00  0.00    -0.088 C  
HETATM    4  C   UNL     1      -9.174   7.311  66.517  1.00  0.00    -0.195 C  
ENDROOT
BRANCH   4   5
HETATM    5  C   UNL     1      -8.194   6.190  66.834  1.00  0.00    -0.106 C  
BRANCH   5   6
HETATM    6  C   UNL     1      -8.588   5.391  68.073  1.00  0.00    -0.100 C  
HETATM    7  C   UNL     1      -8.470   6.240  69.354  1.00  0.00    -0.125 C  
HETATM    8  C   UNL     1      -9.368   7.485  69.305  1.00  0.00    -0.151 C  
HETATM    9  C   UNL     1      -8.788   5.357  70.573  1.00  0.00    -0.148 C  
BRANCH   9  10
HETATM   10  C   UNL     1      -8.690   6.145  71.875  1.00  0.00    -0.137 C  
BRANCH  10  11
HETATM   11  C   UNL     1      -7.342   6.830  72.033  1.00  0.00    -0.088 C  
HETATM   12  C   UNL     1      -7.478   8.215  72.693  1.00  0.00    -0.156 C  
HETATM   13  C   UNL     1      -6.122   8.949  72.717  1.00  0.00    -0.020 C  
HETATM   14  C   UNL     1      -8.052   8.134  74.113  1.00  0.00    -0.312 C  
BRANCH  13  15
HETATM   15  C   UNL     1      -5.495   9.188  71.338  1.00  0.00    -0.051 C  
BRANCH  15  16
HETATM   16  C   UNL     1      -6.534   9.509  70.263  1.00  0.00    -0.071 C  
BRANCH  16  17
HETATM   17  C   UNL     1      -6.603  10.987  69.972  1.00  0.00    -0.134 C  
HETATM   18  C   UNL     1      -7.554  11.457  69.139  1.00  0.00    -0.038 C  
HETATM   19  C   UNL     1      -5.620  11.865  70.688  1.00  0.00    -0.149 C  
BRANCH  18  20
HETATM   20  C   UNL     1      -7.825  12.900  68.804  1.00  0.00     0.040 C  
BRANCH  20  21
HETATM   21  C   UNL     1      -9.042  13.043  67.912  1.00  0.00    -0.207 C  
HETATM   22  C   UNL     1     -10.117  12.227  67.944  1.00  0.00    -0.200 C  
HETATM   23  C   UNL     1     -10.272  11.015  68.824  1.00  0.00    -0.211 C  
HETATM   24  C   UNL     1     -11.307  12.490  67.082  1.00  0.00    -0.324 C  
HETATM   25  O   UNL     1     -12.265  11.728  67.076  1.00  0.00    -0.425 OA 
HETATM   26  C   UNL     1     -11.317  13.702  66.250  1.00  0.00    -0.325 A  
HETATM   27  C   UNL     1     -10.202  14.525  66.193  1.00  0.00    -0.317 A  
HETATM   28  C   UNL     1      -8.995  14.194  66.963  1.00  0.00    -0.237 C  
HETATM   29  C   UNL     1     -10.218  15.672  65.390  1.00  0.00    -0.401 A  
HETATM   30  C   UNL     1     -11.358  15.996  64.651  1.00  0.00    -0.312 A  
HETATM   31  O   UNL     1      -7.985  14.874  66.822  1.00  0.00    -0.120 OA 
HETATM   32  C   UNL     1     -12.481  15.172  64.712  1.00  0.00     0.009 A  
HETATM   33  C   UNL     1     -12.463  14.025  65.509  1.00  0.00    -0.533 A  
ENDBRANCH  20  21
ENDBRANCH  18  20
ENDBRANCH  16  17
ENDBRANCH  15  16
ENDBRANCH  13  15
ENDBRANCH  10  11
ENDBRANCH   9  10
ENDBRANCH   5   6
ENDBRANCH   4   5
TORSDOF 9
ENDMDL
MODEL      374
REMARK 921   NORMALIZED FREE ENERGY PREDICTED BY IDOCK:   -2.77 KCAL/MOL
REMARK 922        TOTAL FREE ENERGY PREDICTED BY IDOCK:   -7.44 KCAL/MOL
REMARK 923 INTER-LIGAND FREE ENERGY PREDICTED BY IDOCK:   -6.97 KCAL/MOL
REMARK 924 INTRA-LIGAND FREE ENERGY PREDICTED BY IDOCK:   -0.46 KCAL/MOL
REMARK 927      BINDING AFFINITY PREDICTED BY RF-SCORE:    0.00 PKD
ROOT
HETATM    1  C   UNL     1      -5.440  17.347  70.296  1.00  0.00    -0.244 C  
HETATM    2  C   UNL     1      -6.019  16.265  69.388  1.00  0.00    -0.157 C  
HETATM    3  C   UNL     1      -6.249  14.981  70.192  1.00  0.00    -0.154 C  
HETATM    4  C   UNL     1      -7.304  16.786  68.715  1.00  0.00    -0.227 C  
ENDROOT
BRANCH   4   5
HETATM    5  C   UNL     1      -7.919  15.745  67.789  1.00  0.00    -0.155 C  
BRANCH   5   6
HETATM    6  C   UNL     1      -9.345  15.372  68.182  1.00  0.00    -0.197 C  
HETATM    7  C   UNL     1      -9.695  13.936  67.742  1.00  0.00    -0.225 C  
HETATM    8  C   UNL     1      -8.756  12.896  68.371  1.00  0.00    -0.119 C  
HETATM    9  C   UNL     1     -11.168  13.651  68.080  1.00  0.00    -0.303 C  
BRANCH   9  10
HETATM   10  C   UNL     1     -11.574  12.240  67.669  1.00  0.00    -0.421 C  
BRANCH  10  11
HETATM   11  C   UNL     1     -12.213  11.469  68.813  1.00  0.00    -0.071 C  
HETATM   12  C   UNL     1     -11.919  12.121  70.177  1.00  0.00    -0.394 C  
HETATM   13  C   UNL     1     -12.457  11.251  71.330  1.00  0.00    -0.441 C  
HETATM   14  C   UNL     1     -12.490  13.541  70.284  1.00  0.00    -0.309 C  
BRANCH  13  15
HETATM   15  C   UNL     1     -11.873   9.834  71.394  1.00  0.00    -0.488 C  
BRANCH  15  16
HETATM   16  C   UNL     1     -10.539   9.710  70.657  1.00  0.00    -0.386 C  
BRANCH  16  17
HETATM   17  C   UNL     1     -10.482   8.470  69.801  1.00  0.00    -0.220 C  
HETATM   18  C   UNL     1     -11.236   7.402  70.127  1.00  0.00    -0.239 C  
HETATM   19  C   UNL     1      -9.610   8.529  68.582  1.00  0.00    -0.153 C  
BRANCH  18  20
HETATM   20  C   UNL     1     -11.371   6.121  69.346  1.00  0.00    -0.401 C  
BRANCH  20  21
HETATM   21  C   UNL     1     -10.244   5.158  69.661  1.00  0.00    -0.337 C  
HETATM   22  C   UNL     1      -9.939   4.711  70.899  1.00  0.00    -0.273 C  
HETATM   23  C   UNL     1     -10.624   5.128  72.173  1.00  0.00    -0.273 C  
HETATM   24  C   UNL     1      -8.861   3.700  71.106  1.00  0.00    -0.082 C  
HETATM   25  O   UNL     1      -8.553   3.326  72.230  1.00  0.00    -0.081 OA 
HETATM   26  C   UNL     1      -8.186   3.141  69.926  1.00  0.00    -0.067 A  
HETATM   27  C   UNL     1      -8.477   3.621  68.657  1.00  0.00    -0.104 A  
HETATM   28  C   UNL     1      -9.463   4.695  68.477  1.00  0.00    -0.147 C  
HETATM   29  C   UNL     1      -7.821   3.088  67.540  1.00  0.00    -0.076 A  
HETATM   30  C   UNL     1      -6.880   2.069  67.699  1.00  0.00    -0.039 A  
HETATM   31  O   UNL     1      -9.632   5.177  67.363  1.00  0.00    -0.126 OA 
HETATM   32  C   UNL     1      -6.591   1.583  68.974  1.00  0.00    -0.029 A  
HETATM   33  C   UNL     1      -7.241   2.118  70.087  1.00  0.00    -0.033 A  
ENDBRANCH  20  21
ENDBRANCH  18  20
ENDBRANCH  16  17
ENDBRANCH  15  16
ENDBRANCH  13  15
ENDBRANCH  10  11
ENDBRANCH   9  10
ENDBRANCH   5   6
ENDBRANCH   4   5
TORSDOF 9
ENDMDL
MODEL      375
REMARK 921   NORMALIZED FREE ENERGY PREDICTED BY IDOCK:   -2.76 KCAL/MOL
REMARK 922        TOTAL FREE ENERGY PREDICTED BY IDOCK:   -7.42 KCAL/MOL
REMARK 923 INTER-LIGAND FREE ENERGY PREDICTED BY IDOCK:   -7.33 KCAL/MOL
REMARK 924 INTRA-LIGAND FREE ENERGY PREDICTED BY IDOCK:   -0.09 KCAL/MOL
REMARK 927      BINDING AFFINITY PREDICTED BY RF-SCORE:    0.00 PKD
ROOT
HETATM    1  C   UNL     1      -7.489   8.232  74.566  1.00  0.00    -0.273 C  
HETATM    2  C   UNL     1      -8.240   7.230  73.693  1.00  0.00    -0.155 C  
HETATM    3  C   UNL     1      -9.464   6.701  74.448  1.00  0.00    -0.279 C  
HETATM    4  C   UNL     1      -8.607   7.886  72.348  1.00  0.00    -0.198 C  
ENDROOT
BRANCH   4   5
HETATM    5  C   UNL     1      -9.352   6.924  71.433  1.00  0.00    -0.156 C  
BRANCH   5   6
HETATM    6  C   UNL     1     -10.775   7.381  71.125  1.00  0.00    -0.246 C  
HETATM    7  C   UNL     1     -10.937   8.900  71.330  1.00  0.00    -0.363 C  
HETATM    8  C   UNL     1      -9.989   9.708  70.431  1.00  0.00    -0.330 C  
HETATM    9  C   UNL     1     -12.408   9.284  71.096  1.00  0.00    -0.363 C  
BRANCH   9  10
HETATM   10  C   UNL     1     -12.632  10.781  71.283  1.00  0.00    -0.532 C  
BRANCH  10  11
HETATM   11  C   UNL     1     -11.971  11.603  70.188  1.00  0.00    -0.441 C  
HETATM   12  C   UNL     1     -12.633  12.985  70.032  1.00  0.00     0.024 C  
HETATM   13  C   UNL     1     -12.042  13.746  68.829  1.00  0.00    -0.344 C  
HETATM   14  C   UNL     1     -12.511  13.840  71.300  1.00  0.00    -0.428 C  
BRANCH  13  15
HETATM   15  C   UNL     1     -12.201  13.037  67.478  1.00  0.00    -0.127 C  
BRANCH  15  16
HETATM   16  C   UNL     1     -11.331  13.653  66.381  1.00  0.00    -0.331 C  
BRANCH  16  17
HETATM   17  C   UNL     1      -9.911  13.149  66.440  1.00  0.00    -0.282 C  
HETATM   18  C   UNL     1      -9.646  11.867  66.118  1.00  0.00    -0.250 C  
HETATM   19  C   UNL     1      -8.853  14.147  66.808  1.00  0.00    -0.190 C  
BRANCH  18  20
HETATM   20  C   UNL     1      -8.288  11.220  66.037  1.00  0.00    -0.071 C  
BRANCH  20  21
HETATM   21  C   UNL     1      -8.397   9.739  65.732  1.00  0.00    -0.132 C  
HETATM   22  C   UNL     1      -7.721   9.105  64.750  1.00  0.00    -0.111 C  
HETATM   23  C   UNL     1      -6.791   9.760  63.764  1.00  0.00    -0.119 C  
HETATM   24  C   UNL     1      -7.830   7.627  64.574  1.00  0.00    -0.134 C  
HETATM   25  O   UNL     1      -7.254   7.056  63.658  1.00  0.00    -0.060 OA 
HETATM   26  C   UNL     1      -8.632   6.862  65.540  1.00  0.00    -0.087 A  
HETATM   27  C   UNL     1      -9.350   7.514  66.530  1.00  0.00    -0.231 A  
HETATM   28  C   UNL     1      -9.322   8.980  66.626  1.00  0.00    -0.177 C  
HETATM   29  C   UNL     1     -10.118   6.776  67.440  1.00  0.00    -0.225 A  
HETATM   30  C   UNL     1     -10.156   5.382  67.358  1.00  0.00    -0.223 A  
HETATM   31  O   UNL     1     -10.042   9.545  67.440  1.00  0.00    -0.181 OA 
HETATM   32  C   UNL     1      -9.429   4.726  66.365  1.00  0.00    -0.159 A  
HETATM   33  C   UNL     1      -8.668   5.462  65.456  1.00  0.00    -0.154 A  
ENDBRANCH  20  21
ENDBRANCH  18  20
ENDBRANCH  16  17
ENDBRANCH  15  16
ENDBRANCH  13  15
ENDBRANCH  10  11
ENDBRANCH   9  10
ENDBRANCH   5   6
ENDBRANCH   4   5
TORSDOF 9
ENDMDL
MODEL      376
REMARK 921   NORMALIZED FREE ENERGY PREDICTED BY IDOCK:   -2.72 KCAL/MOL
REMARK 922        TOTAL FREE ENERGY PREDICTED BY IDOCK:   -7.35 KCAL/MOL
REMARK 923 INTER-LIGAND FREE ENERGY PREDICTED BY IDOCK:   -6.85 KCAL/MOL
REMARK 924 INTRA-LIGAND FREE ENERGY PREDICTED BY IDOCK:   -0.50 KCAL/MOL
REMARK 927      BINDING AFFINITY PREDICTED BY RF-SCORE:    0.00 PKD
ROOT
HETATM    1  C   UNL     1     -13.763  13.365  72.256  1.00  0.00    -0.705 C  
HETATM    2  C   UNL     1     -13.144  14.361  71.279  1.00  0.00    -0.421 C  
HETATM    3  C   UNL     1     -12.807  15.664  72.012  1.00  0.00    -0.518 C  
HETATM    4  C   UNL     1     -11.917  13.725  70.597  1.00  0.00    -0.340 C  
ENDROOT
BRANCH   4   5
HETATM    5  C   UNL     1     -11.265  14.677  69.604  1.00  0.00    -0.307 C  
BRANCH   5   6
HETATM    6  C   UNL     1     -11.998  14.733  68.267  1.00  0.00    -0.258 C  
HETATM    7  C   UNL     1     -11.522  13.618  67.315  1.00  0.00    -0.370 C  
HETATM    8  C   UNL     1     -11.748  12.219  67.907  1.00  0.00    -0.410 C  
HETATM    9  C   UNL     1     -12.226  13.782  65.957  1.00  0.00    -0.495 C  
BRANCH   9  10
HETATM   10  C   UNL     1     -11.796  12.703  64.969  1.00  0.00    -0.439 C  
BRANCH  10  11
HETATM   11  C   UNL     1     -10.397  12.181  65.260  1.00  0.00    -0.310 C  
HETATM   12  C   UNL     1     -10.088  10.900  64.464  1.00  0.00    -0.404 C  
HETATM   13  C   UNL     1      -8.724  10.312  64.876  1.00  0.00    -0.198 C  
HETATM   14  C   UNL     1     -10.120  11.129  62.948  1.00  0.00    -0.235 C  
BRANCH  13  15
HETATM   15  C   UNL     1      -8.605   9.938  66.359  1.00  0.00    -0.136 C  
BRANCH  15  16
HETATM   16  C   UNL     1      -7.233  10.271  66.944  1.00  0.00    -0.093 C  
BRANCH  16  17
HETATM   17  C   UNL     1      -6.786   9.241  67.952  1.00  0.00    -0.071 C  
HETATM   18  C   UNL     1      -7.517   9.040  69.066  1.00  0.00    -0.074 C  
HETATM   19  C   UNL     1      -5.557   8.451  67.612  1.00  0.00    -0.039 C  
BRANCH  18  20
HETATM   20  C   UNL     1      -7.272   8.002  70.130  1.00  0.00    -0.056 C  
BRANCH  20  21
HETATM   21  C   UNL     1      -7.670   6.618  69.657  1.00  0.00    -0.107 C  
HETATM   22  C   UNL     1      -8.824   6.326  69.020  1.00  0.00    -0.124 C  
HETATM   23  C   UNL     1      -9.928   7.304  68.717  1.00  0.00    -0.167 C  
HETATM   24  C   UNL     1      -9.097   4.947  68.519  1.00  0.00    -0.114 C  
HETATM   25  O   UNL     1     -10.160   4.669  67.980  1.00  0.00    -0.105 OA 
HETATM   26  C   UNL     1      -8.050   3.926  68.667  1.00  0.00    -0.079 A  
HETATM   27  C   UNL     1      -6.877   4.216  69.348  1.00  0.00    -0.045 A  
HETATM   28  C   UNL     1      -6.667   5.548  69.932  1.00  0.00    -0.051 C  
HETATM   29  C   UNL     1      -5.889   3.233  69.491  1.00  0.00    -0.023 A  
HETATM   30  C   UNL     1      -6.078   1.963  68.942  1.00  0.00    -0.024 A  
HETATM   31  O   UNL     1      -5.672   5.755  70.617  1.00  0.00    -0.012 OA 
HETATM   32  C   UNL     1      -7.256   1.673  68.254  1.00  0.00    -0.043 A  
HETATM   33  C   UNL     1      -8.242   2.651  68.116  1.00  0.00    -0.075 A  
ENDBRANCH  20  21
ENDBRANCH  18  20
ENDBRANCH  16  17
ENDBRANCH  15  16
ENDBRANCH  13  15
ENDBRANCH  10  11
ENDBRANCH   9  10
ENDBRANCH   5   6
ENDBRANCH   4   5
TORSDOF 9
ENDMDL
MODEL      377
REMARK 921   NORMALIZED FREE ENERGY PREDICTED BY IDOCK:   -2.67 KCAL/MOL
REMARK 922        TOTAL FREE ENERGY PREDICTED BY IDOCK:   -7.28 KCAL/MOL
REMARK 923 INTER-LIGAND FREE ENERGY PREDICTED BY IDOCK:   -5.94 KCAL/MOL
REMARK 924 INTRA-LIGAND FREE ENERGY PREDICTED BY IDOCK:   -1.34 KCAL/MOL
REMARK 927      BINDING AFFINITY PREDICTED BY RF-SCORE:    0.00 PKD
ROOT
HETATM    1  C   UNL     1     -12.695  14.904  70.351  1.00  0.00    -0.370 C  
HETATM    2  C   UNL     1     -11.760  14.835  69.146  1.00  0.00    -0.344 C  
HETATM    3  C   UNL     1     -10.403  15.450  69.506  1.00  0.00    -0.269 C  
HETATM    4  C   UNL     1     -11.644  13.376  68.663  1.00  0.00    -0.362 C  
ENDROOT
BRANCH   4   5
HETATM    5  C   UNL     1     -10.727  13.252  67.453  1.00  0.00    -0.266 C  
BRANCH   5   6
HETATM    6  C   UNL     1      -9.971  11.928  67.416  1.00  0.00    -0.201 C  
HETATM    7  C   UNL     1      -8.459  12.146  67.215  1.00  0.00    -0.178 C  
HETATM    8  C   UNL     1      -7.844  12.996  68.337  1.00  0.00    -0.134 C  
HETATM    9  C   UNL     1      -7.765  10.778  67.092  1.00  0.00    -0.120 C  
BRANCH   9  10
HETATM   10  C   UNL     1      -6.261  10.930  66.893  1.00  0.00    -0.087 C  
BRANCH  10  11
HETATM   11  C   UNL     1      -5.668   9.780  66.094  1.00  0.00    -0.057 C  
HETATM   12  C   UNL     1      -6.648   9.260  65.026  1.00  0.00    -0.077 C  
HETATM   13  C   UNL     1      -6.084   8.010  64.323  1.00  0.00    -0.057 C  
HETATM   14  C   UNL     1      -7.001  10.329  63.984  1.00  0.00    -0.049 C  
BRANCH  13  15
HETATM   15  C   UNL     1      -5.793   6.826  65.253  1.00  0.00    -0.035 C  
BRANCH  15  16
HETATM   16  C   UNL     1      -6.365   7.022  66.658  1.00  0.00    -0.050 C  
BRANCH  16  17
HETATM   17  C   UNL     1      -7.595   6.181  66.887  1.00  0.00    -0.099 C  
HETATM   18  C   UNL     1      -8.568   6.634  67.702  1.00  0.00    -0.120 C  
HETATM   19  C   UNL     1      -7.683   4.889  66.130  1.00  0.00    -0.091 C  
BRANCH  18  20
HETATM   20  C   UNL     1      -9.894   5.974  67.977  1.00  0.00    -0.137 C  
BRANCH  20  21
HETATM   21  C   UNL     1      -9.928   5.352  69.359  1.00  0.00    -0.280 C  
HETATM   22  C   UNL     1      -9.509   4.102  69.649  1.00  0.00    -0.259 C  
HETATM   23  C   UNL     1      -8.989   3.099  68.653  1.00  0.00    -0.188 C  
HETATM   24  C   UNL     1      -9.505   3.600  71.055  1.00  0.00    -0.164 C  
HETATM   25  O   UNL     1      -9.167   2.453  71.315  1.00  0.00    -0.094 OA 
HETATM   26  C   UNL     1      -9.897   4.522  72.130  1.00  0.00    -0.237 A  
HETATM   27  C   UNL     1     -10.357   5.796  71.831  1.00  0.00    -0.263 A  
HETATM   28  C   UNL     1     -10.459   6.240  70.435  1.00  0.00    -0.222 C  
HETATM   29  C   UNL     1     -10.737   6.663  72.864  1.00  0.00    -0.285 A  
HETATM   30  C   UNL     1     -10.647   6.251  74.195  1.00  0.00    -0.136 A  
HETATM   31  O   UNL     1     -10.963   7.329  70.184  1.00  0.00    -0.251 OA 
HETATM   32  C   UNL     1     -10.180   4.972  74.496  1.00  0.00    -0.305 A  
HETATM   33  C   UNL     1      -9.806   4.106  73.467  1.00  0.00    -0.154 A  
ENDBRANCH  20  21
ENDBRANCH  18  20
ENDBRANCH  16  17
ENDBRANCH  15  16
ENDBRANCH  13  15
ENDBRANCH  10  11
ENDBRANCH   9  10
ENDBRANCH   5   6
ENDBRANCH   4   5
TORSDOF 9
ENDMDL
MODEL      378
REMARK 921   NORMALIZED FREE ENERGY PREDICTED BY IDOCK:   -2.61 KCAL/MOL
REMARK 922        TOTAL FREE ENERGY PREDICTED BY IDOCK:   -7.18 KCAL/MOL
REMARK 923 INTER-LIGAND FREE ENERGY PREDICTED BY IDOCK:   -7.80 KCAL/MOL
REMARK 924 INTRA-LIGAND FREE ENERGY PREDICTED BY IDOCK:    0.62 KCAL/MOL
REMARK 927      BINDING AFFINITY PREDICTED BY RF-SCORE:    0.00 PKD
ROOT
HETATM    1  C   UNL     1      -5.463  19.748  70.291  1.00  0.00    -0.274 C  
HETATM    2  C   UNL     1      -6.514  20.403  69.397  1.00  0.00    -0.220 C  
HETATM    3  C   UNL     1      -5.831  21.087  68.208  1.00  0.00    -0.386 C  
HETATM    4  C   UNL     1      -7.554  19.352  68.965  1.00  0.00    -0.369 C  
ENDROOT
BRANCH   4   5
HETATM    5  C   UNL     1      -8.634  19.956  68.077  1.00  0.00    -0.311 C  
BRANCH   5   6
HETATM    6  C   UNL     1      -9.703  18.947  67.673  1.00  0.00    -0.362 C  
HETATM    7  C   UNL     1      -9.085  17.582  67.313  1.00  0.00    -0.240 C  
HETATM    8  C   UNL     1      -8.300  16.976  68.487  1.00  0.00    -0.260 C  
HETATM    9  C   UNL     1     -10.198  16.638  66.826  1.00  0.00    -0.301 C  
BRANCH   9  10
HETATM   10  C   UNL     1      -9.646  15.265  66.456  1.00  0.00    -0.294 C  
BRANCH  10  11
HETATM   11  C   UNL     1     -10.215  14.161  67.332  1.00  0.00    -0.244 C  
HETATM   12  C   UNL     1     -11.742  14.285  67.488  1.00  0.00    -0.415 C  
HETATM   13  C   UNL     1     -12.280  13.242  68.488  1.00  0.00    -0.104 C  
HETATM   14  C   UNL     1     -12.481  14.153  66.150  1.00  0.00    -0.426 C  
BRANCH  13  15
HETATM   15  C   UNL     1     -11.692  13.343  69.901  1.00  0.00    -0.337 C  
BRANCH  15  16
HETATM   16  C   UNL     1     -12.222  12.259  70.841  1.00  0.00    -0.296 C  
BRANCH  16  17
HETATM   17  C   UNL     1     -11.858  10.875  70.365  1.00  0.00    -0.449 C  
HETATM   18  C   UNL     1     -12.531   9.809  70.843  1.00  0.00    -0.366 C  
HETATM   19  C   UNL     1     -10.781  10.778  69.325  1.00  0.00    -0.268 C  
BRANCH  18  20
HETATM   20  C   UNL     1     -12.363   8.373  70.420  1.00  0.00     0.479 C  
BRANCH  20  21
HETATM   21  C   UNL     1     -10.997   7.839  70.800  1.00  0.00    -0.259 C  
HETATM   22  C   UNL     1     -10.057   7.437  69.918  1.00  0.00    -0.195 C  
HETATM   23  C   UNL     1     -10.219   7.401  68.421  1.00  0.00    -0.207 C  
HETATM   24  C   UNL     1      -8.707   6.999  70.380  1.00  0.00    -0.147 C  
HETATM   25  O   UNL     1      -7.868   6.593  69.587  1.00  0.00    -0.110 OA 
HETATM   26  C   UNL     1      -8.394   7.085  71.814  1.00  0.00    -0.110 A  
HETATM   27  C   UNL     1      -9.368   7.468  72.724  1.00  0.00    -0.217 A  
HETATM   28  C   UNL     1     -10.726   7.792  72.267  1.00  0.00    -0.269 C  
HETATM   29  C   UNL     1      -9.062   7.538  74.089  1.00  0.00    -0.249 A  
HETATM   30  C   UNL     1      -7.775   7.229  74.536  1.00  0.00    -0.164 A  
HETATM   31  O   UNL     1     -11.600   8.029  73.093  1.00  0.00    -0.289 OA 
HETATM   32  C   UNL     1      -6.795   6.849  73.621  1.00  0.00    -0.071 A  
HETATM   33  C   UNL     1      -7.102   6.775  72.261  1.00  0.00    -0.075 A  
ENDBRANCH  20  21
ENDBRANCH  18  20
ENDBRANCH  16  17
ENDBRANCH  15  16
ENDBRANCH  13  15
ENDBRANCH  10  11
ENDBRANCH   9  10
ENDBRANCH   5   6
ENDBRANCH   4   5
TORSDOF 9
ENDMDL
MODEL      379
REMARK 921   NORMALIZED FREE ENERGY PREDICTED BY IDOCK:   -2.59 KCAL/MOL
REMARK 922        TOTAL FREE ENERGY PREDICTED BY IDOCK:   -7.15 KCAL/MOL
REMARK 923 INTER-LIGAND FREE ENERGY PREDICTED BY IDOCK:   -5.99 KCAL/MOL
REMARK 924 INTRA-LIGAND FREE ENERGY PREDICTED BY IDOCK:   -1.16 KCAL/MOL
REMARK 927      BINDING AFFINITY PREDICTED BY RF-SCORE:    0.00 PKD
ROOT
HETATM    1  C   UNL     1      -8.425  15.255  69.218  1.00  0.00    -0.238 C  
HETATM    2  C   UNL     1      -7.641  14.227  68.406  1.00  0.00    -0.124 C  
HETATM    3  C   UNL     1      -6.768  13.384  69.342  1.00  0.00    -0.037 C  
HETATM    4  C   UNL     1      -8.615  13.375  67.570  1.00  0.00    -0.200 C  
ENDROOT
BRANCH   4   5
HETATM    5  C   UNL     1      -7.882  12.337  66.732  1.00  0.00     0.043 C  
BRANCH   5   6
HETATM    6  C   UNL     1      -8.295  10.907  67.064  1.00  0.00    -0.132 C  
HETATM    7  C   UNL     1      -7.572   9.886  66.164  1.00  0.00    -0.104 C  
HETATM    8  C   UNL     1      -6.045   9.969  66.308  1.00  0.00    -0.068 C  
HETATM    9  C   UNL     1      -8.097   8.475  66.482  1.00  0.00    -0.103 C  
BRANCH   9  10
HETATM   10  C   UNL     1      -7.415   7.417  65.621  1.00  0.00    -0.084 C  
BRANCH  10  11
HETATM   11  C   UNL     1      -6.971   6.212  66.434  1.00  0.00    -0.067 C  
HETATM   12  C   UNL     1      -7.182   4.894  65.666  1.00  0.00    -0.072 C  
HETATM   13  C   UNL     1      -6.856   3.679  66.556  1.00  0.00    -0.054 C  
HETATM   14  C   UNL     1      -6.356   4.830  64.374  1.00  0.00    -0.034 C  
BRANCH  13  15
HETATM   15  C   UNL     1      -7.699   3.573  67.833  1.00  0.00    -0.069 C  
BRANCH  15  16
HETATM   16  C   UNL     1      -9.068   4.242  67.696  1.00  0.00    -0.156 C  
BRANCH  16  17
HETATM   17  C   UNL     1      -9.569   4.775  69.014  1.00  0.00    -0.233 C  
HETATM   18  C   UNL     1      -8.818   4.621  70.123  1.00  0.00    -0.126 C  
HETATM   19  C   UNL     1     -10.877   5.510  68.994  1.00  0.00    -0.154 C  
BRANCH  18  20
HETATM   20  C   UNL     1      -9.117   5.161  71.497  1.00  0.00    -0.169 C  
BRANCH  20  21
HETATM   21  C   UNL     1      -9.632   6.585  71.433  1.00  0.00    -0.174 C  
HETATM   22  C   UNL     1      -8.956   7.623  70.897  1.00  0.00    -0.148 C  
HETATM   23  C   UNL     1      -7.566   7.559  70.322  1.00  0.00    -0.090 C  
HETATM   24  C   UNL     1      -9.575   8.978  70.806  1.00  0.00    -0.249 C  
HETATM   25  O   UNL     1      -8.949   9.930  70.361  1.00  0.00    -0.160 OA 
HETATM   26  C   UNL     1     -10.969   9.144  71.245  1.00  0.00    -0.400 A  
HETATM   27  C   UNL     1     -11.654   8.086  71.824  1.00  0.00    -0.331 A  
HETATM   28  C   UNL     1     -10.995   6.786  72.007  1.00  0.00    -0.238 C  
HETATM   29  C   UNL     1     -12.978   8.258  72.247  1.00  0.00    -0.289 A  
HETATM   30  C   UNL     1     -13.614   9.490  72.080  1.00  0.00    -0.492 A  
HETATM   31  O   UNL     1     -11.580   5.894  72.613  1.00  0.00    -0.290 OA 
HETATM   32  C   UNL     1     -12.927  10.552  71.494  1.00  0.00    -0.565 A  
HETATM   33  C   UNL     1     -11.606  10.382  71.077  1.00  0.00    -0.384 A  
ENDBRANCH  20  21
ENDBRANCH  18  20
ENDBRANCH  16  17
ENDBRANCH  15  16
ENDBRANCH  13  15
ENDBRANCH  10  11
ENDBRANCH   9  10
ENDBRANCH   5   6
ENDBRANCH   4   5
TORSDOF 9
ENDMDL
MODEL      380
REMARK 921   NORMALIZED FREE ENERGY PREDICTED BY IDOCK:   -2.55 KCAL/MOL
REMARK 922        TOTAL FREE ENERGY PREDICTED BY IDOCK:   -7.09 KCAL/MOL
REMARK 923 INTER-LIGAND FREE ENERGY PREDICTED BY IDOCK:   -5.78 KCAL/MOL
REMARK 924 INTRA-LIGAND FREE ENERGY PREDICTED BY IDOCK:   -1.32 KCAL/MOL
REMARK 927      BINDING AFFINITY PREDICTED BY RF-SCORE:    0.00 PKD
ROOT
HETATM    1  C   UNL     1      -7.573  18.951  68.084  1.00  0.00    -0.305 C  
HETATM    2  C   UNL     1      -8.198  17.668  67.541  1.00  0.00    -0.221 C  
HETATM    3  C   UNL     1      -7.530  17.286  66.215  1.00  0.00    -0.354 C  
HETATM    4  C   UNL     1      -8.100  16.554  68.601  1.00  0.00    -0.233 C  
ENDROOT
BRANCH   4   5
HETATM    5  C   UNL     1      -8.719  15.251  68.112  1.00  0.00    -0.162 C  
BRANCH   5   6
HETATM    6  C   UNL     1     -10.233  15.339  67.947  1.00  0.00    -0.235 C  
HETATM    7  C   UNL     1     -10.948  15.380  69.311  1.00  0.00    -0.261 C  
HETATM    8  C   UNL     1     -10.506  16.583  70.158  1.00  0.00     0.035 C  
HETATM    9  C   UNL     1     -12.469  15.373  69.082  1.00  0.00     0.041 C  
BRANCH   9  10
HETATM   10  C   UNL     1     -13.234  15.415  70.401  1.00  0.00    -0.139 C  
BRANCH  10  11
HETATM   11  C   UNL     1     -13.714  14.038  70.832  1.00  0.00     0.103 C  
HETATM   12  C   UNL     1     -12.784  13.414  71.890  1.00  0.00    -0.277 C  
HETATM   13  C   UNL     1     -13.208  11.967  72.210  1.00  0.00    -0.235 C  
HETATM   14  C   UNL     1     -12.728  14.239  73.182  1.00  0.00    -0.351 C  
BRANCH  13  15
HETATM   15  C   UNL     1     -13.198  11.013  71.010  1.00  0.00    -0.103 C  
BRANCH  15  16
HETATM   16  C   UNL     1     -12.331  11.522  69.857  1.00  0.00    -0.247 C  
BRANCH  16  17
HETATM   17  C   UNL     1     -10.949  10.919  69.883  1.00  0.00    -0.266 C  
HETATM   18  C   UNL     1     -10.721   9.809  70.613  1.00  0.00    -0.394 C  
HETATM   19  C   UNL     1      -9.907  11.579  69.030  1.00  0.00    -0.013 C  
BRANCH  18  20
HETATM   20  C   UNL     1      -9.436   9.027  70.688  1.00  0.00    -0.286 C  
BRANCH  20  21
HETATM   21  C   UNL     1      -9.252   8.145  69.468  1.00  0.00    -0.158 C  
HETATM   22  C   UNL     1     -10.090   7.150  69.106  1.00  0.00    -0.183 C  
HETATM   23  C   UNL     1     -11.312   6.713  69.870  1.00  0.00    -0.422 C  
HETATM   24  C   UNL     1      -9.873   6.384  67.844  1.00  0.00    -0.123 C  
HETATM   25  O   UNL     1     -10.605   5.454  67.535  1.00  0.00    -0.200 OA 
HETATM   26  C   UNL     1      -8.768   6.785  66.961  1.00  0.00    -0.114 A  
HETATM   27  C   UNL     1      -7.888   7.786  67.346  1.00  0.00    -0.118 A  
HETATM   28  C   UNL     1      -8.049   8.459  68.642  1.00  0.00    -0.122 C  
HETATM   29  C   UNL     1      -6.833   8.154  66.501  1.00  0.00    -0.067 A  
HETATM   30  C   UNL     1      -6.668   7.521  65.268  1.00  0.00    -0.044 A  
HETATM   31  O   UNL     1      -7.205   9.267  69.011  1.00  0.00    -0.069 OA 
HETATM   32  C   UNL     1      -7.555   6.517  64.878  1.00  0.00    -0.097 A  
HETATM   33  C   UNL     1      -8.604   6.148  65.722  1.00  0.00    -0.153 A  
ENDBRANCH  20  21
ENDBRANCH  18  20
ENDBRANCH  16  17
ENDBRANCH  15  16
ENDBRANCH  13  15
ENDBRANCH  10  11
ENDBRANCH   9  10
ENDBRANCH   5   6
ENDBRANCH   4   5
TORSDOF 9
ENDMDL
MODEL      381
REMARK 921   NORMALIZED FREE ENERGY PREDICTED BY IDOCK:   -2.53 KCAL/MOL
REMARK 922        TOTAL FREE ENERGY PREDICTED BY IDOCK:   -7.07 KCAL/MOL
REMARK 923 INTER-LIGAND FREE ENERGY PREDICTED BY IDOCK:   -4.13 KCAL/MOL
REMARK 924 INTRA-LIGAND FREE ENERGY PREDICTED BY IDOCK:   -2.93 KCAL/MOL
REMARK 927      BINDING AFFINITY PREDICTED BY RF-SCORE:    0.00 PKD
ROOT
HETATM    1  C   UNL     1      -7.729  11.648  68.872  1.00  0.00    -0.065 C  
HETATM    2  C   UNL     1      -6.793  10.482  69.183  1.00  0.00    -0.074 C  
HETATM    3  C   UNL     1      -5.624  10.476  68.192  1.00  0.00    -0.036 C  
HETATM    4  C   UNL     1      -6.331  10.566  70.650  1.00  0.00    -0.040 C  
ENDROOT
BRANCH   4   5
HETATM    5  C   UNL     1      -5.400   9.418  71.017  1.00  0.00    -0.043 C  
BRANCH   5   6
HETATM    6  C   UNL     1      -6.054   8.050  70.857  1.00  0.00    -0.033 C  
HETATM    7  C   UNL     1      -6.590   7.520  72.201  1.00  0.00    -0.051 C  
HETATM    8  C   UNL     1      -7.636   8.462  72.818  1.00  0.00    -0.119 C  
HETATM    9  C   UNL     1      -7.152   6.103  71.995  1.00  0.00    -0.083 C  
BRANCH   9  10
HETATM   10  C   UNL     1      -7.702   5.524  73.295  1.00  0.00    -0.100 C  
BRANCH  10  11
HETATM   11  C   UNL     1      -9.182   5.818  73.475  1.00  0.00    -0.131 C  
HETATM   12  C   UNL     1     -10.055   4.943  72.556  1.00  0.00    -0.233 C  
HETATM   13  C   UNL     1     -11.538   5.352  72.652  1.00  0.00    -0.270 C  
HETATM   14  C   UNL     1      -9.906   3.446  72.856  1.00  0.00    -0.201 C  
BRANCH  13  15
HETATM   15  C   UNL     1     -11.830   6.808  72.268  1.00  0.00    -0.277 C  
BRANCH  15  16
HETATM   16  C   UNL     1     -11.841   7.029  70.755  1.00  0.00    -0.401 C  
BRANCH  16  17
HETATM   17  C   UNL     1     -10.595   7.734  70.281  1.00  0.00    -0.231 C  
HETATM   18  C   UNL     1      -9.735   7.089  69.467  1.00  0.00    -0.160 C  
HETATM   19  C   UNL     1     -10.418   9.160  70.711  1.00  0.00    -0.322 C  
BRANCH  18  20
HETATM   20  C   UNL     1      -8.495   7.660  68.831  1.00  0.00    -0.129 C  
BRANCH  20  21
HETATM   21  C   UNL     1      -8.202   7.002  67.497  1.00  0.00    -0.116 C  
HETATM   22  C   UNL     1      -8.297   7.617  66.300  1.00  0.00    -0.133 C  
HETATM   23  C   UNL     1      -8.756   9.034  66.077  1.00  0.00    -0.184 C  
HETATM   24  C   UNL     1      -7.912   6.913  65.041  1.00  0.00    -0.125 C  
HETATM   25  O   UNL     1      -8.038   7.453  63.950  1.00  0.00    -0.114 OA 
HETATM   26  C   UNL     1      -7.354   5.557  65.139  1.00  0.00    -0.068 A  
HETATM   27  C   UNL     1      -7.284   4.912  66.365  1.00  0.00    -0.077 A  
HETATM   28  C   UNL     1      -7.768   5.576  67.582  1.00  0.00    -0.093 C  
HETATM   29  C   UNL     1      -6.758   3.616  66.445  1.00  0.00    -0.049 A  
HETATM   30  C   UNL     1      -6.297   2.973  65.294  1.00  0.00    -0.028 A  
HETATM   31  O   UNL     1      -7.794   4.954  68.638  1.00  0.00    -0.077 OA 
HETATM   32  C   UNL     1      -6.363   3.623  64.062  1.00  0.00    -0.026 A  
HETATM   33  C   UNL     1      -6.891   4.913  63.982  1.00  0.00    -0.048 A  
ENDBRANCH  20  21
ENDBRANCH  18  20
ENDBRANCH  16  17
ENDBRANCH  15  16
ENDBRANCH  13  15
ENDBRANCH  10  11
ENDBRANCH   9  10
ENDBRANCH   5   6
ENDBRANCH   4   5
TORSDOF 9
ENDMDL
MODEL      382
REMARK 921   NORMALIZED FREE ENERGY PREDICTED BY IDOCK:   -2.53 KCAL/MOL
REMARK 922        TOTAL FREE ENERGY PREDICTED BY IDOCK:   -7.06 KCAL/MOL
REMARK 923 INTER-LIGAND FREE ENERGY PREDICTED BY IDOCK:   -5.22 KCAL/MOL
REMARK 924 INTRA-LIGAND FREE ENERGY PREDICTED BY IDOCK:   -1.84 KCAL/MOL
REMARK 927      BINDING AFFINITY PREDICTED BY RF-SCORE:    0.00 PKD
ROOT
HETATM    1  C   UNL     1      -8.057  15.897  70.044  1.00  0.00     0.672 C  
HETATM    2  C   UNL     1      -6.707  15.305  69.647  1.00  0.00    -0.181 C  
HETATM    3  C   UNL     1      -5.590  16.309  69.952  1.00  0.00    -0.170 C  
HETATM    4  C   UNL     1      -6.505  13.952  70.356  1.00  0.00     0.042 C  
ENDROOT
BRANCH   4   5
HETATM    5  C   UNL     1      -5.173  13.313  69.986  1.00  0.00    -0.092 C  
BRANCH   5   6
HETATM    6  C   UNL     1      -5.281  11.808  69.759  1.00  0.00    -0.070 C  
HETATM    7  C   UNL     1      -6.609  11.433  69.073  1.00  0.00    -0.086 C  
HETATM    8  C   UNL     1      -6.764  12.117  67.706  1.00  0.00    -0.103 C  
HETATM    9  C   UNL     1      -6.701   9.902  68.957  1.00  0.00    -0.053 C  
BRANCH   9  10
HETATM   10  C   UNL     1      -7.998   9.469  68.280  1.00  0.00    -0.094 C  
BRANCH  10  11
HETATM   11  C   UNL     1      -9.130  10.455  68.522  1.00  0.00    -0.145 C  
HETATM   12  C   UNL     1     -10.279   9.820  69.327  1.00  0.00    -0.216 C  
HETATM   13  C   UNL     1     -11.472  10.789  69.441  1.00  0.00    -0.366 C  
HETATM   14  C   UNL     1      -9.837   9.370  70.725  1.00  0.00    -0.348 C  
BRANCH  13  15
HETATM   15  C   UNL     1     -12.075  11.228  68.101  1.00  0.00    -0.009 C  
BRANCH  15  16
HETATM   16  C   UNL     1     -12.158  12.749  67.959  1.00  0.00    -0.174 C  
BRANCH  16  17
HETATM   17  C   UNL     1     -10.855  13.342  67.487  1.00  0.00    -0.276 C  
HETATM   18  C   UNL     1     -10.642  13.514  66.168  1.00  0.00    -0.290 C  
HETATM   19  C   UNL     1      -9.879  13.762  68.547  1.00  0.00    -0.204 C  
BRANCH  18  20
HETATM   20  C   UNL     1      -9.446  14.166  65.525  1.00  0.00     0.105 C  
BRANCH  20  21
HETATM   21  C   UNL     1      -9.496  15.675  65.662  1.00  0.00    -0.272 C  
HETATM   22  C   UNL     1     -10.500  16.454  65.208  1.00  0.00    -0.285 C  
HETATM   23  C   UNL     1     -11.709  15.973  64.450  1.00  0.00    -0.134 C  
HETATM   24  C   UNL     1     -10.503  17.926  65.458  1.00  0.00     0.004 C  
HETATM   25  O   UNL     1     -11.390  18.641  65.011  1.00  0.00    -0.053 OA 
HETATM   26  C   UNL     1      -9.425  18.502  66.275  1.00  0.00    -0.256 A  
HETATM   27  C   UNL     1      -8.377  17.708  66.716  1.00  0.00    -0.276 A  
HETATM   28  C   UNL     1      -8.330  16.280  66.370  1.00  0.00    -0.330 C  
HETATM   29  C   UNL     1      -7.350  18.268  67.486  1.00  0.00    -0.212 A  
HETATM   30  C   UNL     1      -7.383  19.624  67.819  1.00  0.00    -0.306 A  
HETATM   31  O   UNL     1      -7.346  15.618  66.680  1.00  0.00    -0.132 OA 
HETATM   32  C   UNL     1      -8.439  20.421  67.380  1.00  0.00    -0.394 A  
HETATM   33  C   UNL     1      -9.460  19.864  66.608  1.00  0.00    -0.513 A  
ENDBRANCH  20  21
ENDBRANCH  18  20
ENDBRANCH  16  17
ENDBRANCH  15  16
ENDBRANCH  13  15
ENDBRANCH  10  11
ENDBRANCH   9  10
ENDBRANCH   5   6
ENDBRANCH   4   5
TORSDOF 9
ENDMDL
MODEL      383
REMARK 921   NORMALIZED FREE ENERGY PREDICTED BY IDOCK:   -2.49 KCAL/MOL
REMARK 922        TOTAL FREE ENERGY PREDICTED BY IDOCK:   -7.01 KCAL/MOL
REMARK 923 INTER-LIGAND FREE ENERGY PREDICTED BY IDOCK:   -5.57 KCAL/MOL
REMARK 924 INTRA-LIGAND FREE ENERGY PREDICTED BY IDOCK:   -1.44 KCAL/MOL
REMARK 927      BINDING AFFINITY PREDICTED BY RF-SCORE:    0.00 PKD
ROOT
HETATM    1  C   UNL     1      -6.698   5.596  72.339  1.00  0.00    -0.071 C  
HETATM    2  C   UNL     1      -6.587   4.724  71.091  1.00  0.00    -0.027 C  
HETATM    3  C   UNL     1      -5.271   3.940  71.120  1.00  0.00     0.000 C  
HETATM    4  C   UNL     1      -7.823   3.810  70.985  1.00  0.00    -0.062 C  
ENDROOT
BRANCH   4   5
HETATM    5  C   UNL     1      -7.767   2.924  69.748  1.00  0.00    -0.045 C  
BRANCH   5   6
HETATM    6  C   UNL     1      -8.854   3.256  68.731  1.00  0.00    -0.165 C  
HETATM    7  C   UNL     1      -8.318   4.164  67.607  1.00  0.00    -0.098 C  
HETATM    8  C   UNL     1      -7.155   3.512  66.843  1.00  0.00    -0.059 C  
HETATM    9  C   UNL     1      -9.476   4.540  66.668  1.00  0.00    -0.183 C  
BRANCH   9  10
HETATM   10  C   UNL     1      -9.005   5.440  65.530  1.00  0.00    -0.149 C  
BRANCH  10  11
HETATM   11  C   UNL     1      -8.364   6.722  66.038  1.00  0.00    -0.134 C  
HETATM   12  C   UNL     1      -7.299   7.254  65.062  1.00  0.00    -0.079 C  
HETATM   13  C   UNL     1      -6.566   8.473  65.657  1.00  0.00    -0.059 C  
HETATM   14  C   UNL     1      -7.887   7.618  63.692  1.00  0.00    -0.120 C  
BRANCH  13  15
HETATM   15  C   UNL     1      -5.841   8.204  66.982  1.00  0.00    -0.045 C  
BRANCH  15  16
HETATM   16  C   UNL     1      -6.763   7.618  68.052  1.00  0.00    -0.063 C  
BRANCH  16  17
HETATM   17  C   UNL     1      -7.400   8.693  68.896  1.00  0.00    -0.082 C  
HETATM   18  C   UNL     1      -7.614   9.914  68.367  1.00  0.00    -0.083 C  
HETATM   19  C   UNL     1      -7.816   8.306  70.284  1.00  0.00    -0.092 C  
BRANCH  18  20
HETATM   20  C   UNL     1      -8.312  11.074  69.028  1.00  0.00    -0.089 C  
BRANCH  20  21
HETATM   21  C   UNL     1      -9.122  11.876  68.030  1.00  0.00    -0.189 C  
HETATM   22  C   UNL     1     -10.325  11.504  67.542  1.00  0.00    -0.220 C  
HETATM   23  C   UNL     1     -11.039  10.217  67.860  1.00  0.00    -0.341 C  
HETATM   24  C   UNL     1     -11.089  12.396  66.621  1.00  0.00    -0.289 C  
HETATM   25  O   UNL     1     -12.159  12.044  66.143  1.00  0.00    -0.582 OA 
HETATM   26  C   UNL     1     -10.540  13.725  66.315  1.00  0.00    -0.289 A  
HETATM   27  C   UNL     1      -9.291  14.096  66.791  1.00  0.00    -0.295 A  
HETATM   28  C   UNL     1      -8.500  13.165  67.607  1.00  0.00    -0.194 C  
HETATM   29  C   UNL     1      -8.773  15.361  66.486  1.00  0.00    -0.335 A  
HETATM   30  C   UNL     1      -9.514  16.254  65.709  1.00  0.00    -0.229 A  
HETATM   31  O   UNL     1      -7.358  13.469  67.933  1.00  0.00    -0.115 OA 
HETATM   32  C   UNL     1     -10.772  15.883  65.234  1.00  0.00    -0.442 A  
HETATM   33  C   UNL     1     -11.286  14.621  65.535  1.00  0.00    -0.343 A  
ENDBRANCH  20  21
ENDBRANCH  18  20
ENDBRANCH  16  17
ENDBRANCH  15  16
ENDBRANCH  13  15
ENDBRANCH  10  11
ENDBRANCH   9  10
ENDBRANCH   5   6
ENDBRANCH   4   5
TORSDOF 9
ENDMDL
MODEL      384
REMARK 921   NORMALIZED FREE ENERGY PREDICTED BY IDOCK:   -2.48 KCAL/MOL
REMARK 922        TOTAL FREE ENERGY PREDICTED BY IDOCK:   -6.99 KCAL/MOL
REMARK 923 INTER-LIGAND FREE ENERGY PREDICTED BY IDOCK:   -6.47 KCAL/MOL
REMARK 924 INTRA-LIGAND FREE ENERGY PREDICTED BY IDOCK:   -0.52 KCAL/MOL
REMARK 927      BINDING AFFINITY PREDICTED BY RF-SCORE:    0.00 PKD
ROOT
HETATM    1  C   UNL     1      -6.387  20.824  64.120  1.00  0.00    -0.330 C  
HETATM    2  C   UNL     1      -6.410  20.565  65.625  1.00  0.00    -0.271 C  
HETATM    3  C   UNL     1      -7.824  20.166  66.061  1.00  0.00    -0.251 C  
HETATM    4  C   UNL     1      -5.352  19.504  65.984  1.00  0.00    -0.165 C  
ENDROOT
BRANCH   4   5
HETATM    5  C   UNL     1      -5.327  19.214  67.479  1.00  0.00    -0.167 C  
BRANCH   5   6
HETATM    6  C   UNL     1      -5.144  17.733  67.792  1.00  0.00    -0.136 C  
HETATM    7  C   UNL     1      -6.117  17.263  68.891  1.00  0.00    -0.182 C  
HETATM    8  C   UNL     1      -7.585  17.471  68.488  1.00  0.00    -0.266 C  
HETATM    9  C   UNL     1      -5.823  15.791  69.229  1.00  0.00    -0.118 C  
BRANCH   9  10
HETATM   10  C   UNL     1      -6.760  15.268  70.312  1.00  0.00     0.044 C  
BRANCH  10  11
HETATM   11  C   UNL     1      -8.065  14.741  69.739  1.00  0.00     0.196 C  
HETATM   12  C   UNL     1      -7.824  13.717  68.614  1.00  0.00    -0.096 C  
HETATM   13  C   UNL     1      -9.153  13.301  67.954  1.00  0.00    -0.203 C  
HETATM   14  C   UNL     1      -7.074  12.472  69.106  1.00  0.00     0.020 C  
BRANCH  13  15
HETATM   15  C   UNL     1      -9.948  14.453  67.325  1.00  0.00    -0.247 C  
BRANCH  15  16
HETATM   16  C   UNL     1     -10.390  14.153  65.892  1.00  0.00    -0.326 C  
BRANCH  16  17
HETATM   17  C   UNL     1     -11.098  12.826  65.788  1.00  0.00    -0.316 C  
HETATM   18  C   UNL     1     -10.529  11.725  66.318  1.00  0.00    -0.281 C  
HETATM   19  C   UNL     1     -12.449  12.828  65.135  1.00  0.00    -0.565 C  
BRANCH  18  20
HETATM   20  C   UNL     1     -11.127  10.343  66.383  1.00  0.00     0.156 C  
BRANCH  20  21
HETATM   21  C   UNL     1     -11.023   9.760  67.778  1.00  0.00    -0.242 C  
HETATM   22  C   UNL     1     -11.507  10.346  68.894  1.00  0.00    -0.251 C  
HETATM   23  C   UNL     1     -12.181  11.691  68.954  1.00  0.00    -0.112 C  
HETATM   24  C   UNL     1     -11.430   9.660  70.217  1.00  0.00    -0.233 C  
HETATM   25  O   UNL     1     -11.828  10.207  71.237  1.00  0.00    -0.359 OA 
HETATM   26  C   UNL     1     -10.883   8.297  70.270  1.00  0.00    -0.241 A  
HETATM   27  C   UNL     1     -10.358   7.705  69.131  1.00  0.00    -0.217 A  
HETATM   28  C   UNL     1     -10.340   8.435  67.856  1.00  0.00    -0.221 C  
HETATM   29  C   UNL     1      -9.830   6.409  69.195  1.00  0.00    -0.158 A  
HETATM   30  C   UNL     1      -9.838   5.707  70.402  1.00  0.00    -0.253 A  
HETATM   31  O   UNL     1      -9.780   7.938  66.885  1.00  0.00    -0.183 OA 
HETATM   32  C   UNL     1     -10.371   6.299  71.546  1.00  0.00    -0.243 A  
HETATM   33  C   UNL     1     -10.892   7.593  71.483  1.00  0.00    -0.256 A  
ENDBRANCH  20  21
ENDBRANCH  18  20
ENDBRANCH  16  17
ENDBRANCH  15  16
ENDBRANCH  13  15
ENDBRANCH  10  11
ENDBRANCH   9  10
ENDBRANCH   5   6
ENDBRANCH   4   5
TORSDOF 9
ENDMDL
MODEL      385
REMARK 921   NORMALIZED FREE ENERGY PREDICTED BY IDOCK:   -2.44 KCAL/MOL
REMARK 922        TOTAL FREE ENERGY PREDICTED BY IDOCK:   -6.93 KCAL/MOL
REMARK 923 INTER-LIGAND FREE ENERGY PREDICTED BY IDOCK:   -6.46 KCAL/MOL
REMARK 924 INTRA-LIGAND FREE ENERGY PREDICTED BY IDOCK:   -0.47 KCAL/MOL
REMARK 927      BINDING AFFINITY PREDICTED BY RF-SCORE:    0.00 PKD
ROOT
HETATM    1  C   UNL     1      -9.208  19.725  66.466  1.00  0.00    -0.466 C  
HETATM    2  C   UNL     1      -9.343  18.354  67.124  1.00  0.00    -0.271 C  
HETATM    3  C   UNL     1      -9.831  18.518  68.568  1.00  0.00    -0.414 C  
HETATM    4  C   UNL     1     -10.272  17.462  66.278  1.00  0.00    -0.344 C  
ENDROOT
BRANCH   4   5
HETATM    5  C   UNL     1     -10.434  16.076  66.888  1.00  0.00    -0.306 C  
BRANCH   5   6
HETATM    6  C   UNL     1      -9.962  14.961  65.960  1.00  0.00    -0.337 C  
HETATM    7  C   UNL     1     -10.797  13.680  66.147  1.00  0.00    -0.279 C  
HETATM    8  C   UNL     1     -12.288  13.916  65.862  1.00  0.00    -0.517 C  
HETATM    9  C   UNL     1     -10.217  12.567  65.256  1.00  0.00    -0.302 C  
BRANCH   9  10
HETATM   10  C   UNL     1     -11.006  11.269  65.397  1.00  0.00    -0.201 C  
BRANCH  10  11
HETATM   11  C   UNL     1     -10.107  10.078  65.686  1.00  0.00    -0.321 C  
HETATM   12  C   UNL     1      -9.612  10.076  67.144  1.00  0.00    -0.202 C  
HETATM   13  C   UNL     1      -8.595   8.942  67.378  1.00  0.00    -0.119 C  
HETATM   14  C   UNL     1     -10.761   9.962  68.154  1.00  0.00    -0.279 C  
BRANCH  13  15
HETATM   15  C   UNL     1      -7.341   9.010  66.497  1.00  0.00    -0.085 C  
BRANCH  15  16
HETATM   16  C   UNL     1      -6.141   8.294  67.120  1.00  0.00    -0.055 C  
BRANCH  16  17
HETATM   17  C   UNL     1      -6.445   6.850  67.428  1.00  0.00    -0.049 C  
HETATM   18  C   UNL     1      -6.334   6.402  68.694  1.00  0.00    -0.038 C  
HETATM   19  C   UNL     1      -6.916   5.998  66.286  1.00  0.00    -0.063 C  
BRANCH  18  20
HETATM   20  C   UNL     1      -6.678   5.024  69.197  1.00  0.00    -0.049 C  
BRANCH  20  21
HETATM   21  C   UNL     1      -7.480   5.087  70.481  1.00  0.00    -0.062 C  
HETATM   22  C   UNL     1      -7.687   6.208  71.204  1.00  0.00    -0.106 C  
HETATM   23  C   UNL     1      -7.121   7.568  70.892  1.00  0.00    -0.059 C  
HETATM   24  C   UNL     1      -8.558   6.192  72.416  1.00  0.00    -0.119 C  
HETATM   25  O   UNL     1      -8.713   7.196  73.097  1.00  0.00    -0.122 OA 
HETATM   26  C   UNL     1      -9.250   4.942  72.766  1.00  0.00    -0.145 A  
HETATM   27  C   UNL     1      -9.015   3.782  72.043  1.00  0.00    -0.147 A  
HETATM   28  C   UNL     1      -8.070   3.787  70.918  1.00  0.00    -0.066 C  
HETATM   29  C   UNL     1      -9.672   2.595  72.391  1.00  0.00    -0.206 A  
HETATM   30  C   UNL     1     -10.570   2.578  73.460  1.00  0.00    -0.251 A  
HETATM   31  O   UNL     1      -7.796   2.732  70.356  1.00  0.00    -0.043 OA 
HETATM   32  C   UNL     1     -10.810   3.745  74.184  1.00  0.00    -0.222 A  
HETATM   33  C   UNL     1     -10.152   4.927  73.840  1.00  0.00    -0.219 A  
ENDBRANCH  20  21
ENDBRANCH  18  20
ENDBRANCH  16  17
ENDBRANCH  15  16
ENDBRANCH  13  15
ENDBRANCH  10  11
ENDBRANCH   9  10
ENDBRANCH   5   6
ENDBRANCH   4   5
TORSDOF 9
ENDMDL
MODEL      386
REMARK 921   NORMALIZED FREE ENERGY PREDICTED BY IDOCK:   -2.39 KCAL/MOL
REMARK 922        TOTAL FREE ENERGY PREDICTED BY IDOCK:   -6.85 KCAL/MOL
REMARK 923 INTER-LIGAND FREE ENERGY PREDICTED BY IDOCK:   -4.20 KCAL/MOL
REMARK 924 INTRA-LIGAND FREE ENERGY PREDICTED BY IDOCK:   -2.64 KCAL/MOL
REMARK 927      BINDING AFFINITY PREDICTED BY RF-SCORE:    0.00 PKD
ROOT
HETATM    1  C   UNL     1      -8.816   4.345  70.347  1.00  0.00    -0.133 C  
HETATM    2  C   UNL     1      -7.596   4.467  69.437  1.00  0.00    -0.055 C  
HETATM    3  C   UNL     1      -6.338   4.030  70.196  1.00  0.00    -0.027 C  
HETATM    4  C   UNL     1      -7.827   3.655  68.148  1.00  0.00    -0.068 C  
ENDROOT
BRANCH   4   5
HETATM    5  C   UNL     1      -6.640   3.751  67.199  1.00  0.00    -0.046 C  
BRANCH   5   6
HETATM    6  C   UNL     1      -6.299   5.188  66.818  1.00  0.00    -0.040 C  
HETATM    7  C   UNL     1      -6.191   5.357  65.290  1.00  0.00    -0.034 C  
HETATM    8  C   UNL     1      -7.499   4.989  64.575  1.00  0.00    -0.068 C  
HETATM    9  C   UNL     1      -5.755   6.798  64.973  1.00  0.00    -0.031 C  
BRANCH   9  10
HETATM   10  C   UNL     1      -5.632   7.028  63.471  1.00  0.00    -0.036 C  
BRANCH  10  11
HETATM   11  C   UNL     1      -6.645   8.039  62.959  1.00  0.00    -0.084 C  
HETATM   12  C   UNL     1      -6.549   9.377  63.715  1.00  0.00    -0.095 C  
HETATM   13  C   UNL     1      -7.672  10.338  63.277  1.00  0.00    -0.133 C  
HETATM   14  C   UNL     1      -5.184  10.055  63.537  1.00  0.00    -0.097 C  
BRANCH  13  15
HETATM   15  C   UNL     1      -9.094   9.814  63.509  1.00  0.00    -0.263 C  
BRANCH  15  16
HETATM   16  C   UNL     1      -9.516   9.875  64.977  1.00  0.00    -0.343 C  
BRANCH  16  17
HETATM   17  C   UNL     1      -8.954   8.723  65.773  1.00  0.00    -0.253 C  
HETATM   18  C   UNL     1      -8.274   8.970  66.910  1.00  0.00    -0.116 C  
HETATM   19  C   UNL     1      -9.244   7.343  65.262  1.00  0.00     0.524 C  
BRANCH  18  20
HETATM   20  C   UNL     1      -7.722   7.948  67.869  1.00  0.00    -0.125 C  
BRANCH  20  21
HETATM   21  C   UNL     1      -8.465   7.969  69.190  1.00  0.00    -0.136 C  
HETATM   22  C   UNL     1      -7.952   8.423  70.353  1.00  0.00    -0.099 C  
HETATM   23  C   UNL     1      -6.550   8.934  70.552  1.00  0.00    -0.049 C  
HETATM   24  C   UNL     1      -8.786   8.479  71.591  1.00  0.00    -0.199 C  
HETATM   25  O   UNL     1      -8.311   8.848  72.656  1.00  0.00    -0.392 OA 
HETATM   26  C   UNL     1     -10.203   8.099  71.500  1.00  0.00    -0.261 A  
HETATM   27  C   UNL     1     -10.724   7.605  70.313  1.00  0.00    -0.244 A  
HETATM   28  C   UNL     1      -9.864   7.451  69.131  1.00  0.00    -0.168 C  
HETATM   29  C   UNL     1     -12.074   7.237  70.240  1.00  0.00     0.020 A  
HETATM   30  C   UNL     1     -12.900   7.376  71.357  1.00  0.00    -0.408 A  
HETATM   31  O   UNL     1     -10.314   6.918  68.124  1.00  0.00    -0.170 OA 
HETATM   32  C   UNL     1     -12.378   7.878  72.549  1.00  0.00    -0.188 A  
HETATM   33  C   UNL     1     -11.031   8.239  72.623  1.00  0.00    -0.386 A  
ENDBRANCH  20  21
ENDBRANCH  18  20
ENDBRANCH  16  17
ENDBRANCH  15  16
ENDBRANCH  13  15
ENDBRANCH  10  11
ENDBRANCH   9  10
ENDBRANCH   5   6
ENDBRANCH   4   5
TORSDOF 9
ENDMDL
MODEL      387
REMARK 921   NORMALIZED FREE ENERGY PREDICTED BY IDOCK:   -2.39 KCAL/MOL
REMARK 922        TOTAL FREE ENERGY PREDICTED BY IDOCK:   -6.84 KCAL/MOL
REMARK 923 INTER-LIGAND FREE ENERGY PREDICTED BY IDOCK:   -5.78 KCAL/MOL
REMARK 924 INTRA-LIGAND FREE ENERGY PREDICTED BY IDOCK:   -1.06 KCAL/MOL
REMARK 927      BINDING AFFINITY PREDICTED BY RF-SCORE:    0.00 PKD
ROOT
HETATM    1  C   UNL     1     -10.617   8.540  71.806  1.00  0.00    -0.371 C  
HETATM    2  C   UNL     1     -11.334   7.393  72.514  1.00  0.00    -0.358 C  
HETATM    3  C   UNL     1     -12.364   6.764  71.570  1.00  0.00    -0.407 C  
HETATM    4  C   UNL     1     -10.299   6.375  73.032  1.00  0.00    -0.234 C  
ENDROOT
BRANCH   4   5
HETATM    5  C   UNL     1     -10.963   5.212  73.756  1.00  0.00    -0.297 C  
BRANCH   5   6
HETATM    6  C   UNL     1     -10.764   3.878  73.042  1.00  0.00    -0.241 C  
HETATM    7  C   UNL     1      -9.594   3.941  72.042  1.00  0.00    -0.210 C  
HETATM    8  C   UNL     1      -8.267   4.298  72.729  1.00  0.00    -0.094 C  
HETATM    9  C   UNL     1      -9.502   2.603  71.289  1.00  0.00    -0.218 C  
BRANCH   9  10
HETATM   10  C   UNL     1      -8.356   2.604  70.283  1.00  0.00    -0.073 C  
BRANCH  10  11
HETATM   11  C   UNL     1      -8.510   3.696  69.236  1.00  0.00    -0.096 C  
HETATM   12  C   UNL     1      -8.077   3.214  67.839  1.00  0.00    -0.083 C  
HETATM   13  C   UNL     1      -8.109   4.372  66.822  1.00  0.00    -0.102 C  
HETATM   14  C   UNL     1      -8.934   2.049  67.328  1.00  0.00    -0.166 C  
BRANCH  13  15
HETATM   15  C   UNL     1      -7.202   5.559  67.170  1.00  0.00    -0.075 C  
BRANCH  15  16
HETATM   16  C   UNL     1      -7.893   6.590  68.063  1.00  0.00    -0.105 C  
BRANCH  16  17
HETATM   17  C   UNL     1      -8.506   7.710  67.260  1.00  0.00    -0.121 C  
HETATM   18  C   UNL     1      -7.714   8.677  66.756  1.00  0.00    -0.093 C  
HETATM   19  C   UNL     1      -9.985   7.642  67.022  1.00  0.00    -0.310 C  
BRANCH  18  20
HETATM   20  C   UNL     1      -8.137   9.816  65.865  1.00  0.00    -0.114 C  
BRANCH  20  21
HETATM   21  C   UNL     1      -8.191  11.125  66.626  1.00  0.00    -0.158 C  
HETATM   22  C   UNL     1      -9.303  11.636  67.198  1.00  0.00    -0.178 C  
HETATM   23  C   UNL     1     -10.678  11.026  67.137  1.00  0.00    -0.313 C  
HETATM   24  C   UNL     1      -9.246  12.895  67.998  1.00  0.00    -0.212 C  
HETATM   25  O   UNL     1     -10.259  13.383  68.480  1.00  0.00    -0.237 OA 
HETATM   26  C   UNL     1      -7.939  13.531  68.214  1.00  0.00    -0.147 A  
HETATM   27  C   UNL     1      -6.801  13.025  67.602  1.00  0.00    -0.155 A  
HETATM   28  C   UNL     1      -6.889  11.847  66.728  1.00  0.00    -0.005 C  
HETATM   29  C   UNL     1      -5.562  13.645  67.807  1.00  0.00    -0.075 A  
HETATM   30  C   UNL     1      -5.466  14.766  68.633  1.00  0.00    -0.094 A  
HETATM   31  O   UNL     1      -5.895  11.476  66.115  1.00  0.00    -0.163 OA 
HETATM   32  C   UNL     1      -6.609  15.272  69.253  1.00  0.00    -0.141 A  
HETATM   33  C   UNL     1      -7.845  14.658  69.044  1.00  0.00    -0.133 A  
ENDBRANCH  20  21
ENDBRANCH  18  20
ENDBRANCH  16  17
ENDBRANCH  15  16
ENDBRANCH  13  15
ENDBRANCH  10  11
ENDBRANCH   9  10
ENDBRANCH   5   6
ENDBRANCH   4   5
TORSDOF 9
ENDMDL
MODEL      388
REMARK 921   NORMALIZED FREE ENERGY PREDICTED BY IDOCK:   -2.38 KCAL/MOL
REMARK 922        TOTAL FREE ENERGY PREDICTED BY IDOCK:   -6.83 KCAL/MOL
REMARK 923 INTER-LIGAND FREE ENERGY PREDICTED BY IDOCK:   -6.13 KCAL/MOL
REMARK 924 INTRA-LIGAND FREE ENERGY PREDICTED BY IDOCK:   -0.71 KCAL/MOL
REMARK 927      BINDING AFFINITY PREDICTED BY RF-SCORE:    0.00 PKD
ROOT
HETATM    1  C   UNL     1      -6.409  20.777  64.142  1.00  0.00    -0.330 C  
HETATM    2  C   UNL     1      -6.480  20.413  65.623  1.00  0.00    -0.278 C  
HETATM    3  C   UNL     1      -7.909  19.997  65.987  1.00  0.00    -0.307 C  
HETATM    4  C   UNL     1      -5.441  19.320  65.938  1.00  0.00    -0.176 C  
ENDROOT
BRANCH   4   5
HETATM    5  C   UNL     1      -5.463  18.926  67.409  1.00  0.00    -0.158 C  
BRANCH   5   6
HETATM    6  C   UNL     1      -5.165  17.447  67.631  1.00  0.00    -0.129 C  
HETATM    7  C   UNL     1      -6.083  16.841  68.710  1.00  0.00    -0.147 C  
HETATM    8  C   UNL     1      -7.568  16.960  68.338  1.00  0.00    -0.209 C  
HETATM    9  C   UNL     1      -5.674  15.378  68.956  1.00  0.00    -0.098 C  
BRANCH   9  10
HETATM   10  C   UNL     1      -6.551  14.722  70.017  1.00  0.00    -0.168 C  
BRANCH  10  11
HETATM   11  C   UNL     1      -7.779  14.056  69.416  1.00  0.00     0.250 C  
HETATM   12  C   UNL     1      -7.405  13.092  68.275  1.00  0.00    -0.116 C  
HETATM   13  C   UNL     1      -8.667  12.533  67.590  1.00  0.00    -0.177 C  
HETATM   14  C   UNL     1      -6.516  11.935  68.751  1.00  0.00    -0.071 C  
BRANCH  13  15
HETATM   15  C   UNL     1      -9.588  13.595  66.974  1.00  0.00    -0.251 C  
BRANCH  15  16
HETATM   16  C   UNL     1      -9.944  13.295  65.517  1.00  0.00    -0.222 C  
BRANCH  16  17
HETATM   17  C   UNL     1     -10.386  11.866  65.328  1.00  0.00    -0.316 C  
HETATM   18  C   UNL     1      -9.589  10.863  65.745  1.00  0.00    -0.259 C  
HETATM   19  C   UNL     1     -11.742  11.651  64.724  1.00  0.00    -0.121 C  
BRANCH  18  20
HETATM   20  C   UNL     1      -9.903   9.390  65.717  1.00  0.00    -0.345 C  
BRANCH  20  21
HETATM   21  C   UNL     1      -9.571   8.726  67.039  1.00  0.00    -0.236 C  
HETATM   22  C   UNL     1      -8.598   7.807  67.214  1.00  0.00    -0.128 C  
HETATM   23  C   UNL     1      -7.717   7.248  66.129  1.00  0.00    -0.101 C  
HETATM   24  C   UNL     1      -8.288   7.265  68.570  1.00  0.00    -0.125 C  
HETATM   25  O   UNL     1      -7.437   6.400  68.725  1.00  0.00    -0.084 OA 
HETATM   26  C   UNL     1      -9.016   7.808  69.726  1.00  0.00    -0.146 A  
HETATM   27  C   UNL     1     -10.036   8.730  69.545  1.00  0.00    -0.195 A  
HETATM   28  C   UNL     1     -10.405   9.174  68.193  1.00  0.00    -0.216 C  
HETATM   29  C   UNL     1     -10.729   9.235  70.653  1.00  0.00    -0.331 A  
HETATM   30  C   UNL     1     -10.389   8.818  71.942  1.00  0.00    -0.414 A  
HETATM   31  O   UNL     1     -11.374   9.909  68.044  1.00  0.00    -0.158 OA 
HETATM   32  C   UNL     1      -9.360   7.895  72.125  1.00  0.00    -0.225 A  
HETATM   33  C   UNL     1      -8.673   7.389  71.020  1.00  0.00    -0.139 A  
ENDBRANCH  20  21
ENDBRANCH  18  20
ENDBRANCH  16  17
ENDBRANCH  15  16
ENDBRANCH  13  15
ENDBRANCH  10  11
ENDBRANCH   9  10
ENDBRANCH   5   6
ENDBRANCH   4   5
TORSDOF 9
ENDMDL
MODEL      389
REMARK 921   NORMALIZED FREE ENERGY PREDICTED BY IDOCK:   -2.37 KCAL/MOL
REMARK 922        TOTAL FREE ENERGY PREDICTED BY IDOCK:   -6.82 KCAL/MOL
REMARK 923 INTER-LIGAND FREE ENERGY PREDICTED BY IDOCK:   -5.76 KCAL/MOL
REMARK 924 INTRA-LIGAND FREE ENERGY PREDICTED BY IDOCK:   -1.06 KCAL/MOL
REMARK 927      BINDING AFFINITY PREDICTED BY RF-SCORE:    0.00 PKD
ROOT
HETATM    1  C   UNL     1     -10.648   2.659  73.356  1.00  0.00    -0.258 C  
HETATM    2  C   UNL     1      -9.429   3.365  72.768  1.00  0.00    -0.153 C  
HETATM    3  C   UNL     1      -8.179   3.004  73.578  1.00  0.00    -0.073 C  
HETATM    4  C   UNL     1      -9.295   3.010  71.274  1.00  0.00    -0.208 C  
ENDROOT
BRANCH   4   5
HETATM    5  C   UNL     1      -8.096   3.698  70.635  1.00  0.00    -0.061 C  
BRANCH   5   6
HETATM    6  C   UNL     1      -8.011   5.182  70.977  1.00  0.00    -0.102 C  
HETATM    7  C   UNL     1      -8.831   6.037  69.992  1.00  0.00    -0.139 C  
HETATM    8  C   UNL     1     -10.318   5.648  69.991  1.00  0.00    -0.345 C  
HETATM    9  C   UNL     1      -8.632   7.524  70.330  1.00  0.00    -0.144 C  
BRANCH   9  10
HETATM   10  C   UNL     1      -9.424   8.423  69.386  1.00  0.00    -0.158 C  
BRANCH  10  11
HETATM   11  C   UNL     1      -8.531   9.131  68.381  1.00  0.00    -0.128 C  
HETATM   12  C   UNL     1      -8.830  10.641  68.313  1.00  0.00    -0.139 C  
HETATM   13  C   UNL     1      -8.013  11.315  67.194  1.00  0.00    -0.151 C  
HETATM   14  C   UNL     1      -8.570  11.351  69.648  1.00  0.00     0.957 C  
BRANCH  13  15
HETATM   15  C   UNL     1      -8.270  10.760  65.787  1.00  0.00    -0.146 C  
BRANCH  15  16
HETATM   16  C   UNL     1      -9.717  10.308  65.585  1.00  0.00    -0.308 C  
BRANCH  16  17
HETATM   17  C   UNL     1     -10.611  11.449  65.170  1.00  0.00    -0.352 C  
HETATM   18  C   UNL     1     -11.497  11.954  66.051  1.00  0.00    -0.344 C  
HETATM   19  C   UNL     1     -10.412  11.997  63.788  1.00  0.00    -0.469 C  
BRANCH  18  20
HETATM   20  C   UNL     1     -12.402  13.140  65.841  1.00  0.00    -0.462 C  
BRANCH  20  21
HETATM   21  C   UNL     1     -11.708  14.438  66.205  1.00  0.00    -0.384 C  
HETATM   22  C   UNL     1     -11.398  15.415  65.326  1.00  0.00    -0.243 C  
HETATM   23  C   UNL     1     -11.637  15.365  63.840  1.00  0.00     0.337 C  
HETATM   24  C   UNL     1     -10.785  16.696  65.787  1.00  0.00    -0.204 C  
HETATM   25  O   UNL     1     -10.463  17.566  64.988  1.00  0.00    -0.416 OA 
HETATM   26  C   UNL     1     -10.595  16.905  67.230  1.00  0.00    -0.270 A  
HETATM   27  C   UNL     1     -10.885  15.891  68.130  1.00  0.00    -0.317 A  
HETATM   28  C   UNL     1     -11.385  14.594  67.654  1.00  0.00    -0.336 C  
HETATM   29  C   UNL     1     -10.692  16.096  69.502  1.00  0.00    -0.313 A  
HETATM   30  C   UNL     1     -10.214  17.324  69.967  1.00  0.00     0.533 A  
HETATM   31  O   UNL     1     -11.538  13.677  68.452  1.00  0.00    -0.297 OA 
HETATM   32  C   UNL     1      -9.927  18.345  69.062  1.00  0.00    -0.304 A  
HETATM   33  C   UNL     1     -10.116  18.138  67.695  1.00  0.00    -0.367 A  
ENDBRANCH  20  21
ENDBRANCH  18  20
ENDBRANCH  16  17
ENDBRANCH  15  16
ENDBRANCH  13  15
ENDBRANCH  10  11
ENDBRANCH   9  10
ENDBRANCH   5   6
ENDBRANCH   4   5
TORSDOF 9
ENDMDL
MODEL      390
REMARK 921   NORMALIZED FREE ENERGY PREDICTED BY IDOCK:   -2.33 KCAL/MOL
REMARK 922        TOTAL FREE ENERGY PREDICTED BY IDOCK:   -6.76 KCAL/MOL
REMARK 923 INTER-LIGAND FREE ENERGY PREDICTED BY IDOCK:   -5.80 KCAL/MOL
REMARK 924 INTRA-LIGAND FREE ENERGY PREDICTED BY IDOCK:   -0.97 KCAL/MOL
REMARK 927      BINDING AFFINITY PREDICTED BY RF-SCORE:    0.00 PKD
ROOT
HETATM    1  C   UNL     1     -12.299  13.704  69.710  1.00  0.00    -0.285 C  
HETATM    2  C   UNL     1     -11.829  12.255  69.816  1.00  0.00    -0.388 C  
HETATM    3  C   UNL     1     -12.557  11.557  70.970  1.00  0.00    -0.457 C  
HETATM    4  C   UNL     1     -12.034  11.544  68.464  1.00  0.00    -0.293 C  
ENDROOT
BRANCH   4   5
HETATM    5  C   UNL     1     -11.572  10.094  68.512  1.00  0.00     0.013 C  
BRANCH   5   6
HETATM    6  C   UNL     1     -10.056   9.951  68.424  1.00  0.00    -0.189 C  
HETATM    7  C   UNL     1      -9.494  10.651  67.172  1.00  0.00    -0.177 C  
HETATM    8  C   UNL     1      -9.818  12.153  67.156  1.00  0.00    -0.205 C  
HETATM    9  C   UNL     1      -7.980  10.394  67.088  1.00  0.00    -0.115 C  
BRANCH   9  10
HETATM   10  C   UNL     1      -7.365  11.067  65.865  1.00  0.00     0.028 C  
BRANCH  10  11
HETATM   11  C   UNL     1      -7.042  10.071  64.763  1.00  0.00    -0.137 C  
HETATM   12  C   UNL     1      -8.304   9.346  64.259  1.00  0.00    -0.176 C  
HETATM   13  C   UNL     1      -7.939   8.246  63.243  1.00  0.00    -0.156 C  
HETATM   14  C   UNL     1      -9.325  10.309  63.639  1.00  0.00    -0.338 C  
BRANCH  13  15
HETATM   15  C   UNL     1      -7.003   7.157  63.783  1.00  0.00    -0.060 C  
BRANCH  15  16
HETATM   16  C   UNL     1      -7.133   5.837  63.022  1.00  0.00    -0.049 C  
BRANCH  16  17
HETATM   17  C   UNL     1      -7.542   4.703  63.928  1.00  0.00    -0.071 C  
HETATM   18  C   UNL     1      -8.843   4.365  64.024  1.00  0.00    -0.142 C  
HETATM   19  C   UNL     1      -6.441   3.972  64.638  1.00  0.00    -0.042 C  
BRANCH  18  20
HETATM   20  C   UNL     1      -9.420   3.214  64.806  1.00  0.00    -0.150 C  
BRANCH  20  21
HETATM   21  C   UNL     1      -9.451   3.512  66.292  1.00  0.00    -0.157 C  
HETATM   22  C   UNL     1      -8.777   2.812  67.230  1.00  0.00    -0.138 C  
HETATM   23  C   UNL     1      -7.930   1.594  66.972  1.00  0.00    -0.066 C  
HETATM   24  C   UNL     1      -8.802   3.226  68.663  1.00  0.00    -0.116 C  
HETATM   25  O   UNL     1      -8.229   2.569  69.522  1.00  0.00    -0.044 OA 
HETATM   26  C   UNL     1      -9.516   4.460  69.025  1.00  0.00    -0.237 A  
HETATM   27  C   UNL     1     -10.233   5.163  68.068  1.00  0.00    -0.178 A  
HETATM   28  C   UNL     1     -10.290   4.683  66.681  1.00  0.00    -0.160 C  
HETATM   29  C   UNL     1     -10.917   6.333  68.426  1.00  0.00    -0.409 A  
HETATM   30  C   UNL     1     -10.872   6.797  69.742  1.00  0.00    -0.316 A  
HETATM   31  O   UNL     1     -11.010   5.259  65.873  1.00  0.00    -0.113 OA 
HETATM   32  C   UNL     1     -10.147   6.093  70.703  1.00  0.00    -0.240 A  
HETATM   33  C   UNL     1      -9.470   4.925  70.347  1.00  0.00    -0.233 A  
ENDBRANCH  20  21
ENDBRANCH  18  20
ENDBRANCH  16  17
ENDBRANCH  15  16
ENDBRANCH  13  15
ENDBRANCH  10  11
ENDBRANCH   9  10
ENDBRANCH   5   6
ENDBRANCH   4   5
TORSDOF 9
ENDMDL
MODEL      391
REMARK 921   NORMALIZED FREE ENERGY PREDICTED BY IDOCK:   -2.30 KCAL/MOL
REMARK 922        TOTAL FREE ENERGY PREDICTED BY IDOCK:   -6.72 KCAL/MOL
REMARK 923 INTER-LIGAND FREE ENERGY PREDICTED BY IDOCK:   -6.76 KCAL/MOL
REMARK 924 INTRA-LIGAND FREE ENERGY PREDICTED BY IDOCK:    0.04 KCAL/MOL
REMARK 927      BINDING AFFINITY PREDICTED BY RF-SCORE:    0.00 PKD
ROOT
HETATM    1  C   UNL     1      -7.462  12.148  68.054  1.00  0.00    -0.116 C  
HETATM    2  C   UNL     1      -6.454  11.233  68.746  1.00  0.00    -0.058 C  
HETATM    3  C   UNL     1      -5.131  11.979  68.950  1.00  0.00    -0.050 C  
HETATM    4  C   UNL     1      -7.052  10.706  70.065  1.00  0.00    -0.095 C  
ENDROOT
BRANCH   4   5
HETATM    5  C   UNL     1      -6.088   9.779  70.792  1.00  0.00    -0.092 C  
BRANCH   5   6
HETATM    6  C   UNL     1      -6.154   8.341  70.287  1.00  0.00    -0.031 C  
HETATM    7  C   UNL     1      -7.475   7.659  70.691  1.00  0.00    -0.072 C  
HETATM    8  C   UNL     1      -8.701   8.400  70.134  1.00  0.00    -0.136 C  
HETATM    9  C   UNL     1      -7.444   6.190  70.237  1.00  0.00    -0.090 C  
BRANCH   9  10
HETATM   10  C   UNL     1      -8.730   5.461  70.609  1.00  0.00    -0.135 C  
BRANCH  10  11
HETATM   11  C   UNL     1      -9.723   5.423  69.458  1.00  0.00    -0.238 C  
HETATM   12  C   UNL     1      -9.326   4.382  68.395  1.00  0.00    -0.203 C  
HETATM   13  C   UNL     1     -10.265   4.455  67.175  1.00  0.00    -0.023 C  
HETATM   14  C   UNL     1      -9.306   2.953  68.952  1.00  0.00    -0.226 C  
BRANCH  13  15
HETATM   15  C   UNL     1     -10.288   5.813  66.462  1.00  0.00    -0.265 C  
BRANCH  15  16
HETATM   16  C   UNL     1     -10.458   6.986  67.428  1.00  0.00    -0.343 C  
BRANCH  16  17
HETATM   17  C   UNL     1      -9.944   8.277  66.843  1.00  0.00    -0.343 C  
HETATM   18  C   UNL     1     -10.761   9.347  66.774  1.00  0.00    -0.129 C  
HETATM   19  C   UNL     1      -8.507   8.302  66.416  1.00  0.00    -0.125 C  
BRANCH  18  20
HETATM   20  C   UNL     1     -10.395  10.731  66.305  1.00  0.00    -0.303 C  
BRANCH  20  21
HETATM   21  C   UNL     1     -10.870  11.791  67.279  1.00  0.00    -0.300 C  
HETATM   22  C   UNL     1     -11.337  11.539  68.520  1.00  0.00    -0.337 C  
HETATM   23  C   UNL     1     -11.513  10.174  69.129  1.00  0.00    -0.155 C  
HETATM   24  C   UNL     1     -11.709  12.653  69.442  1.00  0.00    -0.325 C  
HETATM   25  O   UNL     1     -12.173  12.428  70.551  1.00  0.00    -0.361 OA 
HETATM   26  C   UNL     1     -11.486  14.036  68.996  1.00  0.00    -0.337 A  
HETATM   27  C   UNL     1     -11.035  14.297  67.711  1.00  0.00    -0.275 A  
HETATM   28  C   UNL     1     -10.777  13.193  66.776  1.00  0.00    -0.267 C  
HETATM   29  C   UNL     1     -10.835  15.619  67.294  1.00  0.00    -0.298 A  
HETATM   30  C   UNL     1     -11.080  16.677  68.172  1.00  0.00    -0.285 A  
HETATM   31  O   UNL     1     -10.479  13.445  65.614  1.00  0.00    -0.279 OA 
HETATM   32  C   UNL     1     -11.528  16.415  69.467  1.00  0.00    -0.124 A  
HETATM   33  C   UNL     1     -11.732  15.097  69.880  1.00  0.00    -0.346 A  
ENDBRANCH  20  21
ENDBRANCH  18  20
ENDBRANCH  16  17
ENDBRANCH  15  16
ENDBRANCH  13  15
ENDBRANCH  10  11
ENDBRANCH   9  10
ENDBRANCH   5   6
ENDBRANCH   4   5
TORSDOF 9
ENDMDL
MODEL      392
REMARK 921   NORMALIZED FREE ENERGY PREDICTED BY IDOCK:   -2.30 KCAL/MOL
REMARK 922        TOTAL FREE ENERGY PREDICTED BY IDOCK:   -6.71 KCAL/MOL
REMARK 923 INTER-LIGAND FREE ENERGY PREDICTED BY IDOCK:   -3.50 KCAL/MOL
REMARK 924 INTRA-LIGAND FREE ENERGY PREDICTED BY IDOCK:   -3.21 KCAL/MOL
REMARK 927      BINDING AFFINITY PREDICTED BY RF-SCORE:    0.00 PKD
ROOT
HETATM    1  C   UNL     1      -9.525   3.990  70.314  1.00  0.00    -0.255 C  
HETATM    2  C   UNL     1      -8.302   4.039  69.401  1.00  0.00    -0.078 C  
HETATM    3  C   UNL     1      -7.072   3.520  70.153  1.00  0.00    -0.041 C  
HETATM    4  C   UNL     1      -8.588   3.252  68.108  1.00  0.00    -0.118 C  
ENDROOT
BRANCH   4   5
HETATM    5  C   UNL     1      -7.400   3.277  67.156  1.00  0.00    -0.059 C  
BRANCH   5   6
HETATM    6  C   UNL     1      -6.944   4.692  66.814  1.00  0.00    -0.060 C  
HETATM    7  C   UNL     1      -6.898   4.918  65.290  1.00  0.00    -0.060 C  
HETATM    8  C   UNL     1      -8.270   4.706  64.633  1.00  0.00    -0.113 C  
HETATM    9  C   UNL     1      -6.343   6.325  65.007  1.00  0.00    -0.034 C  
BRANCH   9  10
HETATM   10  C   UNL     1      -6.275   6.609  63.511  1.00  0.00    -0.038 C  
BRANCH  10  11
HETATM   11  C   UNL     1      -7.131   7.801  63.112  1.00  0.00    -0.083 C  
HETATM   12  C   UNL     1      -6.737   9.072  63.888  1.00  0.00    -0.088 C  
HETATM   13  C   UNL     1      -7.703  10.231  63.572  1.00  0.00    -0.115 C  
HETATM   14  C   UNL     1      -5.293   9.507  63.608  1.00  0.00    -0.070 C  
BRANCH  13  15
HETATM   15  C   UNL     1      -9.173   9.955  63.914  1.00  0.00    -0.295 C  
BRANCH  15  16
HETATM   16  C   UNL     1      -9.451  10.011  65.416  1.00  0.00    -0.310 C  
BRANCH  16  17
HETATM   17  C   UNL     1      -9.045   8.737  66.113  1.00  0.00    -0.251 C  
HETATM   18  C   UNL     1      -8.153   8.786  67.122  1.00  0.00    -0.100 C  
HETATM   19  C   UNL     1      -9.719   7.475  65.662  1.00  0.00     0.678 C  
BRANCH  18  20
HETATM   20  C   UNL     1      -7.700   7.635  67.982  1.00  0.00    -0.119 C  
BRANCH  20  21
HETATM   21  C   UNL     1      -7.976   7.896  69.449  1.00  0.00    -0.117 C  
HETATM   22  C   UNL     1      -9.203   7.888  70.013  1.00  0.00    -0.153 C  
HETATM   23  C   UNL     1     -10.502   7.673  69.282  1.00  0.00    -0.220 C  
HETATM   24  C   UNL     1      -9.373   8.078  71.484  1.00  0.00    -0.153 C  
HETATM   25  O   UNL     1     -10.486   8.115  71.991  1.00  0.00    -0.224 OA 
HETATM   26  C   UNL     1      -8.170   8.198  72.320  1.00  0.00    -0.205 A  
HETATM   27  C   UNL     1      -6.911   8.237  71.739  1.00  0.00    -0.084 A  
HETATM   28  C   UNL     1      -6.764   8.159  70.279  1.00  0.00    -0.037 C  
HETATM   29  C   UNL     1      -5.772   8.361  72.545  1.00  0.00    -0.055 A  
HETATM   30  C   UNL     1      -5.900   8.438  73.933  1.00  0.00    -0.108 A  
HETATM   31  O   UNL     1      -5.655   8.298  69.777  1.00  0.00    -0.026 OA 
HETATM   32  C   UNL     1      -7.165   8.395  74.518  1.00  0.00    -0.244 A  
HETATM   33  C   UNL     1      -8.300   8.276  73.714  1.00  0.00    -0.265 A  
ENDBRANCH  20  21
ENDBRANCH  18  20
ENDBRANCH  16  17
ENDBRANCH  15  16
ENDBRANCH  13  15
ENDBRANCH  10  11
ENDBRANCH   9  10
ENDBRANCH   5   6
ENDBRANCH   4   5
TORSDOF 9
ENDMDL
MODEL      393
REMARK 921   NORMALIZED FREE ENERGY PREDICTED BY IDOCK:   -2.30 KCAL/MOL
REMARK 922        TOTAL FREE ENERGY PREDICTED BY IDOCK:   -6.71 KCAL/MOL
REMARK 923 INTER-LIGAND FREE ENERGY PREDICTED BY IDOCK:   -6.91 KCAL/MOL
REMARK 924 INTRA-LIGAND FREE ENERGY PREDICTED BY IDOCK:    0.20 KCAL/MOL
REMARK 927      BINDING AFFINITY PREDICTED BY RF-SCORE:    0.00 PKD
ROOT
HETATM    1  C   UNL     1      -7.486   8.232  74.564  1.00  0.00    -0.273 C  
HETATM    2  C   UNL     1      -8.222   7.227  73.682  1.00  0.00    -0.155 C  
HETATM    3  C   UNL     1      -9.460   6.701  74.416  1.00  0.00    -0.279 C  
HETATM    4  C   UNL     1      -8.563   7.877  72.327  1.00  0.00    -0.193 C  
ENDROOT
BRANCH   4   5
HETATM    5  C   UNL     1      -9.292   6.912  71.403  1.00  0.00    -0.156 C  
BRANCH   5   6
HETATM    6  C   UNL     1     -10.703   7.376  71.054  1.00  0.00    -0.244 C  
HETATM    7  C   UNL     1     -10.859   8.898  71.238  1.00  0.00    -0.360 C  
HETATM    8  C   UNL     1      -9.882   9.689  70.354  1.00  0.00    -0.315 C  
HETATM    9  C   UNL     1     -12.320   9.291  70.963  1.00  0.00    -0.300 C  
BRANCH   9  10
HETATM   10  C   UNL     1     -12.537  10.792  71.128  1.00  0.00    -0.532 C  
BRANCH  10  11
HETATM   11  C   UNL     1     -11.834  11.596  70.046  1.00  0.00    -0.435 C  
HETATM   12  C   UNL     1     -12.484  12.979  69.849  1.00  0.00    -0.061 C  
HETATM   13  C   UNL     1     -11.847  13.721  68.658  1.00  0.00    -0.409 C  
HETATM   14  C   UNL     1     -12.404  13.850  71.109  1.00  0.00    -0.440 C  
BRANCH  13  15
HETATM   15  C   UNL     1     -11.960  12.995  67.311  1.00  0.00    -0.379 C  
BRANCH  15  16
HETATM   16  C   UNL     1     -11.055  13.598  66.236  1.00  0.00    -0.304 C  
BRANCH  16  17
HETATM   17  C   UNL     1      -9.636  13.103  66.353  1.00  0.00    -0.259 C  
HETATM   18  C   UNL     1      -9.354  11.817  66.063  1.00  0.00    -0.231 C  
HETATM   19  C   UNL     1      -8.596  14.113  66.740  1.00  0.00    -0.097 C  
BRANCH  18  20
HETATM   20  C   UNL     1      -7.991  11.176  66.040  1.00  0.00    -0.041 C  
BRANCH  20  21
HETATM   21  C   UNL     1      -8.082   9.689  65.760  1.00  0.00    -0.113 C  
HETATM   22  C   UNL     1      -8.912   8.837  66.399  1.00  0.00    -0.194 C  
HETATM   23  C   UNL     1      -9.844   9.200  67.524  1.00  0.00    -0.227 C  
HETATM   24  C   UNL     1      -8.992   7.400  66.002  1.00  0.00    -0.121 C  
HETATM   25  O   UNL     1      -9.710   6.616  66.607  1.00  0.00    -0.169 OA 
HETATM   26  C   UNL     1      -8.202   6.946  64.848  1.00  0.00    -0.074 A  
HETATM   27  C   UNL     1      -7.326   7.812  64.211  1.00  0.00    -0.089 A  
HETATM   28  C   UNL     1      -7.176   9.196  64.681  1.00  0.00    -0.098 C  
HETATM   29  C   UNL     1      -6.571   7.366  63.118  1.00  0.00    -0.054 A  
HETATM   30  C   UNL     1      -6.703   6.053  62.664  1.00  0.00    -0.040 A  
HETATM   31  O   UNL     1      -6.325   9.917  64.173  1.00  0.00    -0.112 OA 
HETATM   32  C   UNL     1      -7.586   5.183  63.301  1.00  0.00    -0.063 A  
HETATM   33  C   UNL     1      -8.335   5.626  64.393  1.00  0.00    -0.093 A  
ENDBRANCH  20  21
ENDBRANCH  18  20
ENDBRANCH  16  17
ENDBRANCH  15  16
ENDBRANCH  13  15
ENDBRANCH  10  11
ENDBRANCH   9  10
ENDBRANCH   5   6
ENDBRANCH   4   5
TORSDOF 9
ENDMDL
MODEL      394
REMARK 921   NORMALIZED FREE ENERGY PREDICTED BY IDOCK:   -2.26 KCAL/MOL
REMARK 922        TOTAL FREE ENERGY PREDICTED BY IDOCK:   -6.66 KCAL/MOL
REMARK 923 INTER-LIGAND FREE ENERGY PREDICTED BY IDOCK:   -6.23 KCAL/MOL
REMARK 924 INTRA-LIGAND FREE ENERGY PREDICTED BY IDOCK:   -0.43 KCAL/MOL
REMARK 927      BINDING AFFINITY PREDICTED BY RF-SCORE:    0.00 PKD
ROOT
HETATM    1  C   UNL     1     -12.929  14.944  73.364  1.00  0.00    -0.597 C  
HETATM    2  C   UNL     1     -12.532  14.763  71.901  1.00  0.00    -0.410 C  
HETATM    3  C   UNL     1     -11.053  15.122  71.717  1.00  0.00    -0.153 C  
HETATM    4  C   UNL     1     -12.858  13.326  71.449  1.00  0.00    -0.411 C  
ENDROOT
BRANCH   4   5
HETATM    5  C   UNL     1     -12.488  13.095  69.991  1.00  0.00    -0.143 C  
BRANCH   5   6
HETATM    6  C   UNL     1     -11.994  11.677  69.722  1.00  0.00    -0.402 C  
HETATM    7  C   UNL     1     -11.897  10.856  71.023  1.00  0.00    -0.294 C  
HETATM    8  C   UNL     1     -13.253  10.744  71.737  1.00  0.00    -0.523 C  
HETATM    9  C   UNL     1     -11.307   9.472  70.703  1.00  0.00    -0.364 C  
BRANCH   9  10
HETATM   10  C   UNL     1     -11.188   8.611  71.956  1.00  0.00    -0.434 C  
BRANCH  10  11
HETATM   11  C   UNL     1     -10.046   7.612  71.861  1.00  0.00    -0.218 C  
HETATM   12  C   UNL     1     -10.556   6.185  71.583  1.00  0.00    -0.276 C  
HETATM   13  C   UNL     1      -9.399   5.168  71.628  1.00  0.00    -0.183 C  
HETATM   14  C   UNL     1     -11.293   6.077  70.242  1.00  0.00    -0.336 C  
BRANCH  13  15
HETATM   15  C   UNL     1      -8.649   5.106  72.965  1.00  0.00    -0.114 C  
BRANCH  15  16
HETATM   16  C   UNL     1      -7.739   3.881  73.076  1.00  0.00    -0.075 C  
BRANCH  16  17
HETATM   17  C   UNL     1      -7.237   3.429  71.728  1.00  0.00    -0.043 C  
HETATM   18  C   UNL     1      -6.499   4.270  70.977  1.00  0.00    -0.029 C  
HETATM   19  C   UNL     1      -7.554   2.019  71.326  1.00  0.00    -0.036 C  
BRANCH  18  20
HETATM   20  C   UNL     1      -5.846   3.961  69.655  1.00  0.00    -0.018 C  
BRANCH  20  21
HETATM   21  C   UNL     1      -6.770   4.270  68.495  1.00  0.00    -0.047 C  
HETATM   22  C   UNL     1      -7.300   5.485  68.236  1.00  0.00    -0.073 C  
HETATM   23  C   UNL     1      -7.109   6.720  69.076  1.00  0.00    -0.089 C  
HETATM   24  C   UNL     1      -8.138   5.715  67.023  1.00  0.00    -0.102 C  
HETATM   25  O   UNL     1      -8.655   6.803  66.809  1.00  0.00    -0.114 OA 
HETATM   26  C   UNL     1      -8.315   4.608  66.072  1.00  0.00    -0.114 A  
HETATM   27  C   UNL     1      -7.797   3.352  66.350  1.00  0.00    -0.084 A  
HETATM   28  C   UNL     1      -7.066   3.111  67.602  1.00  0.00    -0.050 C  
HETATM   29  C   UNL     1      -7.980   2.302  65.441  1.00  0.00    -0.078 A  
HETATM   30  C   UNL     1      -8.675   2.519  64.250  1.00  0.00    -0.097 A  
HETATM   31  O   UNL     1      -6.706   1.973  67.879  1.00  0.00    -0.034 OA 
HETATM   32  C   UNL     1      -9.191   3.783  63.967  1.00  0.00    -0.135 A  
HETATM   33  C   UNL     1      -9.014   4.828  64.875  1.00  0.00    -0.151 A  
ENDBRANCH  20  21
ENDBRANCH  18  20
ENDBRANCH  16  17
ENDBRANCH  15  16
ENDBRANCH  13  15
ENDBRANCH  10  11
ENDBRANCH   9  10
ENDBRANCH   5   6
ENDBRANCH   4   5
TORSDOF 9
ENDMDL
MODEL      395
REMARK 921   NORMALIZED FREE ENERGY PREDICTED BY IDOCK:   -2.21 KCAL/MOL
REMARK 922        TOTAL FREE ENERGY PREDICTED BY IDOCK:   -6.58 KCAL/MOL
REMARK 923 INTER-LIGAND FREE ENERGY PREDICTED BY IDOCK:   -5.76 KCAL/MOL
REMARK 924 INTRA-LIGAND FREE ENERGY PREDICTED BY IDOCK:   -0.81 KCAL/MOL
REMARK 927      BINDING AFFINITY PREDICTED BY RF-SCORE:    0.00 PKD
ROOT
HETATM    1  C   UNL     1     -10.360  17.572  69.271  1.00  0.00    -0.160 C  
HETATM    2  C   UNL     1     -10.800  16.114  69.164  1.00  0.00    -0.298 C  
HETATM    3  C   UNL     1      -9.573  15.197  69.206  1.00  0.00    -0.218 C  
HETATM    4  C   UNL     1     -11.820  15.797  70.274  1.00  0.00    -0.369 C  
ENDROOT
BRANCH   4   5
HETATM    5  C   UNL     1     -12.300  14.353  70.206  1.00  0.00    -0.410 C  
BRANCH   5   6
HETATM    6  C   UNL     1     -12.259  13.781  68.793  1.00  0.00    -0.221 C  
HETATM    7  C   UNL     1     -11.619  12.379  68.769  1.00  0.00    -0.373 C  
HETATM    8  C   UNL     1     -12.386  11.380  69.649  1.00  0.00    -0.236 C  
HETATM    9  C   UNL     1     -11.521  11.895  67.312  1.00  0.00    -0.385 C  
BRANCH   9  10
HETATM   10  C   UNL     1     -10.895  10.507  67.224  1.00  0.00    -0.338 C  
BRANCH  10  11
HETATM   11  C   UNL     1      -9.485  10.546  66.657  1.00  0.00    -0.199 C  
HETATM   12  C   UNL     1      -9.481  10.922  65.163  1.00  0.00    -0.268 C  
HETATM   13  C   UNL     1      -8.059  10.821  64.575  1.00  0.00     0.134 C  
HETATM   14  C   UNL     1     -10.052  12.323  64.909  1.00  0.00    -0.274 C  
BRANCH  13  15
HETATM   15  C   UNL     1      -7.420   9.430  64.672  1.00  0.00    -0.108 C  
BRANCH  15  16
HETATM   16  C   UNL     1      -6.425   9.316  65.827  1.00  0.00    -0.068 C  
BRANCH  16  17
HETATM   17  C   UNL     1      -6.514   7.979  66.517  1.00  0.00    -0.051 C  
HETATM   18  C   UNL     1      -7.646   7.639  67.165  1.00  0.00    -0.104 C  
HETATM   19  C   UNL     1      -5.329   7.069  66.386  1.00  0.00    -0.022 C  
BRANCH  18  20
HETATM   20  C   UNL     1      -7.943   6.320  67.831  1.00  0.00    -0.111 C  
BRANCH  20  21
HETATM   21  C   UNL     1      -8.626   5.359  66.879  1.00  0.00    -0.109 C  
HETATM   22  C   UNL     1      -9.893   5.492  66.431  1.00  0.00    -0.192 C  
HETATM   23  C   UNL     1     -10.855   6.576  66.836  1.00  0.00    -0.427 C  
HETATM   24  C   UNL     1     -10.457   4.539  65.431  1.00  0.00    -0.184 C  
HETATM   25  O   UNL     1     -11.619   4.630  65.057  1.00  0.00    -0.013 OA 
HETATM   26  C   UNL     1      -9.580   3.494  64.883  1.00  0.00    -0.166 A  
HETATM   27  C   UNL     1      -8.288   3.338  65.364  1.00  0.00    -0.099 A  
HETATM   28  C   UNL     1      -7.780   4.215  66.428  1.00  0.00    -0.090 C  
HETATM   29  C   UNL     1      -7.464   2.333  64.842  1.00  0.00    -0.067 A  
HETATM   30  C   UNL     1      -7.936   1.492  63.832  1.00  0.00    -0.061 A  
HETATM   31  O   UNL     1      -6.675   3.997  66.912  1.00  0.00    -0.045 OA 
HETATM   32  C   UNL     1      -9.233   1.652  63.345  1.00  0.00    -0.093 A  
HETATM   33  C   UNL     1     -10.056   2.650  63.869  1.00  0.00    -0.139 A  
ENDBRANCH  20  21
ENDBRANCH  18  20
ENDBRANCH  16  17
ENDBRANCH  15  16
ENDBRANCH  13  15
ENDBRANCH  10  11
ENDBRANCH   9  10
ENDBRANCH   5   6
ENDBRANCH   4   5
TORSDOF 9
ENDMDL
MODEL      396
REMARK 921   NORMALIZED FREE ENERGY PREDICTED BY IDOCK:   -2.20 KCAL/MOL
REMARK 922        TOTAL FREE ENERGY PREDICTED BY IDOCK:   -6.56 KCAL/MOL
REMARK 923 INTER-LIGAND FREE ENERGY PREDICTED BY IDOCK:   -6.41 KCAL/MOL
REMARK 924 INTRA-LIGAND FREE ENERGY PREDICTED BY IDOCK:   -0.15 KCAL/MOL
REMARK 927      BINDING AFFINITY PREDICTED BY RF-SCORE:    0.00 PKD
ROOT
HETATM    1  C   UNL     1      -6.476  20.648  68.026  1.00  0.00    -0.355 C  
HETATM    2  C   UNL     1      -7.016  19.490  67.191  1.00  0.00    -0.218 C  
HETATM    3  C   UNL     1      -6.723  19.738  65.708  1.00  0.00    -0.281 C  
HETATM    4  C   UNL     1      -6.425  18.162  67.703  1.00  0.00    -0.193 C  
ENDROOT
BRANCH   4   5
HETATM    5  C   UNL     1      -6.939  16.970  66.907  1.00  0.00    -0.251 C  
BRANCH   5   6
HETATM    6  C   UNL     1      -8.462  16.889  66.879  1.00  0.00    -0.243 C  
HETATM    7  C   UNL     1      -9.035  16.531  68.264  1.00  0.00    -0.214 C  
HETATM    8  C   UNL     1      -8.648  17.565  69.333  1.00  0.00     0.445 C  
HETATM    9  C   UNL     1     -10.561  16.372  68.152  1.00  0.00    -0.318 C  
BRANCH   9  10
HETATM   10  C   UNL     1     -11.187  16.019  69.497  1.00  0.00    -0.348 C  
BRANCH  10  11
HETATM   11  C   UNL     1     -11.967  14.715  69.444  1.00  0.00    -0.351 C  
HETATM   12  C   UNL     1     -12.247  14.159  70.853  1.00  0.00    -0.434 C  
HETATM   13  C   UNL     1     -12.915  12.772  70.774  1.00  0.00     0.007 C  
HETATM   14  C   UNL     1     -13.110  15.106  71.697  1.00  0.00    -0.471 C  
BRANCH  13  15
HETATM   15  C   UNL     1     -12.094  11.703  70.043  1.00  0.00    -0.395 C  
BRANCH  15  16
HETATM   16  C   UNL     1     -11.550  12.190  68.699  1.00  0.00    -0.372 C  
BRANCH  16  17
HETATM   17  C   UNL     1     -10.132  11.735  68.467  1.00  0.00    -0.212 C  
HETATM   18  C   UNL     1      -9.768  10.485  68.818  1.00  0.00    -0.187 C  
HETATM   19  C   UNL     1      -9.210  12.708  67.794  1.00  0.00    -0.195 C  
BRANCH  18  20
HETATM   20  C   UNL     1      -8.429   9.836  68.583  1.00  0.00    -0.116 C  
BRANCH  20  21
HETATM   21  C   UNL     1      -8.499   8.808  67.472  1.00  0.00    -0.120 C  
HETATM   22  C   UNL     1      -8.181   9.049  66.182  1.00  0.00    -0.115 C  
HETATM   23  C   UNL     1      -7.757  10.380  65.618  1.00  0.00    -0.150 C  
HETATM   24  C   UNL     1      -8.203   7.954  65.168  1.00  0.00    -0.141 C  
HETATM   25  O   UNL     1      -7.958   8.179  63.990  1.00  0.00    -0.140 OA 
HETATM   26  C   UNL     1      -8.505   6.587  65.617  1.00  0.00    -0.146 A  
HETATM   27  C   UNL     1      -8.861   6.343  66.935  1.00  0.00    -0.119 A  
HETATM   28  C   UNL     1      -8.942   7.449  67.900  1.00  0.00    -0.131 C  
HETATM   29  C   UNL     1      -9.156   5.038  67.351  1.00  0.00    -0.120 A  
HETATM   30  C   UNL     1      -9.084   3.980  66.442  1.00  0.00    -0.140 A  
HETATM   31  O   UNL     1      -9.357   7.231  69.032  1.00  0.00    -0.148 OA 
HETATM   32  C   UNL     1      -8.722   4.225  65.118  1.00  0.00    -0.126 A  
HETATM   33  C   UNL     1      -8.433   5.526  64.704  1.00  0.00    -0.108 A  
ENDBRANCH  20  21
ENDBRANCH  18  20
ENDBRANCH  16  17
ENDBRANCH  15  16
ENDBRANCH  13  15
ENDBRANCH  10  11
ENDBRANCH   9  10
ENDBRANCH   5   6
ENDBRANCH   4   5
TORSDOF 9
ENDMDL
MODEL      397
REMARK 921   NORMALIZED FREE ENERGY PREDICTED BY IDOCK:   -2.20 KCAL/MOL
REMARK 922        TOTAL FREE ENERGY PREDICTED BY IDOCK:   -6.55 KCAL/MOL
REMARK 923 INTER-LIGAND FREE ENERGY PREDICTED BY IDOCK:   -6.03 KCAL/MOL
REMARK 924 INTRA-LIGAND FREE ENERGY PREDICTED BY IDOCK:   -0.52 KCAL/MOL
REMARK 927      BINDING AFFINITY PREDICTED BY RF-SCORE:    0.00 PKD
ROOT
HETATM    1  C   UNL     1     -10.568  20.546  68.857  1.00  0.00     0.326 C  
HETATM    2  C   UNL     1     -10.133  19.468  67.867  1.00  0.00    -0.531 C  
HETATM    3  C   UNL     1      -8.723  19.776  67.352  1.00  0.00    -0.385 C  
HETATM    4  C   UNL     1     -10.237  18.082  68.531  1.00  0.00    -0.392 C  
ENDROOT
BRANCH   4   5
HETATM    5  C   UNL     1      -9.823  16.967  67.580  1.00  0.00    -0.259 C  
BRANCH   5   6
HETATM    6  C   UNL     1     -10.747  15.756  67.648  1.00  0.00    -0.310 C  
HETATM    7  C   UNL     1      -9.955  14.451  67.858  1.00  0.00    -0.228 C  
HETATM    8  C   UNL     1      -9.135  14.477  69.157  1.00  0.00     0.025 C  
HETATM    9  C   UNL     1     -10.928  13.260  67.824  1.00  0.00    -0.278 C  
BRANCH   9  10
HETATM   10  C   UNL     1     -10.200  11.936  68.030  1.00  0.00    -0.199 C  
BRANCH  10  11
HETATM   11  C   UNL     1      -9.540  11.438  66.754  1.00  0.00    -0.207 C  
HETATM   12  C   UNL     1     -10.565  11.234  65.622  1.00  0.00    -0.303 C  
HETATM   13  C   UNL     1      -9.899  10.600  64.385  1.00  0.00    -0.395 C  
HETATM   14  C   UNL     1     -11.266  12.539  65.225  1.00  0.00    -0.341 C  
BRANCH  13  15
HETATM   15  C   UNL     1      -9.253   9.231  64.633  1.00  0.00    -0.112 C  
BRANCH  15  16
HETATM   16  C   UNL     1      -7.781   9.336  65.032  1.00  0.00    -0.109 C  
BRANCH  16  17
HETATM   17  C   UNL     1      -7.410   8.327  66.089  1.00  0.00    -0.077 C  
HETATM   18  C   UNL     1      -8.382   7.722  66.801  1.00  0.00    -0.125 C  
HETATM   19  C   UNL     1      -5.952   8.013  66.245  1.00  0.00    -0.041 C  
BRANCH  18  20
HETATM   20  C   UNL     1      -8.205   6.635  67.828  1.00  0.00    -0.119 C  
BRANCH  20  21
HETATM   21  C   UNL     1      -8.338   7.176  69.237  1.00  0.00    -0.133 C  
HETATM   22  C   UNL     1      -9.340   7.973  69.662  1.00  0.00    -0.156 C  
HETATM   23  C   UNL     1     -10.461   8.502  68.807  1.00  0.00    -0.208 C  
HETATM   24  C   UNL     1      -9.434   8.395  71.091  1.00  0.00    -0.179 C  
HETATM   25  O   UNL     1     -10.316   9.153  71.470  1.00  0.00    -0.320 OA 
HETATM   26  C   UNL     1      -8.451   7.861  72.046  1.00  0.00    -0.169 A  
HETATM   27  C   UNL     1      -7.404   7.066  71.606  1.00  0.00    -0.083 A  
HETATM   28  C   UNL     1      -7.261   6.748  70.178  1.00  0.00    -0.076 C  
HETATM   29  C   UNL     1      -6.468   6.570  72.523  1.00  0.00    -0.059 A  
HETATM   30  C   UNL     1      -6.592   6.867  73.882  1.00  0.00    -0.071 A  
HETATM   31  O   UNL     1      -6.274   6.132  69.794  1.00  0.00    -0.025 OA 
HETATM   32  C   UNL     1      -7.648   7.662  74.325  1.00  0.00    -0.179 A  
HETATM   33  C   UNL     1      -8.577   8.160  73.410  1.00  0.00    -0.313 A  
ENDBRANCH  20  21
ENDBRANCH  18  20
ENDBRANCH  16  17
ENDBRANCH  15  16
ENDBRANCH  13  15
ENDBRANCH  10  11
ENDBRANCH   9  10
ENDBRANCH   5   6
ENDBRANCH   4   5
TORSDOF 9
ENDMDL
MODEL      398
REMARK 921   NORMALIZED FREE ENERGY PREDICTED BY IDOCK:   -2.15 KCAL/MOL
REMARK 922        TOTAL FREE ENERGY PREDICTED BY IDOCK:   -6.49 KCAL/MOL
REMARK 923 INTER-LIGAND FREE ENERGY PREDICTED BY IDOCK:   -6.02 KCAL/MOL
REMARK 924 INTRA-LIGAND FREE ENERGY PREDICTED BY IDOCK:   -0.47 KCAL/MOL
REMARK 927      BINDING AFFINITY PREDICTED BY RF-SCORE:    0.00 PKD
ROOT
HETATM    1  C   UNL     1     -10.694  20.788  68.968  1.00  0.00     0.707 C  
HETATM    2  C   UNL     1     -10.612  19.750  67.851  1.00  0.00    -0.468 C  
HETATM    3  C   UNL     1      -9.453  20.092  66.909  1.00  0.00    -0.543 C  
HETATM    4  C   UNL     1     -10.488  18.340  68.462  1.00  0.00    -0.241 C  
ENDROOT
BRANCH   4   5
HETATM    5  C   UNL     1     -10.412  17.264  67.388  1.00  0.00    -0.338 C  
BRANCH   5   6
HETATM    6  C   UNL     1     -11.009  15.934  67.838  1.00  0.00    -0.327 C  
HETATM    7  C   UNL     1     -10.189  14.740  67.313  1.00  0.00    -0.241 C  
HETATM    8  C   UNL     1      -8.733  14.780  67.802  1.00  0.00    -0.173 C  
HETATM    9  C   UNL     1     -10.889  13.431  67.718  1.00  0.00    -0.267 C  
BRANCH   9  10
HETATM   10  C   UNL     1     -10.120  12.209  67.227  1.00  0.00    -0.214 C  
BRANCH  10  11
HETATM   11  C   UNL     1      -9.928  12.218  65.719  1.00  0.00    -0.273 C  
HETATM   12  C   UNL     1     -11.238  11.897  64.974  1.00  0.00    -0.350 C  
HETATM   13  C   UNL     1     -10.993  11.775  63.458  1.00  0.00    -0.499 C  
HETATM   14  C   UNL     1     -12.335  12.936  65.243  1.00  0.00    -0.544 C  
BRANCH  13  15
HETATM   15  C   UNL     1      -9.990  10.688  63.053  1.00  0.00    -0.239 C  
BRANCH  15  16
HETATM   16  C   UNL     1      -8.552  11.036  63.442  1.00  0.00     0.048 C  
BRANCH  16  17
HETATM   17  C   UNL     1      -7.851   9.876  64.103  1.00  0.00    -0.142 C  
HETATM   18  C   UNL     1      -8.580   8.902  64.683  1.00  0.00    -0.169 C  
HETATM   19  C   UNL     1      -6.353   9.854  64.021  1.00  0.00    -0.126 C  
BRANCH  18  20
HETATM   20  C   UNL     1      -8.056   7.635  65.309  1.00  0.00    -0.133 C  
BRANCH  20  21
HETATM   21  C   UNL     1      -8.198   7.663  66.818  1.00  0.00    -0.124 C  
HETATM   22  C   UNL     1      -9.306   8.061  67.478  1.00  0.00    -0.171 C  
HETATM   23  C   UNL     1     -10.563   8.589  66.840  1.00  0.00    -0.279 C  
HETATM   24  C   UNL     1      -9.384   7.979  68.967  1.00  0.00    -0.147 C  
HETATM   25  O   UNL     1     -10.370   8.379  69.571  1.00  0.00    -0.210 OA 
HETATM   26  C   UNL     1      -8.255   7.385  69.697  1.00  0.00    -0.130 A  
HETATM   27  C   UNL     1      -7.104   7.005  69.024  1.00  0.00    -0.084 A  
HETATM   28  C   UNL     1      -6.998   7.192  67.570  1.00  0.00    -0.079 C  
HETATM   29  C   UNL     1      -6.031   6.448  69.731  1.00  0.00    -0.018 A  
HETATM   30  C   UNL     1      -6.119   6.268  71.113  1.00  0.00    -0.032 A  
HETATM   31  O   UNL     1      -5.937   6.946  67.007  1.00  0.00    -0.020 OA 
HETATM   32  C   UNL     1      -7.278   6.646  71.790  1.00  0.00    -0.085 A  
HETATM   33  C   UNL     1      -8.346   7.205  71.085  1.00  0.00    -0.113 A  
ENDBRANCH  20  21
ENDBRANCH  18  20
ENDBRANCH  16  17
ENDBRANCH  15  16
ENDBRANCH  13  15
ENDBRANCH  10  11
ENDBRANCH   9  10
ENDBRANCH   5   6
ENDBRANCH   4   5
TORSDOF 9
ENDMDL
MODEL      399
REMARK 921   NORMALIZED FREE ENERGY PREDICTED BY IDOCK:   -2.15 KCAL/MOL
REMARK 922        TOTAL FREE ENERGY PREDICTED BY IDOCK:   -6.48 KCAL/MOL
REMARK 923 INTER-LIGAND FREE ENERGY PREDICTED BY IDOCK:   -7.76 KCAL/MOL
REMARK 924 INTRA-LIGAND FREE ENERGY PREDICTED BY IDOCK:    1.28 KCAL/MOL
REMARK 927      BINDING AFFINITY PREDICTED BY RF-SCORE:    0.00 PKD
ROOT
HETATM    1  C   UNL     1     -11.787   7.359  71.977  1.00  0.00    -0.335 C  
HETATM    2  C   UNL     1     -10.329   7.149  71.575  1.00  0.00    -0.218 C  
HETATM    3  C   UNL     1     -10.254   6.213  70.364  1.00  0.00    -0.256 C  
HETATM    4  C   UNL     1      -9.660   8.513  71.318  1.00  0.00    -0.264 C  
ENDROOT
BRANCH   4   5
HETATM    5  C   UNL     1      -8.197   8.360  70.922  1.00  0.00    -0.130 C  
BRANCH   5   6
HETATM    6  C   UNL     1      -8.018   7.958  69.462  1.00  0.00    -0.116 C  
HETATM    7  C   UNL     1      -7.763   9.185  68.565  1.00  0.00    -0.093 C  
HETATM    8  C   UNL     1      -6.505   9.958  68.988  1.00  0.00    -0.048 C  
HETATM    9  C   UNL     1      -7.684   8.729  67.098  1.00  0.00    -0.096 C  
BRANCH   9  10
HETATM   10  C   UNL     1      -7.430   9.904  66.159  1.00  0.00    -0.104 C  
BRANCH  10  11
HETATM   11  C   UNL     1      -8.634  10.827  66.054  1.00  0.00    -0.181 C  
HETATM   12  C   UNL     1      -9.903  10.065  65.628  1.00  0.00    -0.363 C  
HETATM   13  C   UNL     1     -11.076  11.038  65.394  1.00  0.00     0.001 C  
HETATM   14  C   UNL     1     -10.312   8.991  66.643  1.00  0.00    -0.289 C  
BRANCH  13  15
HETATM   15  C   UNL     1     -10.826  12.099  64.315  1.00  0.00    -0.388 C  
BRANCH  15  16
HETATM   16  C   UNL     1      -9.730  13.092  64.704  1.00  0.00     0.120 C  
BRANCH  16  17
HETATM   17  C   UNL     1     -10.210  14.087  65.730  1.00  0.00    -0.343 C  
HETATM   18  C   UNL     1      -9.622  14.130  66.941  1.00  0.00    -0.275 C  
HETATM   19  C   UNL     1     -11.302  15.024  65.304  1.00  0.00    -0.349 C  
BRANCH  18  20
HETATM   20  C   UNL     1      -9.910  15.109  68.050  1.00  0.00    -0.213 C  
BRANCH  20  21
HETATM   21  C   UNL     1     -10.720  14.467  69.159  1.00  0.00    -0.263 C  
HETATM   22  C   UNL     1     -11.329  15.145  70.155  1.00  0.00    -0.300 C  
HETATM   23  C   UNL     1     -11.268  16.635  70.367  1.00  0.00     0.030 C  
HETATM   24  C   UNL     1     -12.174  14.437  71.162  1.00  0.00    -0.350 C  
HETATM   25  O   UNL     1     -12.691  15.042  72.091  1.00  0.00    -0.303 OA 
HETATM   26  C   UNL     1     -12.392  12.991  71.002  1.00  0.00    -0.335 A  
HETATM   27  C   UNL     1     -11.743  12.289  69.998  1.00  0.00    -0.319 A  
HETATM   28  C   UNL     1     -10.828  12.981  69.080  1.00  0.00    -0.155 C  
HETATM   29  C   UNL     1     -11.951  10.911  69.860  1.00  0.00    -0.430 A  
HETATM   30  C   UNL     1     -12.817  10.242  70.728  1.00  0.00    -0.427 A  
HETATM   31  O   UNL     1     -10.185  12.329  68.265  1.00  0.00    -0.209 OA 
HETATM   32  C   UNL     1     -13.473  10.949  71.736  1.00  0.00    -0.283 A  
HETATM   33  C   UNL     1     -13.262  12.321  71.875  1.00  0.00    -0.481 A  
ENDBRANCH  20  21
ENDBRANCH  18  20
ENDBRANCH  16  17
ENDBRANCH  15  16
ENDBRANCH  13  15
ENDBRANCH  10  11
ENDBRANCH   9  10
ENDBRANCH   5   6
ENDBRANCH   4   5
TORSDOF 9
ENDMDL
MODEL      400
REMARK 921   NORMALIZED FREE ENERGY PREDICTED BY IDOCK:   -2.09 KCAL/MOL
REMARK 922        TOTAL FREE ENERGY PREDICTED BY IDOCK:   -6.39 KCAL/MOL
REMARK 923 INTER-LIGAND FREE ENERGY PREDICTED BY IDOCK:   -4.94 KCAL/MOL
REMARK 924 INTRA-LIGAND FREE ENERGY PREDICTED BY IDOCK:   -1.45 KCAL/MOL
REMARK 927      BINDING AFFINITY PREDICTED BY RF-SCORE:    0.00 PKD
ROOT
HETATM    1  C   UNL     1      -6.763   8.499  68.532  1.00  0.00    -0.060 C  
HETATM    2  C   UNL     1      -6.492   9.553  69.602  1.00  0.00    -0.041 C  
HETATM    3  C   UNL     1      -5.133   9.287  70.259  1.00  0.00    -0.027 C  
HETATM    4  C   UNL     1      -6.590  10.960  68.982  1.00  0.00    -0.061 C  
ENDROOT
BRANCH   4   5
HETATM    5  C   UNL     1      -6.336  12.052  70.012  1.00  0.00    -0.053 C  
BRANCH   5   6
HETATM    6  C   UNL     1      -5.593  13.251  69.434  1.00  0.00    -0.083 C  
HETATM    7  C   UNL     1      -6.528  14.463  69.255  1.00  0.00    -0.117 C  
HETATM    8  C   UNL     1      -7.157  14.908  70.584  1.00  0.00     0.594 C  
HETATM    9  C   UNL     1      -5.747  15.606  68.584  1.00  0.00    -0.098 C  
BRANCH   9  10
HETATM   10  C   UNL     1      -6.623  16.838  68.381  1.00  0.00    -0.149 C  
BRANCH  10  11
HETATM   11  C   UNL     1      -7.846  16.541  67.529  1.00  0.00    -0.175 C  
HETATM   12  C   UNL     1      -9.144  17.027  68.201  1.00  0.00    -0.237 C  
HETATM   13  C   UNL     1     -10.380  16.595  67.390  1.00  0.00    -0.292 C  
HETATM   14  C   UNL     1      -9.163  18.547  68.409  1.00  0.00    -0.347 C  
BRANCH  13  15
HETATM   15  C   UNL     1     -10.532  15.079  67.206  1.00  0.00    -0.265 C  
BRANCH  15  16
HETATM   16  C   UNL     1     -11.644  14.487  68.073  1.00  0.00    -0.364 C  
BRANCH  16  17
HETATM   17  C   UNL     1     -11.559  12.983  68.146  1.00  0.00    -0.379 C  
HETATM   18  C   UNL     1     -11.579  12.260  67.009  1.00  0.00    -0.418 C  
HETATM   19  C   UNL     1     -11.400  12.380  69.510  1.00  0.00    -0.250 C  
BRANCH  18  20
HETATM   20  C   UNL     1     -11.418  10.767  66.887  1.00  0.00     0.209 C  
BRANCH  20  21
HETATM   21  C   UNL     1     -10.438  10.402  65.790  1.00  0.00    -0.187 C  
HETATM   22  C   UNL     1     -10.082  11.219  64.776  1.00  0.00    -0.338 C  
HETATM   23  C   UNL     1     -10.629  12.600  64.530  1.00  0.00    -0.369 C  
HETATM   24  C   UNL     1      -9.047  10.804  63.783  1.00  0.00    -0.200 C  
HETATM   25  O   UNL     1      -8.754  11.523  62.837  1.00  0.00    -0.087 OA 
HETATM   26  C   UNL     1      -8.367   9.515  63.975  1.00  0.00    -0.171 A  
HETATM   27  C   UNL     1      -8.753   8.662  64.998  1.00  0.00    -0.154 A  
HETATM   28  C   UNL     1      -9.849   9.035  65.903  1.00  0.00    -0.187 C  
HETATM   29  C   UNL     1      -8.104   7.432  65.167  1.00  0.00    -0.129 A  
HETATM   30  C   UNL     1      -7.063   7.064  64.311  1.00  0.00    -0.059 A  
HETATM   31  O   UNL     1     -10.244   8.228  66.736  1.00  0.00    -0.279 OA 
HETATM   32  C   UNL     1      -6.672   7.924  63.285  1.00  0.00    -0.075 A  
HETATM   33  C   UNL     1      -7.322   9.147  63.114  1.00  0.00    -0.095 A  
ENDBRANCH  20  21
ENDBRANCH  18  20
ENDBRANCH  16  17
ENDBRANCH  15  16
ENDBRANCH  13  15
ENDBRANCH  10  11
ENDBRANCH   9  10
ENDBRANCH   5   6
ENDBRANCH   4   5
TORSDOF 9
ENDMDL
MODEL      401
REMARK 921   NORMALIZED FREE ENERGY PREDICTED BY IDOCK:   -2.05 KCAL/MOL
REMARK 922        TOTAL FREE ENERGY PREDICTED BY IDOCK:   -6.33 KCAL/MOL
REMARK 923 INTER-LIGAND FREE ENERGY PREDICTED BY IDOCK:   -7.78 KCAL/MOL
REMARK 924 INTRA-LIGAND FREE ENERGY PREDICTED BY IDOCK:    1.45 KCAL/MOL
REMARK 927      BINDING AFFINITY PREDICTED BY RF-SCORE:    0.00 PKD
ROOT
HETATM    1  C   UNL     1      -7.574   6.732  74.158  1.00  0.00    -0.102 C  
HETATM    2  C   UNL     1      -8.720   6.725  73.148  1.00  0.00    -0.137 C  
HETATM    3  C   UNL     1      -8.156   6.659  71.725  1.00  0.00    -0.103 C  
HETATM    4  C   UNL     1      -9.683   5.565  73.464  1.00  0.00    -0.153 C  
ENDROOT
BRANCH   4   5
HETATM    5  C   UNL     1     -10.851   5.519  72.489  1.00  0.00    -0.302 C  
BRANCH   5   6
HETATM    6  C   UNL     1     -11.761   6.739  72.596  1.00  0.00    -0.117 C  
HETATM    7  C   UNL     1     -11.216   7.923  71.774  1.00  0.00    -0.305 C  
HETATM    8  C   UNL     1     -11.081   7.578  70.283  1.00  0.00    -0.263 C  
HETATM    9  C   UNL     1     -12.120   9.148  71.995  1.00  0.00    -0.431 C  
BRANCH   9  10
HETATM   10  C   UNL     1     -11.631  10.356  71.203  1.00  0.00    -0.315 C  
BRANCH  10  11
HETATM   11  C   UNL     1     -11.536  10.066  69.714  1.00  0.00    -0.240 C  
HETATM   12  C   UNL     1     -10.199  10.551  69.122  1.00  0.00    -0.241 C  
HETATM   13  C   UNL     1     -10.179  10.375  67.591  1.00  0.00    -0.240 C  
HETATM   14  C   UNL     1      -8.990   9.841  69.744  1.00  0.00    -0.239 C  
BRANCH  13  15
HETATM   15  C   UNL     1     -11.282  11.132  66.841  1.00  0.00    -0.258 C  
BRANCH  15  16
HETATM   16  C   UNL     1     -10.756  11.889  65.621  1.00  0.00    -0.325 C  
BRANCH  16  17
HETATM   17  C   UNL     1      -9.912  13.074  66.016  1.00  0.00    -0.277 C  
HETATM   18  C   UNL     1      -9.049  12.963  67.045  1.00  0.00    -0.228 C  
HETATM   19  C   UNL     1     -10.052  14.313  65.181  1.00  0.00    -0.353 C  
BRANCH  18  20
HETATM   20  C   UNL     1      -8.072  14.007  67.519  1.00  0.00    -0.197 C  
BRANCH  20  21
HETATM   21  C   UNL     1      -8.761  15.331  67.786  1.00  0.00    -0.168 C  
HETATM   22  C   UNL     1      -9.821  15.494  68.606  1.00  0.00    -0.207 C  
HETATM   23  C   UNL     1     -10.529  14.393  69.351  1.00  0.00    -0.097 C  
HETATM   24  C   UNL     1     -10.386  16.850  68.871  1.00  0.00    -0.333 C  
HETATM   25  O   UNL     1     -11.373  16.996  69.579  1.00  0.00     0.196 OA 
HETATM   26  C   UNL     1      -9.717  18.017  68.278  1.00  0.00    -0.332 A  
HETATM   27  C   UNL     1      -8.647  17.849  67.412  1.00  0.00    -0.239 A  
HETATM   28  C   UNL     1      -8.169  16.502  67.073  1.00  0.00    -0.196 C  
HETATM   29  C   UNL     1      -8.022  18.968  66.845  1.00  0.00    -0.270 A  
HETATM   30  C   UNL     1      -8.469  20.254  67.157  1.00  0.00    -0.407 A  
HETATM   31  O   UNL     1      -7.292  16.368  66.228  1.00  0.00    -0.139 OA 
HETATM   32  C   UNL     1      -9.542  20.423  68.032  1.00  0.00    -0.323 A  
HETATM   33  C   UNL     1     -10.167  19.308  68.593  1.00  0.00    -0.438 A  
ENDBRANCH  20  21
ENDBRANCH  18  20
ENDBRANCH  16  17
ENDBRANCH  15  16
ENDBRANCH  13  15
ENDBRANCH  10  11
ENDBRANCH   9  10
ENDBRANCH   5   6
ENDBRANCH   4   5
TORSDOF 9
ENDMDL
MODEL      402
REMARK 921   NORMALIZED FREE ENERGY PREDICTED BY IDOCK:   -2.04 KCAL/MOL
REMARK 922        TOTAL FREE ENERGY PREDICTED BY IDOCK:   -6.31 KCAL/MOL
REMARK 923 INTER-LIGAND FREE ENERGY PREDICTED BY IDOCK:   -5.92 KCAL/MOL
REMARK 924 INTRA-LIGAND FREE ENERGY PREDICTED BY IDOCK:   -0.39 KCAL/MOL
REMARK 927      BINDING AFFINITY PREDICTED BY RF-SCORE:    0.00 PKD
ROOT
HETATM    1  C   UNL     1      -5.240  19.132  69.651  1.00  0.00    -0.195 C  
HETATM    2  C   UNL     1      -6.469  19.513  68.829  1.00  0.00    -0.307 C  
HETATM    3  C   UNL     1      -6.031  20.172  67.517  1.00  0.00    -0.212 C  
HETATM    4  C   UNL     1      -7.350  18.269  68.607  1.00  0.00    -0.303 C  
ENDROOT
BRANCH   4   5
HETATM    5  C   UNL     1      -8.598  18.596  67.798  1.00  0.00    -0.294 C  
BRANCH   5   6
HETATM    6  C   UNL     1      -9.589  17.438  67.742  1.00  0.00    -0.264 C  
HETATM    7  C   UNL     1      -8.867  16.077  67.728  1.00  0.00    -0.177 C  
HETATM    8  C   UNL     1      -7.993  15.875  68.975  1.00  0.00    -0.222 C  
HETATM    9  C   UNL     1      -9.910  14.956  67.576  1.00  0.00    -0.217 C  
BRANCH   9  10
HETATM   10  C   UNL     1      -9.253  13.579  67.558  1.00  0.00    -0.219 C  
BRANCH  10  11
HETATM   11  C   UNL     1      -9.965  12.590  68.467  1.00  0.00    -0.170 C  
HETATM   12  C   UNL     1     -11.481  12.551  68.193  1.00  0.00    -0.368 C  
HETATM   13  C   UNL     1     -12.201  11.649  69.214  1.00  0.00    -0.228 C  
HETATM   14  C   UNL     1     -11.807  12.089  66.767  1.00  0.00    -0.244 C  
BRANCH  13  15
HETATM   15  C   UNL     1     -12.039  12.076  70.678  1.00  0.00    -0.369 C  
BRANCH  15  16
HETATM   16  C   UNL     1     -12.825  11.189  71.644  1.00  0.00    -0.524 C  
BRANCH  16  17
HETATM   17  C   UNL     1     -12.399   9.745  71.557  1.00  0.00    -0.495 C  
HETATM   18  C   UNL     1     -11.142   9.401  71.902  1.00  0.00    -0.194 C  
HETATM   19  C   UNL     1     -13.443   8.755  71.133  1.00  0.00    -0.081 C  
BRANCH  18  20
HETATM   20  C   UNL     1     -10.573   8.008  71.960  1.00  0.00    -0.310 C  
BRANCH  20  21
HETATM   21  C   UNL     1     -10.301   7.461  70.572  1.00  0.00    -0.220 C  
HETATM   22  C   UNL     1     -10.723   6.260  70.124  1.00  0.00    -0.346 C  
HETATM   23  C   UNL     1     -11.483   5.241  70.932  1.00  0.00     0.792 C  
HETATM   24  C   UNL     1     -10.477   5.836  68.714  1.00  0.00    -0.242 C  
HETATM   25  O   UNL     1     -10.819   4.731  68.317  1.00  0.00     0.406 OA 
HETATM   26  C   UNL     1      -9.831   6.788  67.798  1.00  0.00    -0.148 A  
HETATM   27  C   UNL     1      -9.370   8.010  68.265  1.00  0.00    -0.143 A  
HETATM   28  C   UNL     1      -9.521   8.369  69.681  1.00  0.00    -0.166 C  
HETATM   29  C   UNL     1      -8.747   8.905  67.385  1.00  0.00    -0.128 A  
HETATM   30  C   UNL     1      -8.596   8.574  66.037  1.00  0.00    -0.162 A  
HETATM   31  O   UNL     1      -9.018   9.407  70.097  1.00  0.00    -0.189 OA 
HETATM   32  C   UNL     1      -9.063   7.347  65.567  1.00  0.00     0.161 A  
HETATM   33  C   UNL     1      -9.679   6.453  66.445  1.00  0.00    -0.140 A  
ENDBRANCH  20  21
ENDBRANCH  18  20
ENDBRANCH  16  17
ENDBRANCH  15  16
ENDBRANCH  13  15
ENDBRANCH  10  11
ENDBRANCH   9  10
ENDBRANCH   5   6
ENDBRANCH   4   5
TORSDOF 9
ENDMDL
MODEL      403
REMARK 921   NORMALIZED FREE ENERGY PREDICTED BY IDOCK:   -1.92 KCAL/MOL
REMARK 922        TOTAL FREE ENERGY PREDICTED BY IDOCK:   -6.13 KCAL/MOL
REMARK 923 INTER-LIGAND FREE ENERGY PREDICTED BY IDOCK:   -5.70 KCAL/MOL
REMARK 924 INTRA-LIGAND FREE ENERGY PREDICTED BY IDOCK:   -0.43 KCAL/MOL
REMARK 927      BINDING AFFINITY PREDICTED BY RF-SCORE:    0.00 PKD
ROOT
HETATM    1  C   UNL     1      -7.574  14.913  69.841  1.00  0.00     0.062 C  
HETATM    2  C   UNL     1      -6.500  13.952  69.337  1.00  0.00    -0.119 C  
HETATM    3  C   UNL     1      -5.126  14.395  69.851  1.00  0.00    -0.092 C  
HETATM    4  C   UNL     1      -6.857  12.512  69.751  1.00  0.00     0.250 C  
ENDROOT
BRANCH   4   5
HETATM    5  C   UNL     1      -5.819  11.509  69.264  1.00  0.00    -0.059 C  
BRANCH   5   6
HETATM    6  C   UNL     1      -6.436  10.341  68.502  1.00  0.00    -0.052 C  
HETATM    7  C   UNL     1      -7.726  10.760  67.771  1.00  0.00    -0.104 C  
HETATM    8  C   UNL     1      -7.474  11.889  66.759  1.00  0.00    -0.017 C  
HETATM    9  C   UNL     1      -8.350   9.524  67.101  1.00  0.00    -0.131 C  
BRANCH   9  10
HETATM   10  C   UNL     1      -9.633   9.878  66.357  1.00  0.00    -0.255 C  
BRANCH  10  11
HETATM   11  C   UNL     1     -10.191  11.227  66.783  1.00  0.00    -0.263 C  
HETATM   12  C   UNL     1     -11.410  11.073  67.711  1.00  0.00    -0.365 C  
HETATM   13  C   UNL     1     -12.044  12.444  68.019  1.00  0.00    -0.091 C  
HETATM   14  C   UNL     1     -11.064  10.354  69.021  1.00  0.00    -0.297 C  
BRANCH  13  15
HETATM   15  C   UNL     1     -12.534  13.218  66.788  1.00  0.00    -0.086 C  
BRANCH  15  16
HETATM   16  C   UNL     1     -12.194  14.707  66.852  1.00  0.00    -0.114 C  
BRANCH  16  17
HETATM   17  C   UNL     1     -10.706  14.947  66.828  1.00  0.00    -0.312 C  
HETATM   18  C   UNL     1     -10.147  15.560  65.766  1.00  0.00    -0.388 C  
HETATM   19  C   UNL     1      -9.933  14.525  68.043  1.00  0.00    -0.222 C  
BRANCH  18  20
HETATM   20  C   UNL     1      -8.702  15.957  65.610  1.00  0.00     0.506 C  
BRANCH  20  21
HETATM   21  C   UNL     1      -8.352  17.136  66.496  1.00  0.00    -0.309 C  
HETATM   22  C   UNL     1      -9.152  18.202  66.707  1.00  0.00    -0.287 C  
HETATM   23  C   UNL     1     -10.496  18.429  66.067  1.00  0.00    -0.400 C  
HETATM   24  C   UNL     1      -8.758  19.282  67.660  1.00  0.00    -0.296 C  
HETATM   25  O   UNL     1      -9.461  20.271  67.820  1.00  0.00    -0.354 OA 
HETATM   26  C   UNL     1      -7.511  19.124  68.423  1.00  0.00    -0.342 A  
HETATM   27  C   UNL     1      -6.674  18.044  68.185  1.00  0.00    -0.201 A  
HETATM   28  C   UNL     1      -7.021  17.045  67.165  1.00  0.00    -0.179 C  
HETATM   29  C   UNL     1      -5.483  17.908  68.911  1.00  0.00    -0.182 A  
HETATM   30  C   UNL     1      -5.141  18.853  69.881  1.00  0.00    -0.194 A  
HETATM   31  O   UNL     1      -6.221  16.156  66.896  1.00  0.00    -0.316 OA 
HETATM   32  C   UNL     1      -5.986  19.936  70.124  1.00  0.00    -0.363 A  
HETATM   33  C   UNL     1      -7.169  20.074  69.396  1.00  0.00    -0.128 A  
ENDBRANCH  20  21
ENDBRANCH  18  20
ENDBRANCH  16  17
ENDBRANCH  15  16
ENDBRANCH  13  15
ENDBRANCH  10  11
ENDBRANCH   9  10
ENDBRANCH   5   6
ENDBRANCH   4   5
TORSDOF 9
ENDMDL
MODEL      404
REMARK 921   NORMALIZED FREE ENERGY PREDICTED BY IDOCK:   -1.90 KCAL/MOL
REMARK 922        TOTAL FREE ENERGY PREDICTED BY IDOCK:   -6.10 KCAL/MOL
REMARK 923 INTER-LIGAND FREE ENERGY PREDICTED BY IDOCK:   -4.11 KCAL/MOL
REMARK 924 INTRA-LIGAND FREE ENERGY PREDICTED BY IDOCK:   -1.98 KCAL/MOL
REMARK 927      BINDING AFFINITY PREDICTED BY RF-SCORE:    0.00 PKD
ROOT
HETATM    1  C   UNL     1     -12.551   8.681  70.990  1.00  0.00    -0.079 C  
HETATM    2  C   UNL     1     -11.105   8.714  70.502  1.00  0.00    -0.268 C  
HETATM    3  C   UNL     1     -10.653  10.167  70.319  1.00  0.00    -0.324 C  
HETATM    4  C   UNL     1     -10.209   7.930  71.481  1.00  0.00    -0.232 C  
ENDROOT
BRANCH   4   5
HETATM    5  C   UNL     1      -8.754   7.924  71.034  1.00  0.00    -0.138 C  
BRANCH   5   6
HETATM    6  C   UNL     1      -8.233   9.317  70.692  1.00  0.00    -0.224 C  
HETATM    7  C   UNL     1      -7.522   9.334  69.325  1.00  0.00    -0.075 C  
HETATM    8  C   UNL     1      -8.455   8.898  68.185  1.00  0.00    -0.129 C  
HETATM    9  C   UNL     1      -6.939  10.736  69.079  1.00  0.00    -0.085 C  
BRANCH   9  10
HETATM   10  C   UNL     1      -6.223  10.817  67.735  1.00  0.00    -0.047 C  
BRANCH  10  11
HETATM   11  C   UNL     1      -7.159  11.221  66.607  1.00  0.00    -0.127 C  
HETATM   12  C   UNL     1      -8.322  12.094  67.115  1.00  0.00    -0.183 C  
HETATM   13  C   UNL     1      -9.332  12.377  65.986  1.00  0.00    -0.116 C  
HETATM   14  C   UNL     1      -7.839  13.416  67.726  1.00  0.00    -0.158 C  
BRANCH  13  15
HETATM   15  C   UNL     1      -9.970  11.128  65.365  1.00  0.00    -0.309 C  
BRANCH  15  16
HETATM   16  C   UNL     1      -9.620  10.958  63.886  1.00  0.00    -0.326 C  
BRANCH  16  17
HETATM   17  C   UNL     1      -8.559   9.908  63.675  1.00  0.00    -0.203 C  
HETATM   18  C   UNL     1      -8.755   8.661  64.149  1.00  0.00     0.043 C  
HETATM   19  C   UNL     1      -7.351  10.315  62.885  1.00  0.00    -0.136 C  
BRANCH  18  20
HETATM   20  C   UNL     1      -7.850   7.472  63.958  1.00  0.00    -0.127 C  
BRANCH  20  21
HETATM   21  C   UNL     1      -7.533   6.798  65.278  1.00  0.00    -0.086 C  
HETATM   22  C   UNL     1      -6.391   6.977  65.976  1.00  0.00    -0.046 C  
HETATM   23  C   UNL     1      -5.225   7.827  65.546  1.00  0.00    -0.029 C  
HETATM   24  C   UNL     1      -6.197   6.333  67.309  1.00  0.00    -0.032 C  
HETATM   25  O   UNL     1      -5.147   6.458  67.924  1.00  0.00    -0.004 OA 
HETATM   26  C   UNL     1      -7.307   5.558  67.882  1.00  0.00    -0.073 A  
HETATM   27  C   UNL     1      -8.468   5.348  67.153  1.00  0.00    -0.106 A  
HETATM   28  C   UNL     1      -8.603   5.897  65.797  1.00  0.00    -0.154 C  
HETATM   29  C   UNL     1      -9.516   4.601  67.705  1.00  0.00    -0.190 A  
HETATM   30  C   UNL     1      -9.399   4.072  68.993  1.00  0.00    -0.237 A  
HETATM   31  O   UNL     1      -9.592   5.616  65.129  1.00  0.00     0.212 OA 
HETATM   32  C   UNL     1      -8.234   4.287  69.728  1.00  0.00    -0.069 A  
HETATM   33  C   UNL     1      -7.188   5.028  69.175  1.00  0.00    -0.057 A  
ENDBRANCH  20  21
ENDBRANCH  18  20
ENDBRANCH  16  17
ENDBRANCH  15  16
ENDBRANCH  13  15
ENDBRANCH  10  11
ENDBRANCH   9  10
ENDBRANCH   5   6
ENDBRANCH   4   5
TORSDOF 9
ENDMDL
MODEL      405
REMARK 921   NORMALIZED FREE ENERGY PREDICTED BY IDOCK:   -1.84 KCAL/MOL
REMARK 922        TOTAL FREE ENERGY PREDICTED BY IDOCK:   -6.01 KCAL/MOL
REMARK 923 INTER-LIGAND FREE ENERGY PREDICTED BY IDOCK:   -4.53 KCAL/MOL
REMARK 924 INTRA-LIGAND FREE ENERGY PREDICTED BY IDOCK:   -1.47 KCAL/MOL
REMARK 927      BINDING AFFINITY PREDICTED BY RF-SCORE:    0.00 PKD
ROOT
HETATM    1  C   UNL     1      -6.613   5.037  72.164  1.00  0.00    -0.044 C  
HETATM    2  C   UNL     1      -6.779   4.308  70.833  1.00  0.00    -0.035 C  
HETATM    3  C   UNL     1      -5.551   3.431  70.565  1.00  0.00    -0.013 C  
HETATM    4  C   UNL     1      -8.094   3.506  70.840  1.00  0.00    -0.071 C  
ENDROOT
BRANCH   4   5
HETATM    5  C   UNL     1      -8.313   2.765  69.528  1.00  0.00    -0.086 C  
BRANCH   5   6
HETATM    6  C   UNL     1      -9.465   3.338  68.709  1.00  0.00    -0.198 C  
HETATM    7  C   UNL     1      -8.982   4.442  67.749  1.00  0.00    -0.136 C  
HETATM    8  C   UNL     1      -7.926   3.926  66.760  1.00  0.00    -0.096 C  
HETATM    9  C   UNL     1     -10.196   5.044  67.021  1.00  0.00    -0.253 C  
BRANCH   9  10
HETATM   10  C   UNL     1      -9.779   6.145  66.052  1.00  0.00     0.037 C  
BRANCH  10  11
HETATM   11  C   UNL     1      -8.824   7.142  66.690  1.00  0.00    -0.142 C  
HETATM   12  C   UNL     1      -7.752   7.623  65.694  1.00  0.00    -0.099 C  
HETATM   13  C   UNL     1      -6.715   8.522  66.395  1.00  0.00    -0.070 C  
HETATM   14  C   UNL     1      -8.355   8.362  64.493  1.00  0.00    -0.125 C  
BRANCH  13  15
HETATM   15  C   UNL     1      -5.961   7.855  67.552  1.00  0.00    -0.046 C  
BRANCH  15  16
HETATM   16  C   UNL     1      -6.872   7.512  68.732  1.00  0.00    -0.065 C  
BRANCH  16  17
HETATM   17  C   UNL     1      -7.225   8.732  69.543  1.00  0.00    -0.059 C  
HETATM   18  C   UNL     1      -6.940   9.958  69.060  1.00  0.00    -0.059 C  
HETATM   19  C   UNL     1      -7.939   8.498  70.842  1.00  0.00    -0.120 C  
BRANCH  18  20
HETATM   20  C   UNL     1      -7.296  11.280  69.688  1.00  0.00     0.096 C  
BRANCH  20  21
HETATM   21  C   UNL     1      -8.020  12.182  68.709  1.00  0.00     0.007 C  
HETATM   22  C   UNL     1      -7.510  13.320  68.192  1.00  0.00    -0.128 C  
HETATM   23  C   UNL     1      -6.168  13.913  68.532  1.00  0.00    -0.093 C  
HETATM   24  C   UNL     1      -8.265  14.105  67.171  1.00  0.00    -0.144 C  
HETATM   25  O   UNL     1      -7.825  15.160  66.733  1.00  0.00    -0.148 OA 
HETATM   26  C   UNL     1      -9.546  13.574  66.683  1.00  0.00    -0.282 A  
HETATM   27  C   UNL     1     -10.085  12.422  67.236  1.00  0.00    -0.214 A  
HETATM   28  C   UNL     1      -9.383  11.718  68.318  1.00  0.00    -0.193 C  
HETATM   29  C   UNL     1     -11.311  11.930  66.770  1.00  0.00    -0.393 A  
HETATM   30  C   UNL     1     -11.989  12.592  65.744  1.00  0.00    -0.482 A  
HETATM   31  O   UNL     1      -9.922  10.762  68.863  1.00  0.00    -0.188 OA 
HETATM   32  C   UNL     1     -11.445  13.747  65.185  1.00  0.00    -0.329 A  
HETATM   33  C   UNL     1     -10.226  14.241  65.653  1.00  0.00    -0.366 A  
ENDBRANCH  20  21
ENDBRANCH  18  20
ENDBRANCH  16  17
ENDBRANCH  15  16
ENDBRANCH  13  15
ENDBRANCH  10  11
ENDBRANCH   9  10
ENDBRANCH   5   6
ENDBRANCH   4   5
TORSDOF 9
ENDMDL
MODEL      406
REMARK 921   NORMALIZED FREE ENERGY PREDICTED BY IDOCK:   -1.76 KCAL/MOL
REMARK 922        TOTAL FREE ENERGY PREDICTED BY IDOCK:   -5.89 KCAL/MOL
REMARK 923 INTER-LIGAND FREE ENERGY PREDICTED BY IDOCK:   -5.96 KCAL/MOL
REMARK 924 INTRA-LIGAND FREE ENERGY PREDICTED BY IDOCK:    0.07 KCAL/MOL
REMARK 927      BINDING AFFINITY PREDICTED BY RF-SCORE:    0.00 PKD
ROOT
HETATM    1  C   UNL     1     -14.084   7.096  71.333  1.00  0.00    -0.406 C  
HETATM    2  C   UNL     1     -13.503   8.498  71.505  1.00  0.00    -0.325 C  
HETATM    3  C   UNL     1     -13.984   9.100  72.830  1.00  0.00    -0.240 C  
HETATM    4  C   UNL     1     -11.967   8.439  71.399  1.00  0.00    -0.337 C  
ENDROOT
BRANCH   4   5
HETATM    5  C   UNL     1     -11.336   9.816  71.555  1.00  0.00    -0.345 C  
BRANCH   5   6
HETATM    6  C   UNL     1     -12.253  10.944  71.093  1.00  0.00    -0.441 C  
HETATM    7  C   UNL     1     -11.610  11.766  69.959  1.00  0.00    -0.318 C  
HETATM    8  C   UNL     1     -11.288  10.901  68.730  1.00  0.00    -0.357 C  
HETATM    9  C   UNL     1     -12.536  12.940  69.600  1.00  0.00     0.279 C  
BRANCH   9  10
HETATM   10  C   UNL     1     -11.952  13.792  68.478  1.00  0.00    -0.402 C  
BRANCH  10  11
HETATM   11  C   UNL     1     -10.494  14.144  68.722  1.00  0.00    -0.249 C  
HETATM   12  C   UNL     1     -10.339  15.557  69.315  1.00  0.00    -0.252 C  
HETATM   13  C   UNL     1      -8.852  15.947  69.426  1.00  0.00    -0.203 C  
HETATM   14  C   UNL     1     -11.017  15.697  70.684  1.00  0.00    -0.364 C  
BRANCH  13  15
HETATM   15  C   UNL     1      -8.086  15.950  68.096  1.00  0.00    -0.145 C  
BRANCH  15  16
HETATM   16  C   UNL     1      -8.328  14.685  67.272  1.00  0.00    -0.234 C  
BRANCH  16  17
HETATM   17  C   UNL     1      -7.163  13.731  67.350  1.00  0.00    -0.107 C  
HETATM   18  C   UNL     1      -7.334  12.442  66.994  1.00  0.00    -0.016 C  
HETATM   19  C   UNL     1      -5.845  14.306  67.775  1.00  0.00    -0.090 C  
BRANCH  18  20
HETATM   20  C   UNL     1      -6.272  11.377  66.927  1.00  0.00    -0.135 C  
BRANCH  20  21
HETATM   21  C   UNL     1      -6.760  10.068  67.515  1.00  0.00    -0.072 C  
HETATM   22  C   UNL     1      -6.614   8.861  66.929  1.00  0.00    -0.061 C  
HETATM   23  C   UNL     1      -5.995   8.611  65.579  1.00  0.00    -0.048 C  
HETATM   24  C   UNL     1      -7.056   7.613  67.620  1.00  0.00    -0.085 C  
HETATM   25  O   UNL     1      -6.966   6.522  67.073  1.00  0.00    -0.064 OA 
HETATM   26  C   UNL     1      -7.586   7.718  68.987  1.00  0.00    -0.100 A  
HETATM   27  C   UNL     1      -7.764   8.960  69.579  1.00  0.00    -0.088 A  
HETATM   28  C   UNL     1      -7.427  10.188  68.845  1.00  0.00    -0.086 C  
HETATM   29  C   UNL     1      -8.278   9.049  70.879  1.00  0.00    -0.222 A  
HETATM   30  C   UNL     1      -8.605   7.889  71.585  1.00  0.00    -0.147 A  
HETATM   31  O   UNL     1      -7.686  11.277  69.343  1.00  0.00    -0.050 OA 
HETATM   32  C   UNL     1      -8.421   6.641  70.992  1.00  0.00    -0.129 A  
HETATM   33  C   UNL     1      -7.914   6.553  69.695  1.00  0.00    -0.120 A  
ENDBRANCH  20  21
ENDBRANCH  18  20
ENDBRANCH  16  17
ENDBRANCH  15  16
ENDBRANCH  13  15
ENDBRANCH  10  11
ENDBRANCH   9  10
ENDBRANCH   5   6
ENDBRANCH   4   5
TORSDOF 9
ENDMDL
MODEL      407
REMARK 921   NORMALIZED FREE ENERGY PREDICTED BY IDOCK:   -1.65 KCAL/MOL
REMARK 922        TOTAL FREE ENERGY PREDICTED BY IDOCK:   -5.73 KCAL/MOL
REMARK 923 INTER-LIGAND FREE ENERGY PREDICTED BY IDOCK:   -4.97 KCAL/MOL
REMARK 924 INTRA-LIGAND FREE ENERGY PREDICTED BY IDOCK:   -0.76 KCAL/MOL
REMARK 927      BINDING AFFINITY PREDICTED BY RF-SCORE:    0.00 PKD
ROOT
HETATM    1  C   UNL     1      -8.211   6.272  74.506  1.00  0.00    -0.127 C  
HETATM    2  C   UNL     1      -7.143   6.923  73.630  1.00  0.00    -0.074 C  
HETATM    3  C   UNL     1      -6.158   5.859  73.136  1.00  0.00    -0.053 C  
HETATM    4  C   UNL     1      -7.816   7.695  72.479  1.00  0.00    -0.119 C  
ENDROOT
BRANCH   4   5
HETATM    5  C   UNL     1      -6.793   8.373  71.578  1.00  0.00    -0.073 C  
BRANCH   5   6
HETATM    6  C   UNL     1      -6.364   7.498  70.404  1.00  0.00    -0.038 C  
HETATM    7  C   UNL     1      -7.581   6.904  69.669  1.00  0.00    -0.101 C  
HETATM    8  C   UNL     1      -8.509   7.995  69.114  1.00  0.00    -0.136 C  
HETATM    9  C   UNL     1      -7.086   5.960  68.559  1.00  0.00    -0.081 C  
BRANCH   9  10
HETATM   10  C   UNL     1      -8.250   5.341  67.791  1.00  0.00    -0.099 C  
BRANCH  10  11
HETATM   11  C   UNL     1      -8.190   5.656  66.305  1.00  0.00    -0.108 C  
HETATM   12  C   UNL     1      -9.080   4.704  65.483  1.00  0.00    -0.146 C  
HETATM   13  C   UNL     1      -8.899   4.949  63.972  1.00  0.00    -0.083 C  
HETATM   14  C   UNL     1     -10.563   4.819  65.856  1.00  0.00    -0.290 C  
BRANCH  13  15
HETATM   15  C   UNL     1      -7.467   4.755  63.455  1.00  0.00    -0.055 C  
BRANCH  15  16
HETATM   16  C   UNL     1      -6.537   5.903  63.848  1.00  0.00    -0.037 C  
BRANCH  16  17
HETATM   17  C   UNL     1      -7.105   7.245  63.462  1.00  0.00    -0.066 C  
HETATM   18  C   UNL     1      -6.674   8.356  64.093  1.00  0.00    -0.071 C  
HETATM   19  C   UNL     1      -8.096   7.263  62.337  1.00  0.00    -0.111 C  
BRANCH  18  20
HETATM   20  C   UNL     1      -7.062   9.778  63.782  1.00  0.00    -0.121 C  
BRANCH  20  21
HETATM   21  C   UNL     1      -7.820  10.410  64.932  1.00  0.00    -0.099 C  
HETATM   22  C   UNL     1      -7.296  10.661  66.151  1.00  0.00    -0.138 C  
HETATM   23  C   UNL     1      -5.899  10.313  66.592  1.00  0.00    -0.061 C  
HETATM   24  C   UNL     1      -8.095  11.360  67.201  1.00  0.00    -0.155 C  
HETATM   25  O   UNL     1      -7.638  11.550  68.320  1.00  0.00    -0.100 OA 
HETATM   26  C   UNL     1      -9.441  11.839  66.856  1.00  0.00    -0.200 A  
HETATM   27  C   UNL     1      -9.992  11.556  65.615  1.00  0.00    -0.275 A  
HETATM   28  C   UNL     1      -9.236  10.771  64.629  1.00  0.00    -0.219 C  
HETATM   29  C   UNL     1     -11.279  12.009  65.300  1.00  0.00    -0.374 A  
HETATM   30  C   UNL     1     -12.008  12.753  66.230  1.00  0.00    -0.460 A  
HETATM   31  O   UNL     1      -9.776  10.442  63.579  1.00  0.00    -0.307 OA 
HETATM   32  C   UNL     1     -11.453  13.042  67.476  1.00  0.00    -0.375 A  
HETATM   33  C   UNL     1     -10.172  12.586  67.791  1.00  0.00    -0.217 A  
ENDBRANCH  20  21
ENDBRANCH  18  20
ENDBRANCH  16  17
ENDBRANCH  15  16
ENDBRANCH  13  15
ENDBRANCH  10  11
ENDBRANCH   9  10
ENDBRANCH   5   6
ENDBRANCH   4   5
TORSDOF 9
ENDMDL
MODEL      408
REMARK 921   NORMALIZED FREE ENERGY PREDICTED BY IDOCK:   -1.58 KCAL/MOL
REMARK 922        TOTAL FREE ENERGY PREDICTED BY IDOCK:   -5.62 KCAL/MOL
REMARK 923 INTER-LIGAND FREE ENERGY PREDICTED BY IDOCK:   -5.55 KCAL/MOL
REMARK 924 INTRA-LIGAND FREE ENERGY PREDICTED BY IDOCK:   -0.07 KCAL/MOL
REMARK 927      BINDING AFFINITY PREDICTED BY RF-SCORE:    0.00 PKD
ROOT
HETATM    1  C   UNL     1      -8.877   7.485  74.353  1.00  0.00    -0.195 C  
HETATM    2  C   UNL     1      -7.451   7.521  73.806  1.00  0.00    -0.129 C  
HETATM    3  C   UNL     1      -6.750   6.191  74.101  1.00  0.00    -0.075 C  
HETATM    4  C   UNL     1      -7.480   7.860  72.304  1.00  0.00    -0.104 C  
ENDROOT
BRANCH   4   5
HETATM    5  C   UNL     1      -6.079   7.917  71.710  1.00  0.00    -0.036 C  
BRANCH   5   6
HETATM    6  C   UNL     1      -5.757   6.710  70.834  1.00  0.00    -0.027 C  
HETATM    7  C   UNL     1      -6.967   6.298  69.974  1.00  0.00    -0.066 C  
HETATM    8  C   UNL     1      -7.428   7.431  69.045  1.00  0.00    -0.100 C  
HETATM    9  C   UNL     1      -6.614   5.024  69.186  1.00  0.00    -0.047 C  
BRANCH   9  10
HETATM   10  C   UNL     1      -7.776   4.567  68.311  1.00  0.00    -0.080 C  
BRANCH  10  11
HETATM   11  C   UNL     1      -7.814   5.296  66.977  1.00  0.00    -0.100 C  
HETATM   12  C   UNL     1      -8.321   4.387  65.842  1.00  0.00    -0.113 C  
HETATM   13  C   UNL     1      -8.222   5.100  64.480  1.00  0.00    -0.133 C  
HETATM   14  C   UNL     1      -9.759   3.905  66.075  1.00  0.00    -0.172 C  
BRANCH  13  15
HETATM   15  C   UNL     1      -6.806   5.536  64.083  1.00  0.00    -0.047 C  
BRANCH  15  16
HETATM   16  C   UNL     1      -6.424   6.901  64.658  1.00  0.00    -0.042 C  
BRANCH  16  17
HETATM   17  C   UNL     1      -7.155   8.026  63.969  1.00  0.00    -0.083 C  
HETATM   18  C   UNL     1      -7.641   9.049  64.700  1.00  0.00    -0.107 C  
HETATM   19  C   UNL     1      -7.247   7.958  62.474  1.00  0.00    -0.092 C  
BRANCH  18  20
HETATM   20  C   UNL     1      -8.316  10.290  64.177  1.00  0.00    -0.161 C  
BRANCH  20  21
HETATM   21  C   UNL     1      -9.333  10.826  65.164  1.00  0.00    -0.254 C  
HETATM   22  C   UNL     1     -10.466  11.475  64.823  1.00  0.00    -0.354 C  
HETATM   23  C   UNL     1     -10.888  11.822  63.420  1.00  0.00    -0.460 C  
HETATM   24  C   UNL     1     -11.452  11.899  65.861  1.00  0.00    -0.278 C  
HETATM   25  O   UNL     1     -12.458  12.526  65.559  1.00  0.00    -0.646 OA 
HETATM   26  C   UNL     1     -11.199  11.528  67.261  1.00  0.00    -0.365 A  
HETATM   27  C   UNL     1     -10.021  10.888  67.617  1.00  0.00    -0.197 A  
HETATM   28  C   UNL     1      -9.009  10.574  66.599  1.00  0.00    -0.141 C  
HETATM   29  C   UNL     1      -9.786  10.547  68.956  1.00  0.00    -0.224 A  
HETATM   30  C   UNL     1     -10.740  10.843  69.933  1.00  0.00    -0.135 A  
HETATM   31  O   UNL     1      -7.932  10.102  66.946  1.00  0.00    -0.112 OA 
HETATM   32  C   UNL     1     -11.926  11.482  69.574  1.00  0.00    -0.402 A  
HETATM   33  C   UNL     1     -12.157  11.826  68.241  1.00  0.00    -0.068 A  
ENDBRANCH  20  21
ENDBRANCH  18  20
ENDBRANCH  16  17
ENDBRANCH  15  16
ENDBRANCH  13  15
ENDBRANCH  10  11
ENDBRANCH   9  10
ENDBRANCH   5   6
ENDBRANCH   4   5
TORSDOF 9
ENDMDL
MODEL      409
REMARK 921   NORMALIZED FREE ENERGY PREDICTED BY IDOCK:   -1.56 KCAL/MOL
REMARK 922        TOTAL FREE ENERGY PREDICTED BY IDOCK:   -5.58 KCAL/MOL
REMARK 923 INTER-LIGAND FREE ENERGY PREDICTED BY IDOCK:   -6.59 KCAL/MOL
REMARK 924 INTRA-LIGAND FREE ENERGY PREDICTED BY IDOCK:    1.01 KCAL/MOL
REMARK 927      BINDING AFFINITY PREDICTED BY RF-SCORE:    0.00 PKD
ROOT
HETATM    1  C   UNL     1      -5.323   3.955  72.221  1.00  0.00     0.000 C  
HETATM    2  C   UNL     1      -5.729   5.103  73.142  1.00  0.00    -0.022 C  
HETATM    3  C   UNL     1      -5.170   4.863  74.548  1.00  0.00    -0.017 C  
HETATM    4  C   UNL     1      -5.265   6.442  72.536  1.00  0.00    -0.031 C  
ENDROOT
BRANCH   4   5
HETATM    5  C   UNL     1      -5.654   7.625  73.414  1.00  0.00    -0.045 C  
BRANCH   5   6
HETATM    6  C   UNL     1      -7.153   7.908  73.396  1.00  0.00    -0.124 C  
HETATM    7  C   UNL     1      -7.624   8.371  72.004  1.00  0.00    -0.152 C  
HETATM    8  C   UNL     1      -7.342   7.318  70.920  1.00  0.00    -0.074 C  
HETATM    9  C   UNL     1      -9.118   8.730  72.072  1.00  0.00    -0.259 C  
BRANCH   9  10
HETATM   10  C   UNL     1      -9.645   9.194  70.718  1.00  0.00    -0.338 C  
BRANCH  10  11
HETATM   11  C   UNL     1      -8.661   8.918  69.593  1.00  0.00    -0.131 C  
HETATM   12  C   UNL     1      -8.659  10.047  68.544  1.00  0.00    -0.119 C  
HETATM   13  C   UNL     1      -7.761   9.684  67.346  1.00  0.00    -0.095 C  
HETATM   14  C   UNL     1      -8.224  11.394  69.134  1.00  0.00     0.098 C  
BRANCH  13  15
HETATM   15  C   UNL     1      -8.165   8.405  66.602  1.00  0.00    -0.105 C  
BRANCH  15  16
HETATM   16  C   UNL     1      -9.177   8.665  65.486  1.00  0.00    -0.158 C  
BRANCH  16  17
HETATM   17  C   UNL     1      -9.478  10.134  65.330  1.00  0.00    -0.296 C  
HETATM   18  C   UNL     1     -10.593  10.647  65.889  1.00  0.00    -0.178 C  
HETATM   19  C   UNL     1      -8.465  10.958  64.593  1.00  0.00     0.067 C  
BRANCH  18  20
HETATM   20  C   UNL     1     -11.006  12.095  65.909  1.00  0.00    -0.332 C  
BRANCH  20  21
HETATM   21  C   UNL     1     -11.221  12.591  67.325  1.00  0.00    -0.347 C  
HETATM   22  C   UNL     1     -10.992  13.856  67.739  1.00  0.00    -0.271 C  
HETATM   23  C   UNL     1     -10.441  14.969  66.889  1.00  0.00    -0.279 C  
HETATM   24  C   UNL     1     -11.308  14.275  69.136  1.00  0.00    -0.276 C  
HETATM   25  O   UNL     1     -11.061  15.408  69.527  1.00  0.00    -0.247 OA 
HETATM   26  C   UNL     1     -11.945  13.301  70.035  1.00  0.00    -0.399 A  
HETATM   27  C   UNL     1     -12.152  11.994  69.621  1.00  0.00    -0.295 A  
HETATM   28  C   UNL     1     -11.736  11.565  68.278  1.00  0.00    -0.301 C  
HETATM   29  C   UNL     1     -12.751  11.072  70.488  1.00  0.00    -0.331 A  
HETATM   30  C   UNL     1     -13.148  11.467  71.767  1.00  0.00    -0.503 A  
HETATM   31  O   UNL     1     -11.833  10.384  67.967  1.00  0.00    -0.328 OA 
HETATM   32  C   UNL     1     -12.944  12.783  72.182  1.00  0.00    -0.344 A  
HETATM   33  C   UNL     1     -12.342  13.700  71.319  1.00  0.00    -0.359 A  
ENDBRANCH  20  21
ENDBRANCH  18  20
ENDBRANCH  16  17
ENDBRANCH  15  16
ENDBRANCH  13  15
ENDBRANCH  10  11
ENDBRANCH   9  10
ENDBRANCH   5   6
ENDBRANCH   4   5
TORSDOF 9
ENDMDL
MODEL      410
REMARK 921   NORMALIZED FREE ENERGY PREDICTED BY IDOCK:   -1.45 KCAL/MOL
REMARK 922        TOTAL FREE ENERGY PREDICTED BY IDOCK:   -5.42 KCAL/MOL
REMARK 923 INTER-LIGAND FREE ENERGY PREDICTED BY IDOCK:   -4.67 KCAL/MOL
REMARK 924 INTRA-LIGAND FREE ENERGY PREDICTED BY IDOCK:   -0.75 KCAL/MOL
REMARK 927      BINDING AFFINITY PREDICTED BY RF-SCORE:    0.00 PKD
ROOT
HETATM    1  C   UNL     1     -11.145   3.400  63.471  1.00  0.00     0.045 C  
HETATM    2  C   UNL     1      -9.728   2.912  63.759  1.00  0.00    -0.133 C  
HETATM    3  C   UNL     1      -8.797   3.312  62.609  1.00  0.00    -0.088 C  
HETATM    4  C   UNL     1      -9.259   3.457  65.122  1.00  0.00    -0.149 C  
ENDROOT
BRANCH   4   5
HETATM    5  C   UNL     1      -7.850   2.991  65.464  1.00  0.00    -0.081 C  
BRANCH   5   6
HETATM    6  C   UNL     1      -6.848   4.138  65.536  1.00  0.00    -0.057 C  
HETATM    7  C   UNL     1      -7.247   5.171  66.607  1.00  0.00    -0.081 C  
HETATM    8  C   UNL     1      -7.333   4.546  68.008  1.00  0.00    -0.065 C  
HETATM    9  C   UNL     1      -6.254   6.346  66.568  1.00  0.00    -0.037 C  
BRANCH   9  10
HETATM   10  C   UNL     1      -6.598   7.404  67.611  1.00  0.00    -0.061 C  
BRANCH  10  11
HETATM   11  C   UNL     1      -7.272   8.620  66.997  1.00  0.00    -0.076 C  
HETATM   12  C   UNL     1      -6.244   9.627  66.447  1.00  0.00    -0.068 C  
HETATM   13  C   UNL     1      -6.940  10.911  65.956  1.00  0.00    -0.066 C  
HETATM   14  C   UNL     1      -5.387   9.034  65.321  1.00  0.00    -0.038 C  
BRANCH  13  15
HETATM   15  C   UNL     1      -7.744  11.658  67.027  1.00  0.00    -0.159 C  
BRANCH  15  16
HETATM   16  C   UNL     1      -7.121  11.546  68.419  1.00  0.00    -0.081 C  
BRANCH  16  17
HETATM   17  C   UNL     1      -6.869  12.900  69.033  1.00  0.00    -0.080 C  
HETATM   18  C   UNL     1      -7.812  13.859  68.938  1.00  0.00    -0.022 C  
HETATM   19  C   UNL     1      -5.578  13.077  69.776  1.00  0.00    -0.105 C  
BRANCH  18  20
HETATM   20  C   UNL     1      -7.769  15.230  69.561  1.00  0.00    -0.212 C  
BRANCH  20  21
HETATM   21  C   UNL     1      -7.907  16.319  68.515  1.00  0.00    -0.192 C  
HETATM   22  C   UNL     1      -9.038  17.018  68.280  1.00  0.00    -0.241 C  
HETATM   23  C   UNL     1     -10.359  16.807  68.971  1.00  0.00    -0.326 C  
HETATM   24  C   UNL     1      -9.060  18.129  67.283  1.00  0.00    -0.252 C  
HETATM   25  O   UNL     1     -10.094  18.736  67.036  1.00  0.00    -0.321 OA 
HETATM   26  C   UNL     1      -7.804  18.497  66.614  1.00  0.00    -0.270 A  
HETATM   27  C   UNL     1      -6.649  17.760  66.832  1.00  0.00    -0.204 A  
HETATM   28  C   UNL     1      -6.667  16.600  67.734  1.00  0.00    -0.139 C  
HETATM   29  C   UNL     1      -5.460  18.114  66.182  1.00  0.00    -0.210 A  
HETATM   30  C   UNL     1      -5.431  19.213  65.321  1.00  0.00    -0.209 A  
HETATM   31  O   UNL     1      -5.666  15.900  67.835  1.00  0.00    -0.120 OA 
HETATM   32  C   UNL     1      -6.590  19.957  65.105  1.00  0.00    -0.327 A  
HETATM   33  C   UNL     1      -7.777  19.601  65.749  1.00  0.00    -0.245 A  
ENDBRANCH  20  21
ENDBRANCH  18  20
ENDBRANCH  16  17
ENDBRANCH  15  16
ENDBRANCH  13  15
ENDBRANCH  10  11
ENDBRANCH   9  10
ENDBRANCH   5   6
ENDBRANCH   4   5
TORSDOF 9
ENDMDL
MODEL      411
REMARK 921   NORMALIZED FREE ENERGY PREDICTED BY IDOCK:   -1.43 KCAL/MOL
REMARK 922        TOTAL FREE ENERGY PREDICTED BY IDOCK:   -5.38 KCAL/MOL
REMARK 923 INTER-LIGAND FREE ENERGY PREDICTED BY IDOCK:   -5.39 KCAL/MOL
REMARK 924 INTRA-LIGAND FREE ENERGY PREDICTED BY IDOCK:    0.00 KCAL/MOL
REMARK 927      BINDING AFFINITY PREDICTED BY RF-SCORE:    0.00 PKD
ROOT
HETATM    1  C   UNL     1      -7.190   8.421  68.624  1.00  0.00    -0.080 C  
HETATM    2  C   UNL     1      -7.323   9.767  69.333  1.00  0.00    -0.087 C  
HETATM    3  C   UNL     1      -6.243   9.894  70.412  1.00  0.00    -0.094 C  
HETATM    4  C   UNL     1      -7.269  10.906  68.297  1.00  0.00    -0.084 C  
ENDROOT
BRANCH   4   5
HETATM    5  C   UNL     1      -7.408  12.274  68.952  1.00  0.00    -0.041 C  
BRANCH   5   6
HETATM    6  C   UNL     1      -6.924  13.411  68.058  1.00  0.00    -0.127 C  
HETATM    7  C   UNL     1      -7.875  14.623  68.122  1.00  0.00    -0.128 C  
HETATM    8  C   UNL     1      -8.004  15.180  69.547  1.00  0.00    -0.175 C  
HETATM    9  C   UNL     1      -7.389  15.696  67.133  1.00  0.00    -0.247 C  
BRANCH   9  10
HETATM   10  C   UNL     1      -8.292  16.925  67.152  1.00  0.00    -0.217 C  
BRANCH  10  11
HETATM   11  C   UNL     1      -9.744  16.567  67.421  1.00  0.00    -0.246 C  
HETATM   12  C   UNL     1     -10.107  16.729  68.910  1.00  0.00    -0.285 C  
HETATM   13  C   UNL     1     -11.539  16.231  69.185  1.00  0.00    -0.213 C  
HETATM   14  C   UNL     1      -9.955  18.175  69.397  1.00  0.00     0.045 C  
BRANCH  13  15
HETATM   15  C   UNL     1     -11.786  14.757  68.838  1.00  0.00    -0.340 C  
BRANCH  15  16
HETATM   16  C   UNL     1     -13.021  14.184  69.534  1.00  0.00     0.717 C  
BRANCH  16  17
HETATM   17  C   UNL     1     -12.656  13.367  70.748  1.00  0.00    -0.369 C  
HETATM   18  C   UNL     1     -12.709  12.022  70.685  1.00  0.00    -0.163 C  
HETATM   19  C   UNL     1     -12.192  14.123  71.958  1.00  0.00    -0.141 C  
BRANCH  18  20
HETATM   20  C   UNL     1     -12.299  11.052  71.762  1.00  0.00    -0.049 C  
BRANCH  20  21
HETATM   21  C   UNL     1     -11.871   9.721  71.176  1.00  0.00    -0.466 C  
HETATM   22  C   UNL     1     -11.262   9.569  69.981  1.00  0.00    -0.243 C  
HETATM   23  C   UNL     1     -10.952  10.675  69.008  1.00  0.00    -0.295 C  
HETATM   24  C   UNL     1     -10.803   8.226  69.519  1.00  0.00    -0.116 C  
HETATM   25  O   UNL     1     -10.291   8.077  68.417  1.00  0.00    -0.204 OA 
HETATM   26  C   UNL     1     -10.960   7.080  70.426  1.00  0.00    -0.301 A  
HETATM   27  C   UNL     1     -11.612   7.229  71.641  1.00  0.00    -0.306 A  
HETATM   28  C   UNL     1     -12.156   8.535  72.036  1.00  0.00    -0.364 C  
HETATM   29  C   UNL     1     -11.764   6.128  72.494  1.00  0.00    -0.259 A  
HETATM   30  C   UNL     1     -11.253   4.881  72.128  1.00  0.00     0.089 A  
HETATM   31  O   UNL     1     -12.818   8.626  73.064  1.00  0.00    -0.249 OA 
HETATM   32  C   UNL     1     -10.593   4.732  70.909  1.00  0.00     0.005 A  
HETATM   33  C   UNL     1     -10.446   5.828  70.057  1.00  0.00    -0.353 A  
ENDBRANCH  20  21
ENDBRANCH  18  20
ENDBRANCH  16  17
ENDBRANCH  15  16
ENDBRANCH  13  15
ENDBRANCH  10  11
ENDBRANCH   9  10
ENDBRANCH   5   6
ENDBRANCH   4   5
TORSDOF 9
ENDMDL
MODEL      412
REMARK 921   NORMALIZED FREE ENERGY PREDICTED BY IDOCK:   -1.34 KCAL/MOL
REMARK 922        TOTAL FREE ENERGY PREDICTED BY IDOCK:   -5.25 KCAL/MOL
REMARK 923 INTER-LIGAND FREE ENERGY PREDICTED BY IDOCK:   -5.28 KCAL/MOL
REMARK 924 INTRA-LIGAND FREE ENERGY PREDICTED BY IDOCK:    0.03 KCAL/MOL
REMARK 927      BINDING AFFINITY PREDICTED BY RF-SCORE:    0.00 PKD
ROOT
HETATM    1  C   UNL     1      -9.879   5.526  70.250  1.00  0.00    -0.260 C  
HETATM    2  C   UNL     1      -9.106   6.830  70.430  1.00  0.00    -0.153 C  
HETATM    3  C   UNL     1      -9.233   7.313  71.879  1.00  0.00    -0.147 C  
HETATM    4  C   UNL     1      -7.642   6.629  69.993  1.00  0.00    -0.100 C  
ENDROOT
BRANCH   4   5
HETATM    5  C   UNL     1      -6.826   7.906  70.145  1.00  0.00    -0.045 C  
BRANCH   5   6
HETATM    6  C   UNL     1      -7.160   8.952  69.086  1.00  0.00    -0.063 C  
HETATM    7  C   UNL     1      -7.067   8.366  67.664  1.00  0.00    -0.083 C  
HETATM    8  C   UNL     1      -8.027   7.184  67.463  1.00  0.00    -0.113 C  
HETATM    9  C   UNL     1      -7.322   9.486  66.640  1.00  0.00    -0.090 C  
BRANCH   9  10
HETATM   10  C   UNL     1      -7.245   8.965  65.209  1.00  0.00    -0.088 C  
BRANCH  10  11
HETATM   11  C   UNL     1      -8.542   9.181  64.447  1.00  0.00    -0.204 C  
HETATM   12  C   UNL     1      -8.413  10.310  63.407  1.00  0.00    -0.185 C  
HETATM   13  C   UNL     1      -9.773  10.606  62.745  1.00  0.00    -0.279 C  
HETATM   14  C   UNL     1      -7.366   9.998  62.330  1.00  0.00    -0.135 C  
BRANCH  13  15
HETATM   15  C   UNL     1     -10.880  11.038  63.714  1.00  0.00    -0.201 C  
BRANCH  15  16
HETATM   16  C   UNL     1     -10.743  12.495  64.158  1.00  0.00    -0.423 C  
BRANCH  16  17
HETATM   17  C   UNL     1     -10.188  12.608  65.555  1.00  0.00    -0.298 C  
HETATM   18  C   UNL     1      -9.640  13.770  65.962  1.00  0.00    -0.197 C  
HETATM   19  C   UNL     1     -10.337  11.407  66.442  1.00  0.00    -0.284 C  
BRANCH  18  20
HETATM   20  C   UNL     1      -9.120  14.089  67.339  1.00  0.00    -0.209 C  
BRANCH  20  21
HETATM   21  C   UNL     1      -9.665  15.409  67.846  1.00  0.00    -0.207 C  
HETATM   22  C   UNL     1     -10.262  15.584  69.044  1.00  0.00    -0.229 C  
HETATM   23  C   UNL     1     -10.535  14.500  70.053  1.00  0.00     0.216 C  
HETATM   24  C   UNL     1     -10.699  16.938  69.495  1.00  0.00    -0.205 C  
HETATM   25  O   UNL     1     -11.279  17.093  70.561  1.00  0.00     0.331 OA 
HETATM   26  C   UNL     1     -10.397  18.094  68.638  1.00  0.00    -0.315 A  
HETATM   27  C   UNL     1      -9.811  17.913  67.394  1.00  0.00    -0.305 A  
HETATM   28  C   UNL     1      -9.486  16.562  66.916  1.00  0.00    -0.237 C  
HETATM   29  C   UNL     1      -9.536  19.020  66.582  1.00  0.00    -0.375 A  
HETATM   30  C   UNL     1      -9.842  20.309  67.024  1.00  0.00    -0.607 A  
HETATM   31  O   UNL     1      -9.064  16.412  65.775  1.00  0.00    -0.465 OA 
HETATM   32  C   UNL     1     -10.427  20.491  68.277  1.00  0.00    -0.016 A  
HETATM   33  C   UNL     1     -10.706  19.387  69.084  1.00  0.00     0.690 A  
ENDBRANCH  20  21
ENDBRANCH  18  20
ENDBRANCH  16  17
ENDBRANCH  15  16
ENDBRANCH  13  15
ENDBRANCH  10  11
ENDBRANCH   9  10
ENDBRANCH   5   6
ENDBRANCH   4   5
TORSDOF 9
ENDMDL
MODEL      413
REMARK 921   NORMALIZED FREE ENERGY PREDICTED BY IDOCK:   -1.31 KCAL/MOL
REMARK 922        TOTAL FREE ENERGY PREDICTED BY IDOCK:   -5.21 KCAL/MOL
REMARK 923 INTER-LIGAND FREE ENERGY PREDICTED BY IDOCK:   -4.32 KCAL/MOL
REMARK 924 INTRA-LIGAND FREE ENERGY PREDICTED BY IDOCK:   -0.89 KCAL/MOL
REMARK 927      BINDING AFFINITY PREDICTED BY RF-SCORE:    0.00 PKD
ROOT
HETATM    1  C   UNL     1     -11.479   3.336  63.252  1.00  0.00     0.686 C  
HETATM    2  C   UNL     1     -10.228   2.733  63.886  1.00  0.00    -0.140 C  
HETATM    3  C   UNL     1      -9.100   2.672  62.852  1.00  0.00    -0.087 C  
HETATM    4  C   UNL     1      -9.844   3.538  65.142  1.00  0.00    -0.086 C  
ENDROOT
BRANCH   4   5
HETATM    5  C   UNL     1      -8.604   2.971  65.821  1.00  0.00    -0.116 C  
BRANCH   5   6
HETATM    6  C   UNL     1      -7.519   4.019  66.044  1.00  0.00    -0.088 C  
HETATM    7  C   UNL     1      -8.043   5.208  66.872  1.00  0.00    -0.108 C  
HETATM    8  C   UNL     1      -8.551   4.770  68.254  1.00  0.00    -0.107 C  
HETATM    9  C   UNL     1      -6.936   6.271  66.983  1.00  0.00    -0.071 C  
BRANCH   9  10
HETATM   10  C   UNL     1      -7.397   7.475  67.797  1.00  0.00    -0.103 C  
BRANCH  10  11
HETATM   11  C   UNL     1      -7.540   8.725  66.943  1.00  0.00    -0.090 C  
HETATM   12  C   UNL     1      -6.202   9.476  66.800  1.00  0.00    -0.065 C  
HETATM   13  C   UNL     1      -6.397  10.808  66.050  1.00  0.00    -0.126 C  
HETATM   14  C   UNL     1      -5.129   8.634  66.097  1.00  0.00    -0.030 C  
BRANCH  13  15
HETATM   15  C   UNL     1      -7.371  11.787  66.718  1.00  0.00    -0.052 C  
BRANCH  15  16
HETATM   16  C   UNL     1      -7.484  11.570  68.227  1.00  0.00    -0.103 C  
BRANCH  16  17
HETATM   17  C   UNL     1      -7.120  12.811  69.003  1.00  0.00    -0.025 C  
HETATM   18  C   UNL     1      -7.911  13.899  68.927  1.00  0.00     0.006 C  
HETATM   19  C   UNL     1      -5.900  12.732  69.872  1.00  0.00    -0.134 C  
BRANCH  18  20
HETATM   20  C   UNL     1      -7.751  15.186  69.694  1.00  0.00    -0.148 C  
BRANCH  20  21
HETATM   21  C   UNL     1      -7.759  16.387  68.770  1.00  0.00    -0.214 C  
HETATM   22  C   UNL     1      -6.703  16.799  68.036  1.00  0.00    -0.151 C  
HETATM   23  C   UNL     1      -5.333  16.175  68.047  1.00  0.00    -0.124 C  
HETATM   24  C   UNL     1      -6.826  17.948  67.091  1.00  0.00    -0.178 C  
HETATM   25  O   UNL     1      -5.859  18.351  66.458  1.00  0.00    -0.146 OA 
HETATM   26  C   UNL     1      -8.143  18.577  66.918  1.00  0.00    -0.254 A  
HETATM   27  C   UNL     1      -9.221  18.175  67.692  1.00  0.00    -0.259 A  
HETATM   28  C   UNL     1      -9.060  17.116  68.698  1.00  0.00    -0.268 C  
HETATM   29  C   UNL     1     -10.470  18.787  67.526  1.00  0.00    -0.495 A  
HETATM   30  C   UNL     1     -10.635  19.797  66.575  1.00  0.00    -0.580 A  
HETATM   31  O   UNL     1      -9.995  16.845  69.443  1.00  0.00    -0.214 OA 
HETATM   32  C   UNL     1      -9.553  20.198  65.793  1.00  0.00    -0.185 A  
HETATM   33  C   UNL     1      -8.307  19.591  65.963  1.00  0.00    -0.261 A  
ENDBRANCH  20  21
ENDBRANCH  18  20
ENDBRANCH  16  17
ENDBRANCH  15  16
ENDBRANCH  13  15
ENDBRANCH  10  11
ENDBRANCH   9  10
ENDBRANCH   5   6
ENDBRANCH   4   5
TORSDOF 9
ENDMDL
MODEL      414
REMARK 921   NORMALIZED FREE ENERGY PREDICTED BY IDOCK:   -1.27 KCAL/MOL
REMARK 922        TOTAL FREE ENERGY PREDICTED BY IDOCK:   -5.13 KCAL/MOL
REMARK 923 INTER-LIGAND FREE ENERGY PREDICTED BY IDOCK:   -4.83 KCAL/MOL
REMARK 924 INTRA-LIGAND FREE ENERGY PREDICTED BY IDOCK:   -0.30 KCAL/MOL
REMARK 927      BINDING AFFINITY PREDICTED BY RF-SCORE:    0.00 PKD
ROOT
HETATM    1  C   UNL     1     -12.635  16.045  74.234  1.00  0.00    -0.685 C  
HETATM    2  C   UNL     1     -12.184  15.999  72.776  1.00  0.00    -0.617 C  
HETATM    3  C   UNL     1     -10.828  15.292  72.674  1.00  0.00     0.986 C  
HETATM    4  C   UNL     1     -13.273  15.328  71.918  1.00  0.00    -0.506 C  
ENDROOT
BRANCH   4   5
HETATM    5  C   UNL     1     -12.877  15.264  70.449  1.00  0.00    -0.360 C  
BRANCH   5   6
HETATM    6  C   UNL     1     -12.882  13.843  69.895  1.00  0.00     0.152 C  
HETATM    7  C   UNL     1     -12.729  12.798  71.017  1.00  0.00    -0.331 C  
HETATM    8  C   UNL     1     -13.861  12.893  72.052  1.00  0.00    -0.265 C  
HETATM    9  C   UNL     1     -12.647  11.395  70.391  1.00  0.00    -0.267 C  
BRANCH   9  10
HETATM   10  C   UNL     1     -12.496  10.314  71.457  1.00  0.00    -0.524 C  
BRANCH  10  11
HETATM   11  C   UNL     1     -11.047   9.901  71.657  1.00  0.00     0.112 C  
HETATM   12  C   UNL     1     -10.715   8.599  70.905  1.00  0.00    -0.269 C  
HETATM   13  C   UNL     1      -9.285   8.124  71.231  1.00  0.00    -0.193 C  
HETATM   14  C   UNL     1     -10.884   8.738  69.387  1.00  0.00    -0.123 C  
BRANCH  13  15
HETATM   15  C   UNL     1      -9.023   7.844  72.717  1.00  0.00    -0.258 C  
BRANCH  15  16
HETATM   16  C   UNL     1      -8.312   6.510  72.950  1.00  0.00    -0.115 C  
BRANCH  16  17
HETATM   17  C   UNL     1      -7.688   5.976  71.686  1.00  0.00    -0.101 C  
HETATM   18  C   UNL     1      -6.673   6.649  71.109  1.00  0.00    -0.058 C  
HETATM   19  C   UNL     1      -8.215   4.669  71.172  1.00  0.00    -0.092 C  
BRANCH  18  20
HETATM   20  C   UNL     1      -5.879   6.223  69.903  1.00  0.00    -0.018 C  
BRANCH  20  21
HETATM   21  C   UNL     1      -6.544   6.667  68.615  1.00  0.00    -0.051 C  
HETATM   22  C   UNL     1      -6.892   5.840  67.606  1.00  0.00    -0.060 C  
HETATM   23  C   UNL     1      -6.635   4.358  67.560  1.00  0.00    -0.046 C  
HETATM   24  C   UNL     1      -7.616   6.355  66.406  1.00  0.00    -0.090 C  
HETATM   25  O   UNL     1      -7.893   5.617  65.470  1.00  0.00    -0.093 OA 
HETATM   26  C   UNL     1      -8.012   7.771  66.380  1.00  0.00    -0.099 A  
HETATM   27  C   UNL     1      -7.630   8.627  67.402  1.00  0.00    -0.093 A  
HETATM   28  C   UNL     1      -6.822   8.130  68.524  1.00  0.00    -0.068 C  
HETATM   29  C   UNL     1      -8.005   9.976  67.362  1.00  0.00    -0.106 A  
HETATM   30  C   UNL     1      -8.771  10.460  66.299  1.00  0.00    -0.163 A  
HETATM   31  O   UNL     1      -6.407   8.921  69.364  1.00  0.00    -0.043 OA 
HETATM   32  C   UNL     1      -9.159   9.599  65.274  1.00  0.00    -0.269 A  
HETATM   33  C   UNL     1      -8.781   8.256  65.312  1.00  0.00    -0.121 A  
ENDBRANCH  20  21
ENDBRANCH  18  20
ENDBRANCH  16  17
ENDBRANCH  15  16
ENDBRANCH  13  15
ENDBRANCH  10  11
ENDBRANCH   9  10
ENDBRANCH   5   6
ENDBRANCH   4   5
TORSDOF 9
ENDMDL
MODEL      415
REMARK 921   NORMALIZED FREE ENERGY PREDICTED BY IDOCK:   -1.22 KCAL/MOL
REMARK 922        TOTAL FREE ENERGY PREDICTED BY IDOCK:   -5.07 KCAL/MOL
REMARK 923 INTER-LIGAND FREE ENERGY PREDICTED BY IDOCK:   -4.68 KCAL/MOL
REMARK 924 INTRA-LIGAND FREE ENERGY PREDICTED BY IDOCK:   -0.39 KCAL/MOL
REMARK 927      BINDING AFFINITY PREDICTED BY RF-SCORE:    0.00 PKD
ROOT
HETATM    1  C   UNL     1      -8.951   8.519  67.764  1.00  0.00    -0.140 C  
HETATM    2  C   UNL     1      -8.584   9.727  68.623  1.00  0.00    -0.121 C  
HETATM    3  C   UNL     1      -8.614   9.337  70.105  1.00  0.00    -0.215 C  
HETATM    4  C   UNL     1      -7.217  10.283  68.180  1.00  0.00    -0.084 C  
ENDROOT
BRANCH   4   5
HETATM    5  C   UNL     1      -6.807  11.498  69.001  1.00  0.00    -0.107 C  
BRANCH   5   6
HETATM    6  C   UNL     1      -5.799  12.387  68.282  1.00  0.00    -0.059 C  
HETATM    7  C   UNL     1      -6.171  13.878  68.406  1.00  0.00    -0.101 C  
HETATM    8  C   UNL     1      -6.228  14.338  69.870  1.00  0.00    -0.148 C  
HETATM    9  C   UNL     1      -5.175  14.715  67.585  1.00  0.00     0.086 C  
BRANCH   9  10
HETATM   10  C   UNL     1      -5.491  16.204  67.671  1.00  0.00    -0.163 C  
BRANCH  10  11
HETATM   11  C   UNL     1      -6.763  16.567  66.921  1.00  0.00    -0.233 C  
HETATM   12  C   UNL     1      -6.606  17.880  66.132  1.00  0.00    -0.306 C  
HETATM   13  C   UNL     1      -7.944  18.301  65.493  1.00  0.00     0.616 C  
HETATM   14  C   UNL     1      -5.519  17.791  65.053  1.00  0.00     0.302 C  
BRANCH  13  15
HETATM   15  C   UNL     1      -9.089  18.530  66.488  1.00  0.00    -0.299 C  
BRANCH  15  16
HETATM   16  C   UNL     1     -10.398  17.878  66.042  1.00  0.00    -0.318 C  
BRANCH  16  17
HETATM   17  C   UNL     1     -10.541  16.477  66.579  1.00  0.00    -0.217 C  
HETATM   18  C   UNL     1      -9.474  15.863  67.127  1.00  0.00    -0.221 C  
HETATM   19  C   UNL     1     -11.908  15.863  66.516  1.00  0.00     0.863 C  
BRANCH  18  20
HETATM   20  C   UNL     1      -9.452  14.508  67.786  1.00  0.00    -0.210 C  
BRANCH  20  21
HETATM   21  C   UNL     1     -10.326  14.480  69.024  1.00  0.00    -0.227 C  
HETATM   22  C   UNL     1     -10.593  15.552  69.801  1.00  0.00    -0.301 C  
HETATM   23  C   UNL     1     -10.034  16.936  69.604  1.00  0.00     0.095 C  
HETATM   24  C   UNL     1     -11.530  15.448  70.958  1.00  0.00    -0.364 C  
HETATM   25  O   UNL     1     -11.740  16.407  71.689  1.00  0.00    -0.465 OA 
HETATM   26  C   UNL     1     -12.218  14.170  71.191  1.00  0.00    -0.435 A  
HETATM   27  C   UNL     1     -11.922  13.060  70.414  1.00  0.00    -0.337 A  
HETATM   28  C   UNL     1     -10.916  13.147  69.347  1.00  0.00     0.001 C  
HETATM   29  C   UNL     1     -12.577  11.845  70.651  1.00  0.00    -0.269 A  
HETATM   30  C   UNL     1     -13.533  11.749  71.664  1.00  0.00    -0.071 A  
HETATM   31  O   UNL     1     -10.593  12.133  68.739  1.00  0.00    -0.229 OA 
HETATM   32  C   UNL     1     -13.834  12.866  72.443  1.00  0.00    -0.443 A  
HETATM   33  C   UNL     1     -13.178  14.076  72.209  1.00  0.00    -0.558 A  
ENDBRANCH  20  21
ENDBRANCH  18  20
ENDBRANCH  16  17
ENDBRANCH  15  16
ENDBRANCH  13  15
ENDBRANCH  10  11
ENDBRANCH   9  10
ENDBRANCH   5   6
ENDBRANCH   4   5
TORSDOF 9
ENDMDL
MODEL      416
REMARK 921   NORMALIZED FREE ENERGY PREDICTED BY IDOCK:   -1.12 KCAL/MOL
REMARK 922        TOTAL FREE ENERGY PREDICTED BY IDOCK:   -4.91 KCAL/MOL
REMARK 923 INTER-LIGAND FREE ENERGY PREDICTED BY IDOCK:   -5.13 KCAL/MOL
REMARK 924 INTRA-LIGAND FREE ENERGY PREDICTED BY IDOCK:    0.23 KCAL/MOL
REMARK 927      BINDING AFFINITY PREDICTED BY RF-SCORE:    0.00 PKD
ROOT
HETATM    1  C   UNL     1     -12.737  15.953  74.122  1.00  0.00    -0.661 C  
HETATM    2  C   UNL     1     -12.191  15.934  72.696  1.00  0.00    -0.603 C  
HETATM    3  C   UNL     1     -10.790  15.314  72.686  1.00  0.00     0.986 C  
HETATM    4  C   UNL     1     -13.179  15.194  71.773  1.00  0.00    -0.484 C  
ENDROOT
BRANCH   4   5
HETATM    5  C   UNL     1     -12.685  15.154  70.333  1.00  0.00    -0.378 C  
BRANCH   5   6
HETATM    6  C   UNL     1     -12.640  13.740  69.762  1.00  0.00    -0.083 C  
HETATM    7  C   UNL     1     -12.444  12.688  70.871  1.00  0.00    -0.368 C  
HETATM    8  C   UNL     1     -13.574  12.728  71.910  1.00  0.00    -0.343 C  
HETATM    9  C   UNL     1     -12.312  11.297  70.227  1.00  0.00    -0.389 C  
BRANCH   9  10
HETATM   10  C   UNL     1     -12.118  10.210  71.279  1.00  0.00    -0.489 C  
BRANCH  10  11
HETATM   11  C   UNL     1     -10.670   9.757  71.377  1.00  0.00    -0.091 C  
HETATM   12  C   UNL     1     -10.271   8.856  70.193  1.00  0.00    -0.218 C  
HETATM   13  C   UNL     1      -8.847   8.296  70.382  1.00  0.00    -0.141 C  
HETATM   14  C   UNL     1     -10.372   9.579  68.845  1.00  0.00    -0.225 C  
BRANCH  13  15
HETATM   15  C   UNL     1      -8.649   7.456  71.650  1.00  0.00    -0.122 C  
BRANCH  15  16
HETATM   16  C   UNL     1      -8.880   5.964  71.413  1.00  0.00    -0.137 C  
BRANCH  16  17
HETATM   17  C   UNL     1      -8.580   5.567  69.989  1.00  0.00    -0.120 C  
HETATM   18  C   UNL     1      -7.301   5.519  69.568  1.00  0.00    -0.066 C  
HETATM   19  C   UNL     1      -9.751   5.189  69.131  1.00  0.00    -0.232 C  
BRANCH  18  20
HETATM   20  C   UNL     1      -6.814   5.065  68.217  1.00  0.00    -0.056 C  
BRANCH  20  21
HETATM   21  C   UNL     1      -6.819   6.201  67.214  1.00  0.00    -0.063 C  
HETATM   22  C   UNL     1      -6.200   7.387  67.393  1.00  0.00    -0.047 C  
HETATM   23  C   UNL     1      -5.448   7.804  68.629  1.00  0.00    -0.027 C  
HETATM   24  C   UNL     1      -6.192   8.420  66.316  1.00  0.00    -0.049 C  
HETATM   25  O   UNL     1      -5.670   9.513  66.492  1.00  0.00    -0.052 OA 
HETATM   26  C   UNL     1      -6.809   8.091  65.023  1.00  0.00    -0.055 A  
HETATM   27  C   UNL     1      -7.471   6.885  64.847  1.00  0.00    -0.094 A  
HETATM   28  C   UNL     1      -7.566   5.921  65.952  1.00  0.00    -0.086 C  
HETATM   29  C   UNL     1      -8.064   6.585  63.614  1.00  0.00    -0.014 A  
HETATM   30  C   UNL     1      -7.983   7.494  62.557  1.00  0.00    -0.133 A  
HETATM   31  O   UNL     1      -8.242   4.908  65.812  1.00  0.00    -0.110 OA 
HETATM   32  C   UNL     1      -7.313   8.705  62.732  1.00  0.00    -0.096 A  
HETATM   33  C   UNL     1      -6.727   9.005  63.963  1.00  0.00    -0.088 A  
ENDBRANCH  20  21
ENDBRANCH  18  20
ENDBRANCH  16  17
ENDBRANCH  15  16
ENDBRANCH  13  15
ENDBRANCH  10  11
ENDBRANCH   9  10
ENDBRANCH   5   6
ENDBRANCH   4   5
TORSDOF 9
ENDMDL
MODEL      417
REMARK 921   NORMALIZED FREE ENERGY PREDICTED BY IDOCK:   -0.94 KCAL/MOL
REMARK 922        TOTAL FREE ENERGY PREDICTED BY IDOCK:   -4.64 KCAL/MOL
REMARK 923 INTER-LIGAND FREE ENERGY PREDICTED BY IDOCK:   -3.66 KCAL/MOL
REMARK 924 INTRA-LIGAND FREE ENERGY PREDICTED BY IDOCK:   -0.98 KCAL/MOL
REMARK 927      BINDING AFFINITY PREDICTED BY RF-SCORE:    0.00 PKD
ROOT
HETATM    1  C   UNL     1     -11.695  13.998  67.900  1.00  0.00    -0.397 C  
HETATM    2  C   UNL     1     -11.840  13.721  66.406  1.00  0.00    -0.434 C  
HETATM    3  C   UNL     1     -10.598  14.224  65.662  1.00  0.00    -0.328 C  
HETATM    4  C   UNL     1     -12.103  12.220  66.180  1.00  0.00    -0.189 C  
ENDROOT
BRANCH   4   5
HETATM    5  C   UNL     1     -12.264  11.890  64.702  1.00  0.00    -0.176 C  
BRANCH   5   6
HETATM    6  C   UNL     1     -10.963  12.028  63.918  1.00  0.00    -0.465 C  
HETATM    7  C   UNL     1      -9.926  10.976  64.356  1.00  0.00    -0.368 C  
HETATM    8  C   UNL     1     -10.437   9.541  64.152  1.00  0.00     2.831 C  
HETATM    9  C   UNL     1      -8.608  11.223  63.601  1.00  0.00     0.307 C  
BRANCH   9  10
HETATM   10  C   UNL     1      -7.540  10.208  63.993  1.00  0.00    -0.128 C  
BRANCH  10  11
HETATM   11  C   UNL     1      -6.451  10.823  64.857  1.00  0.00     0.182 C  
HETATM   12  C   UNL     1      -6.148   9.959  66.096  1.00  0.00    -0.067 C  
HETATM   13  C   UNL     1      -5.144  10.666  67.027  1.00  0.00    -0.042 C  
HETATM   14  C   UNL     1      -5.623   8.566  65.725  1.00  0.00    -0.042 C  
BRANCH  13  15
HETATM   15  C   UNL     1      -5.606  12.030  67.555  1.00  0.00    -0.105 C  
BRANCH  15  16
HETATM   16  C   UNL     1      -6.415  11.920  68.849  1.00  0.00    -0.082 C  
BRANCH  16  17
HETATM   17  C   UNL     1      -7.892  11.786  68.579  1.00  0.00    -0.144 C  
HETATM   18  C   UNL     1      -8.562  10.719  69.060  1.00  0.00    -0.143 C  
HETATM   19  C   UNL     1      -8.547  12.904  67.823  1.00  0.00    -0.185 C  
BRANCH  18  20
HETATM   20  C   UNL     1     -10.043  10.466  68.963  1.00  0.00    -0.227 C  
BRANCH  20  21
HETATM   21  C   UNL     1     -10.499   9.443  69.984  1.00  0.00    -0.266 C  
HETATM   22  C   UNL     1     -11.631   9.538  70.714  1.00  0.00    -0.378 C  
HETATM   23  C   UNL     1     -12.602  10.689  70.680  1.00  0.00    -0.454 C  
HETATM   24  C   UNL     1     -12.042   8.442  71.641  1.00  0.00    -0.313 C  
HETATM   25  O   UNL     1     -13.044   8.544  72.336  1.00  0.00    -0.346 OA 
HETATM   26  C   UNL     1     -11.226   7.220  71.687  1.00  0.00    -0.275 A  
HETATM   27  C   UNL     1     -10.047   7.133  70.961  1.00  0.00    -0.199 A  
HETATM   28  C   UNL     1      -9.598   8.264  70.137  1.00  0.00    -0.167 C  
HETATM   29  C   UNL     1      -9.273   5.968  71.021  1.00  0.00    -0.168 A  
HETATM   30  C   UNL     1      -9.688   4.888  71.802  1.00  0.00    -0.223 A  
HETATM   31  O   UNL     1      -8.505   8.210  69.585  1.00  0.00    -0.123 OA 
HETATM   32  C   UNL     1     -10.876   4.973  72.528  1.00  0.00    -0.257 A  
HETATM   33  C   UNL     1     -11.645   6.136  72.473  1.00  0.00    -0.294 A  
ENDBRANCH  20  21
ENDBRANCH  18  20
ENDBRANCH  16  17
ENDBRANCH  15  16
ENDBRANCH  13  15
ENDBRANCH  10  11
ENDBRANCH   9  10
ENDBRANCH   5   6
ENDBRANCH   4   5
TORSDOF 9
ENDMDL
MODEL      418
REMARK 921   NORMALIZED FREE ENERGY PREDICTED BY IDOCK:   -0.89 KCAL/MOL
REMARK 922        TOTAL FREE ENERGY PREDICTED BY IDOCK:   -4.56 KCAL/MOL
REMARK 923 INTER-LIGAND FREE ENERGY PREDICTED BY IDOCK:   -3.25 KCAL/MOL
REMARK 924 INTRA-LIGAND FREE ENERGY PREDICTED BY IDOCK:   -1.31 KCAL/MOL
REMARK 927      BINDING AFFINITY PREDICTED BY RF-SCORE:    0.00 PKD
ROOT
HETATM    1  C   UNL     1     -10.974  13.397  63.918  1.00  0.00    -0.128 C  
HETATM    2  C   UNL     1     -10.079  12.171  63.751  1.00  0.00    -0.404 C  
HETATM    3  C   UNL     1      -9.904  11.469  65.102  1.00  0.00    -0.294 C  
HETATM    4  C   UNL     1     -10.664  11.245  62.668  1.00  0.00     0.556 C  
ENDROOT
BRANCH   4   5
HETATM    5  C   UNL     1      -9.803  10.008  62.455  1.00  0.00     0.263 C  
BRANCH   5   6
HETATM    6  C   UNL     1      -8.367  10.196  62.934  1.00  0.00    -0.169 C  
HETATM    7  C   UNL     1      -7.818   8.915  63.592  1.00  0.00    -0.141 C  
HETATM    8  C   UNL     1      -7.828   7.720  62.626  1.00  0.00    -0.135 C  
HETATM    9  C   UNL     1      -6.406   9.194  64.136  1.00  0.00    -0.083 C  
BRANCH   9  10
HETATM   10  C   UNL     1      -5.807   7.958  64.800  1.00  0.00    -0.045 C  
BRANCH  10  11
HETATM   11  C   UNL     1      -6.867   7.086  65.454  1.00  0.00    -0.052 C  
HETATM   12  C   UNL     1      -6.365   5.647  65.677  1.00  0.00    -0.038 C  
HETATM   13  C   UNL     1      -7.495   4.747  66.212  1.00  0.00    -0.086 C  
HETATM   14  C   UNL     1      -5.159   5.587  66.624  1.00  0.00    -0.005 C  
BRANCH  13  15
HETATM   15  C   UNL     1      -8.720   4.638  65.295  1.00  0.00    -0.137 C  
BRANCH  15  16
HETATM   16  C   UNL     1      -9.566   5.912  65.285  1.00  0.00     0.496 C  
BRANCH  16  17
HETATM   17  C   UNL     1      -9.918   6.364  66.679  1.00  0.00    -0.207 C  
HETATM   18  C   UNL     1     -10.157   7.670  66.914  1.00  0.00    -0.348 C  
HETATM   19  C   UNL     1     -10.038   5.298  67.727  1.00  0.00    -0.205 C  
BRANCH  18  20
HETATM   20  C   UNL     1     -10.604   8.285  68.215  1.00  0.00    -0.157 C  
BRANCH  20  21
HETATM   21  C   UNL     1      -9.906   9.606  68.472  1.00  0.00    -0.170 C  
HETATM   22  C   UNL     1      -8.569   9.762  68.572  1.00  0.00    -0.120 C  
HETATM   23  C   UNL     1      -7.550   8.655  68.498  1.00  0.00    -0.095 C  
HETATM   24  C   UNL     1      -7.964  11.115  68.748  1.00  0.00    -0.144 C  
HETATM   25  O   UNL     1      -6.756  11.255  68.882  1.00  0.00    -0.067 OA 
HETATM   26  C   UNL     1      -8.851  12.287  68.734  1.00  0.00     0.134 A  
HETATM   27  C   UNL     1     -10.227  12.127  68.662  1.00  0.00    -0.186 A  
HETATM   28  C   UNL     1     -10.816  10.782  68.600  1.00  0.00    -0.220 C  
HETATM   29  C   UNL     1     -11.064  13.250  68.660  1.00  0.00    -0.301 A  
HETATM   30  C   UNL     1     -10.516  14.533  68.721  1.00  0.00    -0.246 A  
HETATM   31  O   UNL     1     -12.034  10.656  68.641  1.00  0.00    -0.401 OA 
HETATM   32  C   UNL     1      -9.132  14.695  68.789  1.00  0.00    -0.178 A  
HETATM   33  C   UNL     1      -8.299  13.575  68.796  1.00  0.00     0.067 A  
ENDBRANCH  20  21
ENDBRANCH  18  20
ENDBRANCH  16  17
ENDBRANCH  15  16
ENDBRANCH  13  15
ENDBRANCH  10  11
ENDBRANCH   9  10
ENDBRANCH   5   6
ENDBRANCH   4   5
TORSDOF 9
ENDMDL
MODEL      419
REMARK 921   NORMALIZED FREE ENERGY PREDICTED BY IDOCK:   -0.86 KCAL/MOL
REMARK 922        TOTAL FREE ENERGY PREDICTED BY IDOCK:   -4.52 KCAL/MOL
REMARK 923 INTER-LIGAND FREE ENERGY PREDICTED BY IDOCK:   -6.41 KCAL/MOL
REMARK 924 INTRA-LIGAND FREE ENERGY PREDICTED BY IDOCK:    1.89 KCAL/MOL
REMARK 927      BINDING AFFINITY PREDICTED BY RF-SCORE:    0.00 PKD
ROOT
HETATM    1  C   UNL     1      -7.709  12.107  68.779  1.00  0.00    -0.034 C  
HETATM    2  C   UNL     1      -6.417  11.312  68.955  1.00  0.00    -0.063 C  
HETATM    3  C   UNL     1      -5.209  12.229  68.732  1.00  0.00    -0.054 C  
HETATM    4  C   UNL     1      -6.408  10.638  70.340  1.00  0.00    -0.117 C  
ENDROOT
BRANCH   4   5
HETATM    5  C   UNL     1      -5.141   9.822  70.564  1.00  0.00    -0.033 C  
BRANCH   5   6
HETATM    6  C   UNL     1      -5.196   8.449  69.903  1.00  0.00    -0.026 C  
HETATM    7  C   UNL     1      -6.618   7.857  69.947  1.00  0.00    -0.037 C  
HETATM    8  C   UNL     1      -7.640   8.754  69.231  1.00  0.00    -0.093 C  
HETATM    9  C   UNL     1      -6.592   6.438  69.352  1.00  0.00    -0.044 C  
BRANCH   9  10
HETATM   10  C   UNL     1      -7.976   5.799  69.367  1.00  0.00    -0.097 C  
BRANCH  10  11
HETATM   11  C   UNL     1      -8.716   5.999  68.054  1.00  0.00    -0.112 C  
HETATM   12  C   UNL     1      -8.069   5.202  66.906  1.00  0.00    -0.108 C  
HETATM   13  C   UNL     1      -8.747   5.525  65.560  1.00  0.00    -0.154 C  
HETATM   14  C   UNL     1      -8.098   3.688  67.154  1.00  0.00    -0.091 C  
BRANCH  13  15
HETATM   15  C   UNL     1      -8.687   7.002  65.148  1.00  0.00     0.134 C  
BRANCH  15  16
HETATM   16  C   UNL     1      -9.478   7.911  66.089  1.00  0.00    -0.158 C  
BRANCH  16  17
HETATM   17  C   UNL     1      -9.408   9.357  65.665  1.00  0.00    -0.309 C  
HETATM   18  C   UNL     1     -10.518  10.120  65.718  1.00  0.00    -0.128 C  
HETATM   19  C   UNL     1      -8.062   9.877  65.255  1.00  0.00    -0.139 C  
BRANCH  18  20
HETATM   20  C   UNL     1     -10.614  11.593  65.420  1.00  0.00    -0.331 C  
BRANCH  20  21
HETATM   21  C   UNL     1     -10.881  12.398  66.676  1.00  0.00    -0.281 C  
HETATM   22  C   UNL     1     -10.772  13.740  66.766  1.00  0.00    -0.276 C  
HETATM   23  C   UNL     1     -10.323  14.658  65.661  1.00  0.00    -0.370 C  
HETATM   24  C   UNL     1     -11.132  14.458  68.025  1.00  0.00    -0.272 C  
HETATM   25  O   UNL     1     -10.993  15.669  68.123  1.00  0.00    -0.288 OA 
HETATM   26  C   UNL     1     -11.680  13.679  69.144  1.00  0.00    -0.376 A  
HETATM   27  C   UNL     1     -11.764  12.296  69.065  1.00  0.00    -0.376 A  
HETATM   28  C   UNL     1     -11.304  11.592  67.860  1.00  0.00    -0.299 C  
HETATM   29  C   UNL     1     -12.279  11.563  70.141  1.00  0.00    -0.387 A  
HETATM   30  C   UNL     1     -12.717  12.220  71.292  1.00  0.00    -0.351 A  
HETATM   31  O   UNL     1     -11.289  10.367  67.847  1.00  0.00    -0.324 OA 
HETATM   32  C   UNL     1     -12.638  13.610  71.371  1.00  0.00    -0.415 A  
HETATM   33  C   UNL     1     -12.120  14.341  70.300  1.00  0.00    -0.403 A  
ENDBRANCH  20  21
ENDBRANCH  18  20
ENDBRANCH  16  17
ENDBRANCH  15  16
ENDBRANCH  13  15
ENDBRANCH  10  11
ENDBRANCH   9  10
ENDBRANCH   5   6
ENDBRANCH   4   5
TORSDOF 9
ENDMDL
MODEL      420
REMARK 921   NORMALIZED FREE ENERGY PREDICTED BY IDOCK:   -0.84 KCAL/MOL
REMARK 922        TOTAL FREE ENERGY PREDICTED BY IDOCK:   -4.49 KCAL/MOL
REMARK 923 INTER-LIGAND FREE ENERGY PREDICTED BY IDOCK:   -2.41 KCAL/MOL
REMARK 924 INTRA-LIGAND FREE ENERGY PREDICTED BY IDOCK:   -2.08 KCAL/MOL
REMARK 927      BINDING AFFINITY PREDICTED BY RF-SCORE:    0.00 PKD
ROOT
HETATM    1  C   UNL     1     -11.688  13.994  67.892  1.00  0.00    -0.397 C  
HETATM    2  C   UNL     1     -11.837  13.846  66.380  1.00  0.00    -0.436 C  
HETATM    3  C   UNL     1     -10.611  14.438  65.677  1.00  0.00    -0.339 C  
HETATM    4  C   UNL     1     -12.072  12.365  66.024  1.00  0.00    -0.327 C  
ENDROOT
BRANCH   4   5
HETATM    5  C   UNL     1     -12.237  12.163  64.524  1.00  0.00    -0.404 C  
BRANCH   5   6
HETATM    6  C   UNL     1     -10.949  12.414  63.747  1.00  0.00    -0.501 C  
HETATM    7  C   UNL     1      -9.911  11.303  63.997  1.00  0.00    -0.362 C  
HETATM    8  C   UNL     1     -10.436   9.920  63.583  1.00  0.00     1.872 C  
HETATM    9  C   UNL     1      -8.606  11.658  63.265  1.00  0.00     0.534 C  
BRANCH   9  10
HETATM   10  C   UNL     1      -7.538  10.590  63.475  1.00  0.00     0.035 C  
BRANCH  10  11
HETATM   11  C   UNL     1      -6.476  11.026  64.472  1.00  0.00     0.702 C  
HETATM   12  C   UNL     1      -6.118   9.896  65.455  1.00  0.00    -0.078 C  
HETATM   13  C   UNL     1      -5.145  10.398  66.540  1.00  0.00    -0.044 C  
HETATM   14  C   UNL     1      -5.523   8.671  64.749  1.00  0.00    -0.043 C  
BRANCH  13  15
HETATM   15  C   UNL     1      -5.675  11.559  67.392  1.00  0.00    -0.077 C  
BRANCH  15  16
HETATM   16  C   UNL     1      -6.495  11.085  68.593  1.00  0.00    -0.052 C  
BRANCH  16  17
HETATM   17  C   UNL     1      -7.912  10.741  68.207  1.00  0.00    -0.118 C  
HETATM   18  C   UNL     1      -8.366   9.487  68.395  1.00  0.00    -0.118 C  
HETATM   19  C   UNL     1      -8.759  11.860  67.679  1.00  0.00    -0.162 C  
BRANCH  18  20
HETATM   20  C   UNL     1      -9.767   8.989  68.151  1.00  0.00    -0.172 C  
BRANCH  20  21
HETATM   21  C   UNL     1      -9.926   7.545  68.582  1.00  0.00    -0.178 C  
HETATM   22  C   UNL     1      -9.790   6.480  67.764  1.00  0.00    -0.139 C  
HETATM   23  C   UNL     1      -9.512   6.541  66.286  1.00  0.00    -0.126 C  
HETATM   24  C   UNL     1      -9.886   5.087  68.294  1.00  0.00    -0.150 C  
HETATM   25  O   UNL     1      -9.807   4.121  67.548  1.00  0.00    -0.168 OA 
HETATM   26  C   UNL     1     -10.057   4.897  69.741  1.00  0.00    -0.319 A  
HETATM   27  C   UNL     1     -10.227   5.990  70.579  1.00  0.00    -0.262 A  
HETATM   28  C   UNL     1     -10.240   7.352  70.029  1.00  0.00    -0.209 C  
HETATM   29  C   UNL     1     -10.398   5.797  71.956  1.00  0.00    -0.254 A  
HETATM   30  C   UNL     1     -10.390   4.507  72.490  1.00  0.00    -0.257 A  
HETATM   31  O   UNL     1     -10.493   8.298  70.767  1.00  0.00    -0.193 OA 
HETATM   32  C   UNL     1     -10.214   3.408  71.649  1.00  0.00     0.015 A  
HETATM   33  C   UNL     1     -10.049   3.601  70.276  1.00  0.00     0.316 A  
ENDBRANCH  20  21
ENDBRANCH  18  20
ENDBRANCH  16  17
ENDBRANCH  15  16
ENDBRANCH  13  15
ENDBRANCH  10  11
ENDBRANCH   9  10
ENDBRANCH   5   6
ENDBRANCH   4   5
TORSDOF 9
ENDMDL
MODEL      421
REMARK 921   NORMALIZED FREE ENERGY PREDICTED BY IDOCK:   -0.76 KCAL/MOL
REMARK 922        TOTAL FREE ENERGY PREDICTED BY IDOCK:   -4.36 KCAL/MOL
REMARK 923 INTER-LIGAND FREE ENERGY PREDICTED BY IDOCK:   -2.57 KCAL/MOL
REMARK 924 INTRA-LIGAND FREE ENERGY PREDICTED BY IDOCK:   -1.80 KCAL/MOL
REMARK 927      BINDING AFFINITY PREDICTED BY RF-SCORE:    0.00 PKD
ROOT
HETATM    1  C   UNL     1     -14.126  16.316  73.665  1.00  0.00     1.119 C  
HETATM    2  C   UNL     1     -12.739  15.953  73.138  1.00  0.00    -0.631 C  
HETATM    3  C   UNL     1     -11.853  15.479  74.295  1.00  0.00    -0.164 C  
HETATM    4  C   UNL     1     -12.868  14.905  72.017  1.00  0.00    -0.399 C  
ENDROOT
BRANCH   4   5
HETATM    5  C   UNL     1     -11.510  14.514  71.449  1.00  0.00     0.019 C  
BRANCH   5   6
HETATM    6  C   UNL     1     -11.537  14.305  69.938  1.00  0.00    -0.337 C  
HETATM    7  C   UNL     1     -10.549  13.206  69.502  1.00  0.00     0.350 C  
HETATM    8  C   UNL     1     -10.862  11.854  70.160  1.00  0.00     0.825 C  
HETATM    9  C   UNL     1     -10.552  13.106  67.967  1.00  0.00    -0.246 C  
BRANCH   9  10
HETATM   10  C   UNL     1      -9.591  12.029  67.474  1.00  0.00    -0.177 C  
BRANCH  10  11
HETATM   11  C   UNL     1      -9.722  11.782  65.980  1.00  0.00    -0.254 C  
HETATM   12  C   UNL     1      -9.652  10.281  65.641  1.00  0.00    -0.289 C  
HETATM   13  C   UNL     1      -9.648  10.061  64.115  1.00  0.00    -0.274 C  
HETATM   14  C   UNL     1     -10.794   9.481  66.279  1.00  0.00     0.333 C  
BRANCH  13  15
HETATM   15  C   UNL     1      -8.482  10.726  63.372  1.00  0.00    -0.042 C  
BRANCH  15  16
HETATM   16  C   UNL     1      -7.673   9.736  62.534  1.00  0.00    -0.126 C  
BRANCH  16  17
HETATM   17  C   UNL     1      -7.425   8.444  63.271  1.00  0.00    -0.111 C  
HETATM   18  C   UNL     1      -7.293   8.459  64.613  1.00  0.00    -0.093 C  
HETATM   19  C   UNL     1      -7.397   7.189  62.449  1.00  0.00    -0.081 C  
BRANCH  18  20
HETATM   20  C   UNL     1      -7.130   7.265  65.516  1.00  0.00    -0.064 C  
BRANCH  20  21
HETATM   21  C   UNL     1      -8.055   7.345  66.714  1.00  0.00    -0.123 C  
HETATM   22  C   UNL     1      -9.183   6.619  66.863  1.00  0.00    -0.158 C  
HETATM   23  C   UNL     1      -9.742   5.651  65.853  1.00  0.00    -0.021 C  
HETATM   24  C   UNL     1      -9.992   6.705  68.114  1.00  0.00    -0.147 C  
HETATM   25  O   UNL     1     -11.038   6.081  68.235  1.00  0.00    -0.309 OA 
HETATM   26  C   UNL     1      -9.495   7.542  69.216  1.00  0.00    -0.154 A  
HETATM   27  C   UNL     1      -8.352   8.311  69.053  1.00  0.00    -0.120 A  
HETATM   28  C   UNL     1      -7.625   8.301  67.777  1.00  0.00    -0.102 C  
HETATM   29  C   UNL     1      -7.892   9.112  70.106  1.00  0.00    -0.114 A  
HETATM   30  C   UNL     1      -8.576   9.132  71.324  1.00  0.00    -0.133 A  
HETATM   31  O   UNL     1      -6.679   9.064  67.616  1.00  0.00    -0.064 OA 
HETATM   32  C   UNL     1      -9.722   8.355  71.489  1.00  0.00    -0.276 A  
HETATM   33  C   UNL     1     -10.183   7.560  70.438  1.00  0.00    -0.202 A  
ENDBRANCH  20  21
ENDBRANCH  18  20
ENDBRANCH  16  17
ENDBRANCH  15  16
ENDBRANCH  13  15
ENDBRANCH  10  11
ENDBRANCH   9  10
ENDBRANCH   5   6
ENDBRANCH   4   5
TORSDOF 9
ENDMDL
MODEL      422
REMARK 921   NORMALIZED FREE ENERGY PREDICTED BY IDOCK:   -0.60 KCAL/MOL
REMARK 922        TOTAL FREE ENERGY PREDICTED BY IDOCK:   -4.12 KCAL/MOL
REMARK 923 INTER-LIGAND FREE ENERGY PREDICTED BY IDOCK:   -4.41 KCAL/MOL
REMARK 924 INTRA-LIGAND FREE ENERGY PREDICTED BY IDOCK:    0.28 KCAL/MOL
REMARK 927      BINDING AFFINITY PREDICTED BY RF-SCORE:    0.00 PKD
ROOT
HETATM    1  C   UNL     1      -7.746   6.946  74.560  1.00  0.00    -0.132 C  
HETATM    2  C   UNL     1      -6.604   7.699  73.881  1.00  0.00    -0.091 C  
HETATM    3  C   UNL     1      -5.342   6.829  73.870  1.00  0.00    -0.046 C  
HETATM    4  C   UNL     1      -7.038   8.139  72.470  1.00  0.00    -0.116 C  
ENDROOT
BRANCH   4   5
HETATM    5  C   UNL     1      -5.936   8.904  71.751  1.00  0.00    -0.065 C  
BRANCH   5   6
HETATM    6  C   UNL     1      -5.445   8.195  70.493  1.00  0.00    -0.022 C  
HETATM    7  C   UNL     1      -6.597   7.478  69.763  1.00  0.00    -0.039 C  
HETATM    8  C   UNL     1      -7.706   8.453  69.339  1.00  0.00    -0.097 C  
HETATM    9  C   UNL     1      -6.027   6.707  68.560  1.00  0.00    -0.022 C  
BRANCH   9  10
HETATM   10  C   UNL     1      -7.124   5.976  67.793  1.00  0.00    -0.074 C  
BRANCH  10  11
HETATM   11  C   UNL     1      -7.600   6.762  66.582  1.00  0.00    -0.086 C  
HETATM   12  C   UNL     1      -7.949   5.836  65.401  1.00  0.00    -0.117 C  
HETATM   13  C   UNL     1      -8.297   6.656  64.143  1.00  0.00     0.141 C  
HETATM   14  C   UNL     1      -9.099   4.874  65.730  1.00  0.00    -0.148 C  
BRANCH  13  15
HETATM   15  C   UNL     1      -7.178   7.581  63.649  1.00  0.00    -0.079 C  
BRANCH  15  16
HETATM   16  C   UNL     1      -7.063   8.863  64.475  1.00  0.00    -0.089 C  
BRANCH  16  17
HETATM   17  C   UNL     1      -8.381   9.590  64.571  1.00  0.00    -0.167 C  
HETATM   18  C   UNL     1      -8.922   9.828  65.782  1.00  0.00    -0.195 C  
HETATM   19  C   UNL     1      -8.990  10.061  63.283  1.00  0.00    -0.275 C  
BRANCH  18  20
HETATM   20  C   UNL     1     -10.177  10.609  66.071  1.00  0.00    -0.309 C  
BRANCH  20  21
HETATM   21  C   UNL     1      -9.868  11.915  66.776  1.00  0.00    -0.214 C  
HETATM   22  C   UNL     1      -8.925  12.068  67.730  1.00  0.00    -0.176 C  
HETATM   23  C   UNL     1      -8.062  10.970  68.293  1.00  0.00    -0.128 C  
HETATM   24  C   UNL     1      -8.634  13.411  68.314  1.00  0.00    -0.169 C  
HETATM   25  O   UNL     1      -7.812  13.546  69.210  1.00  0.00     0.183 OA 
HETATM   26  C   UNL     1      -9.344  14.580  67.774  1.00  0.00    -0.198 A  
HETATM   27  C   UNL     1     -10.334  14.420  66.816  1.00  0.00    -0.273 A  
HETATM   28  C   UNL     1     -10.687  13.080  66.328  1.00  0.00    -0.276 C  
HETATM   29  C   UNL     1     -11.010  15.540  66.315  1.00  0.00    -0.242 A  
HETATM   30  C   UNL     1     -10.685  16.819  66.772  1.00  0.00    -0.117 A  
HETATM   31  O   UNL     1     -11.632  12.948  65.559  1.00  0.00    -0.326 OA 
HETATM   32  C   UNL     1      -9.687  16.980  67.733  1.00  0.00    -0.258 A  
HETATM   33  C   UNL     1      -9.017  15.863  68.235  1.00  0.00    -0.184 A  
ENDBRANCH  20  21
ENDBRANCH  18  20
ENDBRANCH  16  17
ENDBRANCH  15  16
ENDBRANCH  13  15
ENDBRANCH  10  11
ENDBRANCH   9  10
ENDBRANCH   5   6
ENDBRANCH   4   5
TORSDOF 9
ENDMDL
MODEL      423
REMARK 921   NORMALIZED FREE ENERGY PREDICTED BY IDOCK:   -0.60 KCAL/MOL
REMARK 922        TOTAL FREE ENERGY PREDICTED BY IDOCK:   -4.12 KCAL/MOL
REMARK 923 INTER-LIGAND FREE ENERGY PREDICTED BY IDOCK:   -4.02 KCAL/MOL
REMARK 924 INTRA-LIGAND FREE ENERGY PREDICTED BY IDOCK:   -0.10 KCAL/MOL
REMARK 927      BINDING AFFINITY PREDICTED BY RF-SCORE:    0.00 PKD
ROOT
HETATM    1  C   UNL     1      -8.943   7.699  74.496  1.00  0.00     0.017 C  
HETATM    2  C   UNL     1      -7.635   8.125  73.834  1.00  0.00    -0.229 C  
HETATM    3  C   UNL     1      -6.572   7.041  74.041  1.00  0.00    -0.077 C  
HETATM    4  C   UNL     1      -7.885   8.438  72.346  1.00  0.00    -0.155 C  
ENDROOT
BRANCH   4   5
HETATM    5  C   UNL     1      -6.611   8.877  71.638  1.00  0.00    -0.070 C  
BRANCH   5   6
HETATM    6  C   UNL     1      -5.893   7.726  70.940  1.00  0.00    -0.034 C  
HETATM    7  C   UNL     1      -6.893   6.707  70.358  1.00  0.00    -0.062 C  
HETATM    8  C   UNL     1      -7.840   7.349  69.334  1.00  0.00    -0.122 C  
HETATM    9  C   UNL     1      -6.113   5.528  69.752  1.00  0.00    -0.022 C  
BRANCH   9  10
HETATM   10  C   UNL     1      -7.052   4.484  69.157  1.00  0.00    -0.052 C  
BRANCH  10  11
HETATM   11  C   UNL     1      -7.102   4.554  67.639  1.00  0.00    -0.065 C  
HETATM   12  C   UNL     1      -7.660   3.257  67.024  1.00  0.00    -0.075 C  
HETATM   13  C   UNL     1      -7.573   3.294  65.486  1.00  0.00    -0.077 C  
HETATM   14  C   UNL     1      -9.104   2.976  67.458  1.00  0.00    -0.213 C  
BRANCH  13  15
HETATM   15  C   UNL     1      -6.155   3.462  64.925  1.00  0.00    -0.023 C  
BRANCH  15  16
HETATM   16  C   UNL     1      -5.679   4.915  64.946  1.00  0.00    -0.014 C  
BRANCH  16  17
HETATM   17  C   UNL     1      -6.459   5.777  63.985  1.00  0.00    -0.033 C  
HETATM   18  C   UNL     1      -6.709   7.063  64.298  1.00  0.00    -0.046 C  
HETATM   19  C   UNL     1      -6.867   5.145  62.687  1.00  0.00    -0.030 C  
BRANCH  18  20
HETATM   20  C   UNL     1      -7.391   8.087  63.429  1.00  0.00    -0.107 C  
BRANCH  20  21
HETATM   21  C   UNL     1      -8.353   8.943  64.229  1.00  0.00    -0.176 C  
HETATM   22  C   UNL     1      -8.941   8.562  65.384  1.00  0.00    -0.150 C  
HETATM   23  C   UNL     1      -8.786   7.218  66.044  1.00  0.00    -0.161 C  
HETATM   24  C   UNL     1      -9.814   9.502  66.147  1.00  0.00    -0.272 C  
HETATM   25  O   UNL     1     -10.382   9.147  67.171  1.00  0.00    -0.241 OA 
HETATM   26  C   UNL     1      -9.962  10.880  65.655  1.00  0.00    -0.305 A  
HETATM   27  C   UNL     1      -9.383  11.262  64.454  1.00  0.00    -0.144 A  
HETATM   28  C   UNL     1      -8.617  10.295  63.656  1.00  0.00    -0.195 C  
HETATM   29  C   UNL     1      -9.538  12.575  63.989  1.00  0.00     0.225 A  
HETATM   30  C   UNL     1     -10.267  13.502  64.736  1.00  0.00    -0.355 A  
HETATM   31  O   UNL     1      -8.200  10.621  62.551  1.00  0.00    -0.167 OA 
HETATM   32  C   UNL     1     -10.845  13.119  65.946  1.00  0.00    -0.288 A  
HETATM   33  C   UNL     1     -10.694  11.810  66.407  1.00  0.00    -0.306 A  
ENDBRANCH  20  21
ENDBRANCH  18  20
ENDBRANCH  16  17
ENDBRANCH  15  16
ENDBRANCH  13  15
ENDBRANCH  10  11
ENDBRANCH   9  10
ENDBRANCH   5   6
ENDBRANCH   4   5
TORSDOF 9
ENDMDL
MODEL      424
REMARK 921   NORMALIZED FREE ENERGY PREDICTED BY IDOCK:   -0.32 KCAL/MOL
REMARK 922        TOTAL FREE ENERGY PREDICTED BY IDOCK:   -3.70 KCAL/MOL
REMARK 923 INTER-LIGAND FREE ENERGY PREDICTED BY IDOCK:   -5.07 KCAL/MOL
REMARK 924 INTRA-LIGAND FREE ENERGY PREDICTED BY IDOCK:    1.38 KCAL/MOL
REMARK 927      BINDING AFFINITY PREDICTED BY RF-SCORE:    0.00 PKD
ROOT
HETATM    1  C   UNL     1     -10.770  19.529  68.602  1.00  0.00     0.183 C  
HETATM    2  C   UNL     1     -10.243  18.313  67.843  1.00  0.00    -0.400 C  
HETATM    3  C   UNL     1      -8.965  18.689  67.085  1.00  0.00    -0.288 C  
HETATM    4  C   UNL     1     -10.033  17.142  68.823  1.00  0.00    -0.315 C  
ENDROOT
BRANCH   4   5
HETATM    5  C   UNL     1      -9.515  15.898  68.114  1.00  0.00    -0.203 C  
BRANCH   5   6
HETATM    6  C   UNL     1      -9.688  14.628  68.942  1.00  0.00    -0.196 C  
HETATM    7  C   UNL     1      -8.870  13.459  68.361  1.00  0.00    -0.133 C  
HETATM    8  C   UNL     1      -7.367  13.775  68.311  1.00  0.00    -0.118 C  
HETATM    9  C   UNL     1      -9.157  12.188  69.179  1.00  0.00     0.565 C  
BRANCH   9  10
HETATM   10  C   UNL     1      -8.371  10.993  68.651  1.00  0.00    -0.153 C  
BRANCH  10  11
HETATM   11  C   UNL     1      -8.474  10.858  67.140  1.00  0.00    -0.128 C  
HETATM   12  C   UNL     1      -9.891  10.448  66.698  1.00  0.00    -0.251 C  
HETATM   13  C   UNL     1      -9.938  10.183  65.180  1.00  0.00    -0.379 C  
HETATM   14  C   UNL     1     -10.949  11.491  67.078  1.00  0.00    -0.347 C  
BRANCH  13  15
HETATM   15  C   UNL     1      -8.996   9.077  64.690  1.00  0.00    -0.112 C  
BRANCH  15  16
HETATM   16  C   UNL     1      -7.622   9.130  65.360  1.00  0.00    -0.097 C  
BRANCH  16  17
HETATM   17  C   UNL     1      -7.383   7.937  66.249  1.00  0.00    -0.075 C  
HETATM   18  C   UNL     1      -7.774   6.713  65.840  1.00  0.00    -0.091 C  
HETATM   19  C   UNL     1      -6.657   8.187  67.538  1.00  0.00    -0.058 C  
BRANCH  18  20
HETATM   20  C   UNL     1      -7.540   5.407  66.553  1.00  0.00    -0.088 C  
BRANCH  20  21
HETATM   21  C   UNL     1      -8.088   5.440  67.966  1.00  0.00    -0.096 C  
HETATM   22  C   UNL     1      -7.361   5.199  69.078  1.00  0.00    -0.061 C  
HETATM   23  C   UNL     1      -5.907   4.808  69.106  1.00  0.00    -0.017 C  
HETATM   24  C   UNL     1      -7.967   5.331  70.435  1.00  0.00    -0.091 C  
HETATM   25  O   UNL     1      -7.324   5.071  71.443  1.00  0.00    -0.071 OA 
HETATM   26  C   UNL     1      -9.355   5.804  70.541  1.00  0.00    -0.189 A  
HETATM   27  C   UNL     1     -10.112   6.023  69.400  1.00  0.00    -0.243 A  
HETATM   28  C   UNL     1      -9.537   5.783  68.069  1.00  0.00    -0.119 C  
HETATM   29  C   UNL     1     -11.437   6.465  69.513  1.00  0.00    -0.412 A  
HETATM   30  C   UNL     1     -11.996   6.693  70.772  1.00  0.00    -0.412 A  
HETATM   31  O   UNL     1     -10.250   5.882  67.078  1.00  0.00    -0.163 OA 
HETATM   32  C   UNL     1     -11.233   6.478  71.919  1.00  0.00    -0.314 A  
HETATM   33  C   UNL     1      -9.915   6.033  71.807  1.00  0.00    -0.199 A  
ENDBRANCH  20  21
ENDBRANCH  18  20
ENDBRANCH  16  17
ENDBRANCH  15  16
ENDBRANCH  13  15
ENDBRANCH  10  11
ENDBRANCH   9  10
ENDBRANCH   5   6
ENDBRANCH   4   5
TORSDOF 9
ENDMDL
MODEL      425
REMARK 921   NORMALIZED FREE ENERGY PREDICTED BY IDOCK:   -0.07 KCAL/MOL
REMARK 922        TOTAL FREE ENERGY PREDICTED BY IDOCK:   -3.31 KCAL/MOL
REMARK 923 INTER-LIGAND FREE ENERGY PREDICTED BY IDOCK:   -4.20 KCAL/MOL
REMARK 924 INTRA-LIGAND FREE ENERGY PREDICTED BY IDOCK:    0.89 KCAL/MOL
REMARK 927      BINDING AFFINITY PREDICTED BY RF-SCORE:    0.00 PKD
ROOT
HETATM    1  C   UNL     1      -8.150   9.375  66.360  1.00  0.00    -0.108 C  
HETATM    2  C   UNL     1      -9.586   9.451  65.845  1.00  0.00    -0.338 C  
HETATM    3  C   UNL     1     -10.522   8.713  66.807  1.00  0.00    -0.298 C  
HETATM    4  C   UNL     1      -9.985  10.924  65.636  1.00  0.00    -0.305 C  
ENDROOT
BRANCH   4   5
HETATM    5  C   UNL     1     -11.408  11.056  65.112  1.00  0.00     0.236 C  
BRANCH   5   6
HETATM    6  C   UNL     1     -11.952  12.477  65.224  1.00  0.00    -0.490 C  
HETATM    7  C   UNL     1     -10.954  13.409  65.937  1.00  0.00    -0.284 C  
HETATM    8  C   UNL     1      -9.608  13.487  65.199  1.00  0.00     0.187 C  
HETATM    9  C   UNL     1     -11.593  14.799  66.103  1.00  0.00    -0.292 C  
BRANCH   9  10
HETATM   10  C   UNL     1     -10.648  15.770  66.804  1.00  0.00    -0.309 C  
BRANCH  10  11
HETATM   11  C   UNL     1      -9.622  15.053  67.667  1.00  0.00    -0.203 C  
HETATM   12  C   UNL     1      -9.876  15.285  69.168  1.00  0.00    -0.239 C  
HETATM   13  C   UNL     1      -8.750  14.666  70.019  1.00  0.00     0.781 C  
HETATM   14  C   UNL     1     -11.235  14.737  69.625  1.00  0.00    -0.305 C  
BRANCH  13  15
HETATM   15  C   UNL     1      -7.348  15.217  69.728  1.00  0.00    -0.141 C  
BRANCH  15  16
HETATM   16  C   UNL     1      -6.493  14.253  68.905  1.00  0.00    -0.092 C  
BRANCH  16  17
HETATM   17  C   UNL     1      -7.286  13.061  68.431  1.00  0.00    -0.116 C  
HETATM   18  C   UNL     1      -8.147  12.457  69.274  1.00  0.00     0.643 C  
HETATM   19  C   UNL     1      -7.101  12.650  67.000  1.00  0.00     0.074 C  
BRANCH  18  20
HETATM   20  C   UNL     1      -9.078  11.319  68.949  1.00  0.00    -0.064 C  
BRANCH  20  21
HETATM   21  C   UNL     1      -8.855  10.138  69.873  1.00  0.00    -0.089 C  
HETATM   22  C   UNL     1      -7.667   9.524  70.060  1.00  0.00    -0.146 C  
HETATM   23  C   UNL     1      -6.383   9.866  69.353  1.00  0.00    -0.045 C  
HETATM   24  C   UNL     1      -7.523   8.417  71.052  1.00  0.00    -0.075 C  
HETATM   25  O   UNL     1      -6.459   7.829  71.192  1.00  0.00    -0.038 OA 
HETATM   26  C   UNL     1      -8.685   8.059  71.878  1.00  0.00    -0.184 A  
HETATM   27  C   UNL     1      -9.912   8.668  71.666  1.00  0.00    -0.353 A  
HETATM   28  C   UNL     1     -10.068   9.679  70.612  1.00  0.00    -0.256 C  
HETATM   29  C   UNL     1     -11.016   8.312  72.453  1.00  0.00    -0.438 A  
HETATM   30  C   UNL     1     -10.881   7.351  73.456  1.00  0.00    -0.269 A  
HETATM   31  O   UNL     1     -11.181  10.132  70.370  1.00  0.00    -0.284 OA 
HETATM   32  C   UNL     1      -9.645   6.741  73.673  1.00  0.00    -0.224 A  
HETATM   33  C   UNL     1      -8.548   7.092  72.885  1.00  0.00    -0.139 A  
ENDBRANCH  20  21
ENDBRANCH  18  20
ENDBRANCH  16  17
ENDBRANCH  15  16
ENDBRANCH  13  15
ENDBRANCH  10  11
ENDBRANCH   9  10
ENDBRANCH   5   6
ENDBRANCH   4   5
TORSDOF 9
ENDMDL
MODEL      426
REMARK 921   NORMALIZED FREE ENERGY PREDICTED BY IDOCK:    0.20 KCAL/MOL
REMARK 922        TOTAL FREE ENERGY PREDICTED BY IDOCK:   -2.89 KCAL/MOL
REMARK 923 INTER-LIGAND FREE ENERGY PREDICTED BY IDOCK:   -3.00 KCAL/MOL
REMARK 924 INTRA-LIGAND FREE ENERGY PREDICTED BY IDOCK:    0.11 KCAL/MOL
REMARK 927      BINDING AFFINITY PREDICTED BY RF-SCORE:    0.00 PKD
ROOT
HETATM    1  C   UNL     1     -10.502  20.917  67.157  1.00  0.00     0.667 C  
HETATM    2  C   UNL     1      -9.811  19.886  68.047  1.00  0.00    -0.534 C  
HETATM    3  C   UNL     1     -10.723  19.525  69.225  1.00  0.00     0.740 C  
HETATM    4  C   UNL     1      -9.409  18.660  67.205  1.00  0.00    -0.299 C  
ENDROOT
BRANCH   4   5
HETATM    5  C   UNL     1      -8.707  17.602  68.046  1.00  0.00    -0.253 C  
BRANCH   5   6
HETATM    6  C   UNL     1      -8.471  16.301  67.286  1.00  0.00    -0.199 C  
HETATM    7  C   UNL     1      -8.840  15.073  68.140  1.00  0.00    -0.167 C  
HETATM    8  C   UNL     1     -10.314  15.093  68.573  1.00  0.00    -0.230 C  
HETATM    9  C   UNL     1      -8.494  13.794  67.358  1.00  0.00    -0.209 C  
BRANCH   9  10
HETATM   10  C   UNL     1      -8.840  12.540  68.155  1.00  0.00    -0.191 C  
BRANCH  10  11
HETATM   11  C   UNL     1      -7.613  11.903  68.787  1.00  0.00    -0.090 C  
HETATM   12  C   UNL     1      -6.358  12.091  67.915  1.00  0.00    -0.073 C  
HETATM   13  C   UNL     1      -5.159  11.322  68.503  1.00  0.00    -0.039 C  
HETATM   14  C   UNL     1      -5.989  13.568  67.728  1.00  0.00    -0.135 C  
BRANCH  13  15
HETATM   15  C   UNL     1      -5.368   9.808  68.638  1.00  0.00    -0.036 C  
BRANCH  15  16
HETATM   16  C   UNL     1      -5.314   9.331  70.090  1.00  0.00    -0.027 C  
BRANCH  16  17
HETATM   17  C   UNL     1      -6.548   8.553  70.473  1.00  0.00    -0.037 C  
HETATM   18  C   UNL     1      -6.444   7.240  70.760  1.00  0.00    -0.043 C  
HETATM   19  C   UNL     1      -7.832   9.322  70.565  1.00  0.00    -0.169 C  
BRANCH  18  20
HETATM   20  C   UNL     1      -7.545   6.332  71.241  1.00  0.00    -0.094 C  
BRANCH  20  21
HETATM   21  C   UNL     1      -8.404   5.845  70.091  1.00  0.00    -0.118 C  
HETATM   22  C   UNL     1      -9.712   6.140  69.931  1.00  0.00    -0.193 C  
HETATM   23  C   UNL     1     -10.549   6.952  70.883  1.00  0.00    -0.243 C  
HETATM   24  C   UNL     1     -10.461   5.681  68.724  1.00  0.00    -0.219 C  
HETATM   25  O   UNL     1     -11.656   5.909  68.597  1.00  0.00     0.203 OA 
HETATM   26  C   UNL     1      -9.725   4.963  67.673  1.00  0.00    -0.197 A  
HETATM   27  C   UNL     1      -8.390   4.633  67.850  1.00  0.00    -0.099 A  
HETATM   28  C   UNL     1      -7.693   4.995  69.091  1.00  0.00    -0.076 C  
HETATM   29  C   UNL     1      -7.701   3.940  66.845  1.00  0.00    -0.085 A  
HETATM   30  C   UNL     1      -8.353   3.588  65.662  1.00  0.00    -0.106 A  
HETATM   31  O   UNL     1      -6.545   4.607  69.273  1.00  0.00    -0.038 OA 
HETATM   32  C   UNL     1      -9.695   3.924  65.482  1.00  0.00    -0.176 A  
HETATM   33  C   UNL     1     -10.382   4.609  66.485  1.00  0.00    -0.235 A  
ENDBRANCH  20  21
ENDBRANCH  18  20
ENDBRANCH  16  17
ENDBRANCH  15  16
ENDBRANCH  13  15
ENDBRANCH  10  11
ENDBRANCH   9  10
ENDBRANCH   5   6
ENDBRANCH   4   5
TORSDOF 9
ENDMDL
MODEL      427
REMARK 921   NORMALIZED FREE ENERGY PREDICTED BY IDOCK:    0.28 KCAL/MOL
REMARK 922        TOTAL FREE ENERGY PREDICTED BY IDOCK:   -2.77 KCAL/MOL
REMARK 923 INTER-LIGAND FREE ENERGY PREDICTED BY IDOCK:   -3.40 KCAL/MOL
REMARK 924 INTRA-LIGAND FREE ENERGY PREDICTED BY IDOCK:    0.62 KCAL/MOL
REMARK 927      BINDING AFFINITY PREDICTED BY RF-SCORE:    0.00 PKD
ROOT
HETATM    1  C   UNL     1     -11.633  15.372  70.434  1.00  0.00    -0.352 C  
HETATM    2  C   UNL     1     -10.805  16.542  69.908  1.00  0.00    -0.285 C  
HETATM    3  C   UNL     1     -11.145  16.796  68.435  1.00  0.00    -0.266 C  
HETATM    4  C   UNL     1     -11.035  17.780  70.795  1.00  0.00     2.059 C  
ENDROOT
BRANCH   4   5
HETATM    5  C   UNL     1     -10.223  18.977  70.318  1.00  0.00     1.255 C  
BRANCH   5   6
HETATM    6  C   UNL     1     -10.286  19.170  68.806  1.00  0.00    -0.360 C  
HETATM    7  C   UNL     1      -8.896  19.484  68.218  1.00  0.00    -0.383 C  
HETATM    8  C   UNL     1      -7.885  18.362  68.497  1.00  0.00    -0.325 C  
HETATM    9  C   UNL     1      -9.038  19.761  66.712  1.00  0.00    -0.442 C  
BRANCH   9  10
HETATM   10  C   UNL     1      -7.690  20.076  66.072  1.00  0.00    -0.318 C  
BRANCH  10  11
HETATM   11  C   UNL     1      -6.570  19.217  66.636  1.00  0.00    -0.197 C  
HETATM   12  C   UNL     1      -6.177  18.083  65.670  1.00  0.00    -0.252 C  
HETATM   13  C   UNL     1      -5.140  17.144  66.316  1.00  0.00    -0.069 C  
HETATM   14  C   UNL     1      -5.640  18.611  64.333  1.00  0.00    -0.183 C  
BRANCH  13  15
HETATM   15  C   UNL     1      -5.606  16.465  67.611  1.00  0.00    -0.165 C  
BRANCH  15  16
HETATM   16  C   UNL     1      -6.023  15.010  67.398  1.00  0.00     0.158 C  
BRANCH  16  17
HETATM   17  C   UNL     1      -7.431  14.753  67.871  1.00  0.00    -0.156 C  
HETATM   18  C   UNL     1      -8.378  14.397  66.980  1.00  0.00    -0.172 C  
HETATM   19  C   UNL     1      -7.680  14.860  69.347  1.00  0.00    -0.150 C  
BRANCH  18  20
HETATM   20  C   UNL     1      -9.805  14.020  67.282  1.00  0.00    -0.242 C  
BRANCH  20  21
HETATM   21  C   UNL     1     -10.058  12.549  67.017  1.00  0.00    -0.222 C  
HETATM   22  C   UNL     1     -10.015  11.970  65.798  1.00  0.00    -0.266 C  
HETATM   23  C   UNL     1      -9.763  12.685  64.497  1.00  0.00     0.065 C  
HETATM   24  C   UNL     1     -10.200  10.497  65.640  1.00  0.00    -0.246 C  
HETATM   25  O   UNL     1     -10.206   9.976  64.533  1.00  0.00    -0.161 OA 
HETATM   26  C   UNL     1     -10.355   9.676  66.850  1.00  0.00    -0.307 A  
HETATM   27  C   UNL     1     -10.430  10.272  68.100  1.00  0.00    -0.224 A  
HETATM   28  C   UNL     1     -10.356  11.734  68.231  1.00  0.00    -0.206 C  
HETATM   29  C   UNL     1     -10.587   9.481  69.245  1.00  0.00    -0.236 A  
HETATM   30  C   UNL     1     -10.661   8.091  69.132  1.00  0.00    -0.181 A  
HETATM   31  O   UNL     1     -10.526  12.250  69.330  1.00  0.00    -0.006 OA 
HETATM   32  C   UNL     1     -10.581   7.491  67.876  1.00  0.00    -0.250 A  
HETATM   33  C   UNL     1     -10.430   8.280  66.735  1.00  0.00    -0.313 A  
ENDBRANCH  20  21
ENDBRANCH  18  20
ENDBRANCH  16  17
ENDBRANCH  15  16
ENDBRANCH  13  15
ENDBRANCH  10  11
ENDBRANCH   9  10
ENDBRANCH   5   6
ENDBRANCH   4   5
TORSDOF 9
ENDMDL
MODEL      428
REMARK 921   NORMALIZED FREE ENERGY PREDICTED BY IDOCK:    0.33 KCAL/MOL
REMARK 922        TOTAL FREE ENERGY PREDICTED BY IDOCK:   -2.70 KCAL/MOL
REMARK 923 INTER-LIGAND FREE ENERGY PREDICTED BY IDOCK:   -2.59 KCAL/MOL
REMARK 924 INTRA-LIGAND FREE ENERGY PREDICTED BY IDOCK:   -0.11 KCAL/MOL
REMARK 927      BINDING AFFINITY PREDICTED BY RF-SCORE:    0.00 PKD
ROOT
HETATM    1  C   UNL     1     -10.504  20.917  67.157  1.00  0.00     0.667 C  
HETATM    2  C   UNL     1      -9.822  19.863  68.027  1.00  0.00    -0.534 C  
HETATM    3  C   UNL     1     -10.740  19.481  69.193  1.00  0.00     0.636 C  
HETATM    4  C   UNL     1      -9.423  18.654  67.160  1.00  0.00    -0.308 C  
ENDROOT
BRANCH   4   5
HETATM    5  C   UNL     1      -8.728  17.575  67.980  1.00  0.00    -0.254 C  
BRANCH   5   6
HETATM    6  C   UNL     1      -8.500  16.288  67.194  1.00  0.00    -0.213 C  
HETATM    7  C   UNL     1      -8.885  15.045  68.019  1.00  0.00    -0.165 C  
HETATM    8  C   UNL     1     -10.361  15.070  68.444  1.00  0.00    -0.231 C  
HETATM    9  C   UNL     1      -8.546  13.780  67.213  1.00  0.00    -0.221 C  
BRANCH   9  10
HETATM   10  C   UNL     1      -8.908  12.513  67.980  1.00  0.00    -0.187 C  
BRANCH  10  11
HETATM   11  C   UNL     1      -7.691  11.851  68.605  1.00  0.00    -0.113 C  
HETATM   12  C   UNL     1      -6.429  12.046  67.743  1.00  0.00    -0.087 C  
HETATM   13  C   UNL     1      -5.240  11.253  68.321  1.00  0.00    -0.039 C  
HETATM   14  C   UNL     1      -6.045  13.523  67.591  1.00  0.00    -0.120 C  
BRANCH  13  15
HETATM   15  C   UNL     1      -5.464   9.739  68.422  1.00  0.00    -0.039 C  
BRANCH  15  16
HETATM   16  C   UNL     1      -5.426   9.230  69.863  1.00  0.00    -0.032 C  
BRANCH  16  17
HETATM   17  C   UNL     1      -6.668   8.453  70.220  1.00  0.00    -0.036 C  
HETATM   18  C   UNL     1      -7.070   8.394  71.505  1.00  0.00    -0.087 C  
HETATM   19  C   UNL     1      -7.424   7.829  69.085  1.00  0.00    -0.094 C  
BRANCH  18  20
HETATM   20  C   UNL     1      -8.323   7.743  72.029  1.00  0.00    -0.142 C  
BRANCH  20  21
HETATM   21  C   UNL     1      -8.145   6.246  72.189  1.00  0.00    -0.109 C  
HETATM   22  C   UNL     1      -8.828   5.313  71.491  1.00  0.00    -0.144 C  
HETATM   23  C   UNL     1      -9.909   5.591  70.481  1.00  0.00    -0.254 C  
HETATM   24  C   UNL     1      -8.530   3.860  71.658  1.00  0.00    -0.085 C  
HETATM   25  O   UNL     1      -9.176   3.010  71.060  1.00  0.00    -0.105 OA 
HETATM   26  C   UNL     1      -7.424   3.467  72.544  1.00  0.00    -0.050 A  
HETATM   27  C   UNL     1      -6.743   4.422  73.283  1.00  0.00    -0.053 A  
HETATM   28  C   UNL     1      -7.119   5.839  73.193  1.00  0.00    -0.085 C  
HETATM   29  C   UNL     1      -5.697   4.035  74.131  1.00  0.00    -0.004 A  
HETATM   30  C   UNL     1      -5.332   2.691  74.228  1.00  0.00     0.000 A  
HETATM   31  O   UNL     1      -6.576   6.655  73.929  1.00  0.00    -0.072 OA 
HETATM   32  C   UNL     1      -6.014   1.731  73.481  1.00  0.00     0.000 A  
HETATM   33  C   UNL     1      -7.060   2.116  72.640  1.00  0.00    -0.027 A  
ENDBRANCH  20  21
ENDBRANCH  18  20
ENDBRANCH  16  17
ENDBRANCH  15  16
ENDBRANCH  13  15
ENDBRANCH  10  11
ENDBRANCH   9  10
ENDBRANCH   5   6
ENDBRANCH   4   5
TORSDOF 9
ENDMDL
MODEL      429
REMARK 921   NORMALIZED FREE ENERGY PREDICTED BY IDOCK:    0.39 KCAL/MOL
REMARK 922        TOTAL FREE ENERGY PREDICTED BY IDOCK:   -2.61 KCAL/MOL
REMARK 923 INTER-LIGAND FREE ENERGY PREDICTED BY IDOCK:   -4.39 KCAL/MOL
REMARK 924 INTRA-LIGAND FREE ENERGY PREDICTED BY IDOCK:    1.78 KCAL/MOL
REMARK 927      BINDING AFFINITY PREDICTED BY RF-SCORE:    0.00 PKD
ROOT
HETATM    1  C   UNL     1     -10.151  14.853  64.489  1.00  0.00     0.544 C  
HETATM    2  C   UNL     1     -10.720  15.173  65.869  1.00  0.00    -0.341 C  
HETATM    3  C   UNL     1     -12.052  14.440  66.064  1.00  0.00    -0.370 C  
HETATM    4  C   UNL     1      -9.682  14.823  66.953  1.00  0.00    -0.247 C  
ENDROOT
BRANCH   4   5
HETATM    5  C   UNL     1     -10.198  15.133  68.351  1.00  0.00    -0.221 C  
BRANCH   5   6
HETATM    6  C   UNL     1     -11.021  13.994  68.945  1.00  0.00    -0.283 C  
HETATM    7  C   UNL     1     -10.573  12.626  68.395  1.00  0.00    -0.258 C  
HETATM    8  C   UNL     1      -9.096  12.336  68.703  1.00  0.00     0.013 C  
HETATM    9  C   UNL     1     -11.497  11.531  68.955  1.00  0.00    -0.355 C  
BRANCH   9  10
HETATM   10  C   UNL     1     -11.100  10.149  68.446  1.00  0.00    -0.273 C  
BRANCH  10  11
HETATM   11  C   UNL     1     -11.688   9.033  69.295  1.00  0.00     0.795 C  
HETATM   12  C   UNL     1     -11.686   9.392  70.793  1.00  0.00    -0.349 C  
HETATM   13  C   UNL     1     -12.156   8.198  71.646  1.00  0.00    -0.342 C  
HETATM   14  C   UNL     1     -12.546  10.624  71.103  1.00  0.00    -0.526 C  
BRANCH  13  15
HETATM   15  C   UNL     1     -11.302   6.931  71.504  1.00  0.00    -0.302 C  
BRANCH  15  16
HETATM   16  C   UNL     1     -10.285   6.774  72.635  1.00  0.00    -0.208 C  
BRANCH  16  17
HETATM   17  C   UNL     1      -8.888   7.124  72.188  1.00  0.00    -0.140 C  
HETATM   18  C   UNL     1      -8.140   6.199  71.556  1.00  0.00    -0.114 C  
HETATM   19  C   UNL     1      -8.432   8.532  72.434  1.00  0.00    -0.196 C  
BRANCH  18  20
HETATM   20  C   UNL     1      -6.768   6.397  70.967  1.00  0.00    -0.055 C  
BRANCH  20  21
HETATM   21  C   UNL     1      -6.597   7.800  70.419  1.00  0.00    -0.038 C  
HETATM   22  C   UNL     1      -6.059   8.832  71.103  1.00  0.00    -0.048 C  
HETATM   23  C   UNL     1      -5.588   8.785  72.532  1.00  0.00    -0.063 C  
HETATM   24  C   UNL     1      -5.857  10.161  70.455  1.00  0.00    -0.080 C  
HETATM   25  O   UNL     1      -5.411  11.111  71.085  1.00  0.00    -0.248 OA 
HETATM   26  C   UNL     1      -6.187  10.304  69.029  1.00  0.00    -0.040 A  
HETATM   27  C   UNL     1      -6.767   9.254  68.333  1.00  0.00    -0.059 A  
HETATM   28  C   UNL     1      -7.061   7.985  69.012  1.00  0.00    -0.066 C  
HETATM   29  C   UNL     1      -7.085   9.404  66.977  1.00  0.00    -0.086 A  
HETATM   30  C   UNL     1      -6.812  10.607  66.321  1.00  0.00    -0.133 A  
HETATM   31  O   UNL     1      -7.667   7.106  68.410  1.00  0.00    -0.115 OA 
HETATM   32  C   UNL     1      -6.225  11.661  67.019  1.00  0.00    -0.144 A  
HETATM   33  C   UNL     1      -5.912  11.513  68.372  1.00  0.00    -0.045 A  
ENDBRANCH  20  21
ENDBRANCH  18  20
ENDBRANCH  16  17
ENDBRANCH  15  16
ENDBRANCH  13  15
ENDBRANCH  10  11
ENDBRANCH   9  10
ENDBRANCH   5   6
ENDBRANCH   4   5
TORSDOF 9
ENDMDL
MODEL      430
REMARK 921   NORMALIZED FREE ENERGY PREDICTED BY IDOCK:    0.50 KCAL/MOL
REMARK 922        TOTAL FREE ENERGY PREDICTED BY IDOCK:   -2.43 KCAL/MOL
REMARK 923 INTER-LIGAND FREE ENERGY PREDICTED BY IDOCK:   -0.26 KCAL/MOL
REMARK 924 INTRA-LIGAND FREE ENERGY PREDICTED BY IDOCK:   -2.18 KCAL/MOL
REMARK 927      BINDING AFFINITY PREDICTED BY RF-SCORE:    0.00 PKD
ROOT
HETATM    1  C   UNL     1     -11.592  18.174  66.113  1.00  0.00     2.112 C  
HETATM    2  C   UNL     1     -11.063  16.743  66.193  1.00  0.00     0.305 C  
HETATM    3  C   UNL     1     -10.909  16.329  67.661  1.00  0.00    -0.293 C  
HETATM    4  C   UNL     1     -11.992  15.802  65.402  1.00  0.00     0.667 C  
ENDROOT
BRANCH   4   5
HETATM    5  C   UNL     1     -11.504  14.360  65.443  1.00  0.00    -0.344 C  
BRANCH   5   6
HETATM    6  C   UNL     1     -12.257  13.508  66.459  1.00  0.00    -0.433 C  
HETATM    7  C   UNL     1     -11.369  12.379  67.018  1.00  0.00    -0.388 C  
HETATM    8  C   UNL     1     -10.113  12.925  67.715  1.00  0.00    -0.229 C  
HETATM    9  C   UNL     1     -12.207  11.501  67.963  1.00  0.00     0.286 C  
BRANCH   9  10
HETATM   10  C   UNL     1     -11.379  10.364  68.552  1.00  0.00    -0.283 C  
BRANCH  10  11
HETATM   11  C   UNL     1     -10.918   9.378  67.490  1.00  0.00    -0.088 C  
HETATM   12  C   UNL     1      -9.417   9.059  67.618  1.00  0.00    -0.166 C  
HETATM   13  C   UNL     1      -8.941   8.169  66.453  1.00  0.00    -0.207 C  
HETATM   14  C   UNL     1      -9.071   8.394  68.957  1.00  0.00    -0.147 C  
BRANCH  13  15
HETATM   15  C   UNL     1      -9.135   8.777  65.058  1.00  0.00    -0.047 C  
BRANCH  15  16
HETATM   16  C   UNL     1      -8.229   9.983  64.808  1.00  0.00    -0.155 C  
BRANCH  16  17
HETATM   17  C   UNL     1      -6.824   9.742  65.299  1.00  0.00    -0.103 C  
HETATM   18  C   UNL     1      -6.520   9.987  66.589  1.00  0.00    -0.072 C  
HETATM   19  C   UNL     1      -5.847   9.181  64.309  1.00  0.00    -0.070 C  
BRANCH  18  20
HETATM   20  C   UNL     1      -5.202   9.724  67.270  1.00  0.00    -0.035 C  
BRANCH  20  21
HETATM   21  C   UNL     1      -5.395   9.029  68.603  1.00  0.00    -0.034 C  
HETATM   22  C   UNL     1      -5.439   9.657  69.798  1.00  0.00    -0.033 C  
HETATM   23  C   UNL     1      -5.253  11.135  70.017  1.00  0.00    -0.057 C  
HETATM   24  C   UNL     1      -5.713   8.899  71.054  1.00  0.00    -0.039 C  
HETATM   25  O   UNL     1      -5.709   9.458  72.143  1.00  0.00    -0.147 OA 
HETATM   26  C   UNL     1      -6.010   7.463  70.957  1.00  0.00    -0.035 A  
HETATM   27  C   UNL     1      -5.936   6.811  69.735  1.00  0.00    -0.023 A  
HETATM   28  C   UNL     1      -5.557   7.547  68.522  1.00  0.00    -0.027 C  
HETATM   29  C   UNL     1      -6.212   5.440  69.655  1.00  0.00    -0.026 A  
HETATM   30  C   UNL     1      -6.570   4.728  70.802  1.00  0.00    -0.031 A  
HETATM   31  O   UNL     1      -5.397   6.937  67.471  1.00  0.00    -0.011 OA 
HETATM   32  C   UNL     1      -6.650   5.384  72.030  1.00  0.00    -0.056 A  
HETATM   33  C   UNL     1      -6.370   6.750  72.110  1.00  0.00    -0.049 A  
ENDBRANCH  20  21
ENDBRANCH  18  20
ENDBRANCH  16  17
ENDBRANCH  15  16
ENDBRANCH  13  15
ENDBRANCH  10  11
ENDBRANCH   9  10
ENDBRANCH   5   6
ENDBRANCH   4   5
TORSDOF 9
ENDMDL
MODEL      431
REMARK 921   NORMALIZED FREE ENERGY PREDICTED BY IDOCK:    0.66 KCAL/MOL
REMARK 922        TOTAL FREE ENERGY PREDICTED BY IDOCK:   -2.20 KCAL/MOL
REMARK 923 INTER-LIGAND FREE ENERGY PREDICTED BY IDOCK:   -4.61 KCAL/MOL
REMARK 924 INTRA-LIGAND FREE ENERGY PREDICTED BY IDOCK:    2.41 KCAL/MOL
REMARK 927      BINDING AFFINITY PREDICTED BY RF-SCORE:    0.00 PKD
ROOT
HETATM    1  C   UNL     1     -12.242  12.595  71.059  1.00  0.00    -0.195 C  
HETATM    2  C   UNL     1     -12.227  13.625  69.932  1.00  0.00    -0.367 C  
HETATM    3  C   UNL     1     -13.004  14.874  70.360  1.00  0.00    -0.272 C  
HETATM    4  C   UNL     1     -10.771  13.935  69.532  1.00  0.00     0.029 C  
ENDROOT
BRANCH   4   5
HETATM    5  C   UNL     1     -10.700  14.952  68.401  1.00  0.00    -0.245 C  
BRANCH   5   6
HETATM    6  C   UNL     1     -11.420  14.488  67.139  1.00  0.00    -0.383 C  
HETATM    7  C   UNL     1     -11.198  12.985  66.882  1.00  0.00    -0.331 C  
HETATM    8  C   UNL     1     -11.703  12.119  68.046  1.00  0.00    -0.409 C  
HETATM    9  C   UNL     1     -11.867  12.598  65.552  1.00  0.00    -0.479 C  
BRANCH   9  10
HETATM   10  C   UNL     1     -11.682  11.116  65.243  1.00  0.00     0.625 C  
BRANCH  10  11
HETATM   11  C   UNL     1     -10.229  10.683  65.352  1.00  0.00    -0.341 C  
HETATM   12  C   UNL     1      -9.494  10.804  64.003  1.00  0.00    -0.312 C  
HETATM   13  C   UNL     1      -8.066  10.232  64.101  1.00  0.00    -0.138 C  
HETATM   14  C   UNL     1      -9.442  12.249  63.491  1.00  0.00     0.325 C  
BRANCH  13  15
HETATM   15  C   UNL     1      -7.991   8.753  64.502  1.00  0.00    -0.141 C  
BRANCH  15  16
HETATM   16  C   UNL     1      -6.744   8.425  65.323  1.00  0.00    -0.056 C  
BRANCH  16  17
HETATM   17  C   UNL     1      -6.932   7.187  66.163  1.00  0.00    -0.065 C  
HETATM   18  C   UNL     1      -5.981   6.835  67.050  1.00  0.00    -0.021 C  
HETATM   19  C   UNL     1      -8.223   6.443  65.991  1.00  0.00    -0.126 C  
BRANCH  18  20
HETATM   20  C   UNL     1      -6.039   5.689  68.026  1.00  0.00    -0.018 C  
BRANCH  20  21
HETATM   21  C   UNL     1      -7.060   5.941  69.118  1.00  0.00    -0.069 C  
HETATM   22  C   UNL     1      -8.195   5.229  69.287  1.00  0.00    -0.092 C  
HETATM   23  C   UNL     1      -8.665   4.107  68.400  1.00  0.00    -0.122 C  
HETATM   24  C   UNL     1      -9.104   5.497  70.440  1.00  0.00    -0.139 C  
HETATM   25  O   UNL     1     -10.155   4.884  70.571  1.00  0.00    -0.229 OA 
HETATM   26  C   UNL     1      -8.702   6.504  71.433  1.00  0.00    -0.130 A  
HETATM   27  C   UNL     1      -7.552   7.256  71.244  1.00  0.00    -0.083 A  
HETATM   28  C   UNL     1      -6.722   7.058  70.048  1.00  0.00    -0.055 C  
HETATM   29  C   UNL     1      -7.182   8.219  72.192  1.00  0.00    -0.114 A  
HETATM   30  C   UNL     1      -7.964   8.418  73.332  1.00  0.00    -0.160 A  
HETATM   31  O   UNL     1      -5.768   7.800  69.847  1.00  0.00    -0.023 OA 
HETATM   32  C   UNL     1      -9.118   7.658  73.524  1.00  0.00    -0.317 A  
HETATM   33  C   UNL     1      -9.488   6.702  72.577  1.00  0.00    -0.155 A  
ENDBRANCH  20  21
ENDBRANCH  18  20
ENDBRANCH  16  17
ENDBRANCH  15  16
ENDBRANCH  13  15
ENDBRANCH  10  11
ENDBRANCH   9  10
ENDBRANCH   5   6
ENDBRANCH   4   5
TORSDOF 9
ENDMDL
MODEL      432
REMARK 921   NORMALIZED FREE ENERGY PREDICTED BY IDOCK:    0.90 KCAL/MOL
REMARK 922        TOTAL FREE ENERGY PREDICTED BY IDOCK:   -1.83 KCAL/MOL
REMARK 923 INTER-LIGAND FREE ENERGY PREDICTED BY IDOCK:   -1.04 KCAL/MOL
REMARK 924 INTRA-LIGAND FREE ENERGY PREDICTED BY IDOCK:   -0.79 KCAL/MOL
REMARK 927      BINDING AFFINITY PREDICTED BY RF-SCORE:    0.00 PKD
ROOT
HETATM    1  C   UNL     1      -9.748  13.151  70.095  1.00  0.00     3.258 C  
HETATM    2  C   UNL     1     -10.418  12.830  68.761  1.00  0.00    -0.179 C  
HETATM    3  C   UNL     1      -9.371  12.832  67.641  1.00  0.00    -0.191 C  
HETATM    4  C   UNL     1     -11.173  11.491  68.869  1.00  0.00    -0.308 C  
ENDROOT
BRANCH   4   5
HETATM    5  C   UNL     1     -11.868  11.127  67.564  1.00  0.00     0.070 C  
BRANCH   5   6
HETATM    6  C   UNL     1     -10.889  10.756  66.454  1.00  0.00    -0.172 C  
HETATM    7  C   UNL     1     -10.160   9.434  66.763  1.00  0.00    -0.325 C  
HETATM    8  C   UNL     1     -11.138   8.260  66.927  1.00  0.00     0.603 C  
HETATM    9  C   UNL     1      -9.124   9.161  65.660  1.00  0.00    -0.273 C  
BRANCH   9  10
HETATM   10  C   UNL     1      -8.369   7.860  65.910  1.00  0.00    -0.134 C  
BRANCH  10  11
HETATM   11  C   UNL     1      -6.967   8.102  66.445  1.00  0.00    -0.067 C  
HETATM   12  C   UNL     1      -6.683   7.264  67.706  1.00  0.00    -0.065 C  
HETATM   13  C   UNL     1      -5.313   7.626  68.311  1.00  0.00    -0.027 C  
HETATM   14  C   UNL     1      -6.751   5.756  67.435  1.00  0.00    -0.059 C  
BRANCH  13  15
HETATM   15  C   UNL     1      -5.160   9.095  68.727  1.00  0.00    -0.034 C  
BRANCH  15  16
HETATM   16  C   UNL     1      -5.609   9.351  70.166  1.00  0.00    -0.031 C  
BRANCH  16  17
HETATM   17  C   UNL     1      -7.077   9.684  70.247  1.00  0.00    -0.127 C  
HETATM   18  C   UNL     1      -7.889   8.927  71.012  1.00  0.00    -0.164 C  
HETATM   19  C   UNL     1      -7.539  10.898  69.497  1.00  0.00    -0.057 C  
BRANCH  18  20
HETATM   20  C   UNL     1      -9.353   9.160  71.278  1.00  0.00    -0.285 C  
BRANCH  20  21
HETATM   21  C   UNL     1     -10.006   7.940  71.897  1.00  0.00    -0.234 C  
HETATM   22  C   UNL     1     -11.329   7.674  71.858  1.00  0.00    -0.308 C  
HETATM   23  C   UNL     1     -12.382   8.558  71.245  1.00  0.00    -0.301 C  
HETATM   24  C   UNL     1     -11.874   6.407  72.427  1.00  0.00    -0.213 C  
HETATM   25  O   UNL     1     -13.077   6.182  72.432  1.00  0.00     0.059 OA 
HETATM   26  C   UNL     1     -10.931   5.416  72.965  1.00  0.00    -0.348 A  
HETATM   27  C   UNL     1      -9.575   5.700  73.034  1.00  0.00    -0.159 A  
HETATM   28  C   UNL     1      -9.064   6.998  72.570  1.00  0.00    -0.128 C  
HETATM   29  C   UNL     1      -8.687   4.753  73.557  1.00  0.00    -0.104 A  
HETATM   30  C   UNL     1      -9.161   3.517  74.003  1.00  0.00    -0.096 A  
HETATM   31  O   UNL     1      -7.881   7.272  72.733  1.00  0.00    -0.092 OA 
HETATM   32  C   UNL     1     -10.523   3.229  73.930  1.00  0.00    -0.256 A  
HETATM   33  C   UNL     1     -11.409   4.175  73.413  1.00  0.00    -0.294 A  
ENDBRANCH  20  21
ENDBRANCH  18  20
ENDBRANCH  16  17
ENDBRANCH  15  16
ENDBRANCH  13  15
ENDBRANCH  10  11
ENDBRANCH   9  10
ENDBRANCH   5   6
ENDBRANCH   4   5
TORSDOF 9
ENDMDL
MODEL      433
REMARK 921   NORMALIZED FREE ENERGY PREDICTED BY IDOCK:    0.90 KCAL/MOL
REMARK 922        TOTAL FREE ENERGY PREDICTED BY IDOCK:   -1.83 KCAL/MOL
REMARK 923 INTER-LIGAND FREE ENERGY PREDICTED BY IDOCK:   -2.08 KCAL/MOL
REMARK 924 INTRA-LIGAND FREE ENERGY PREDICTED BY IDOCK:    0.25 KCAL/MOL
REMARK 927      BINDING AFFINITY PREDICTED BY RF-SCORE:    0.00 PKD
ROOT
HETATM    1  C   UNL     1     -11.246   3.758  64.790  1.00  0.00     0.638 C  
HETATM    2  C   UNL     1      -9.745   3.895  64.544  1.00  0.00    -0.183 C  
HETATM    3  C   UNL     1      -9.491   4.261  63.078  1.00  0.00    -0.123 C  
HETATM    4  C   UNL     1      -9.150   4.921  65.527  1.00  0.00    -0.153 C  
ENDROOT
BRANCH   4   5
HETATM    5  C   UNL     1      -7.650   5.090  65.330  1.00  0.00    -0.085 C  
BRANCH   5   6
HETATM    6  C   UNL     1      -7.224   6.552  65.238  1.00  0.00    -0.073 C  
HETATM    7  C   UNL     1      -7.054   7.179  66.636  1.00  0.00    -0.078 C  
HETATM    8  C   UNL     1      -5.997   6.444  67.474  1.00  0.00    -0.017 C  
HETATM    9  C   UNL     1      -6.718   8.672  66.479  1.00  0.00    -0.071 C  
BRANCH   9  10
HETATM   10  C   UNL     1      -6.534   9.350  67.833  1.00  0.00    -0.062 C  
BRANCH  10  11
HETATM   11  C   UNL     1      -7.696  10.267  68.179  1.00  0.00    -0.092 C  
HETATM   12  C   UNL     1      -8.104  11.149  66.983  1.00  0.00    -0.148 C  
HETATM   13  C   UNL     1      -9.187  12.166  67.394  1.00  0.00    -0.182 C  
HETATM   14  C   UNL     1      -8.590  10.324  65.785  1.00  0.00    -0.163 C  
BRANCH  13  15
HETATM   15  C   UNL     1      -8.776  13.126  68.517  1.00  0.00    -0.049 C  
BRANCH  15  16
HETATM   16  C   UNL     1      -7.261  13.195  68.711  1.00  0.00    -0.085 C  
BRANCH  16  17
HETATM   17  C   UNL     1      -6.755  14.616  68.686  1.00  0.00    -0.086 C  
HETATM   18  C   UNL     1      -7.206  15.498  69.599  1.00  0.00    -0.169 C  
HETATM   19  C   UNL     1      -5.716  14.946  67.656  1.00  0.00    -0.026 C  
BRANCH  18  20
HETATM   20  C   UNL     1      -6.751  16.923  69.778  1.00  0.00     0.051 C  
BRANCH  20  21
HETATM   21  C   UNL     1      -7.368  17.837  68.738  1.00  0.00    -0.271 C  
HETATM   22  C   UNL     1      -6.667  18.636  67.905  1.00  0.00    -0.222 C  
HETATM   23  C   UNL     1      -5.169  18.796  67.899  1.00  0.00    -0.171 C  
HETATM   24  C   UNL     1      -7.355  19.445  66.856  1.00  0.00    -0.216 C  
HETATM   25  O   UNL     1      -6.727  20.203  66.129  1.00  0.00    -0.220 OA 
HETATM   26  C   UNL     1      -8.809  19.297  66.698  1.00  0.00    -0.359 A  
HETATM   27  C   UNL     1      -9.534  18.501  67.571  1.00  0.00    -0.291 A  
HETATM   28  C   UNL     1      -8.858  17.795  68.669  1.00  0.00    -0.261 C  
HETATM   29  C   UNL     1     -10.921  18.374  67.417  1.00  0.00    -0.163 A  
HETATM   30  C   UNL     1     -11.575  19.042  66.380  1.00  0.00     1.417 A  
HETATM   31  O   UNL     1      -9.526  17.179  69.491  1.00  0.00     0.062 OA 
HETATM   32  C   UNL     1     -10.845  19.839  65.498  1.00  0.00    -0.254 A  
HETATM   33  C   UNL     1      -9.465  19.969  65.655  1.00  0.00     0.026 A  
ENDBRANCH  20  21
ENDBRANCH  18  20
ENDBRANCH  16  17
ENDBRANCH  15  16
ENDBRANCH  13  15
ENDBRANCH  10  11
ENDBRANCH   9  10
ENDBRANCH   5   6
ENDBRANCH   4   5
TORSDOF 9
ENDMDL
MODEL      434
REMARK 921   NORMALIZED FREE ENERGY PREDICTED BY IDOCK:    0.92 KCAL/MOL
REMARK 922        TOTAL FREE ENERGY PREDICTED BY IDOCK:   -1.79 KCAL/MOL
REMARK 923 INTER-LIGAND FREE ENERGY PREDICTED BY IDOCK:   -3.48 KCAL/MOL
REMARK 924 INTRA-LIGAND FREE ENERGY PREDICTED BY IDOCK:    1.69 KCAL/MOL
REMARK 927      BINDING AFFINITY PREDICTED BY RF-SCORE:    0.00 PKD
ROOT
HETATM    1  C   UNL     1     -11.217   3.796  64.775  1.00  0.00     0.638 C  
HETATM    2  C   UNL     1      -9.702   3.980  64.742  1.00  0.00    -0.187 C  
HETATM    3  C   UNL     1      -9.258   4.376  63.330  1.00  0.00    -0.123 C  
HETATM    4  C   UNL     1      -9.281   5.008  65.810  1.00  0.00    -0.159 C  
ENDROOT
BRANCH   4   5
HETATM    5  C   UNL     1      -7.773   5.222  65.826  1.00  0.00    -0.091 C  
BRANCH   5   6
HETATM    6  C   UNL     1      -7.384   6.696  65.773  1.00  0.00    -0.075 C  
HETATM    7  C   UNL     1      -7.554   7.375  67.146  1.00  0.00    -0.107 C  
HETATM    8  C   UNL     1      -6.693   6.710  68.230  1.00  0.00    -0.068 C  
HETATM    9  C   UNL     1      -7.237   8.874  67.008  1.00  0.00    -0.079 C  
BRANCH   9  10
HETATM   10  C   UNL     1      -7.387   9.603  68.340  1.00  0.00    -0.075 C  
BRANCH  10  11
HETATM   11  C   UNL     1      -8.569  10.559  68.343  1.00  0.00    -0.132 C  
HETATM   12  C   UNL     1      -8.616  11.414  67.062  1.00  0.00    -0.157 C  
HETATM   13  C   UNL     1      -9.737  12.469  67.146  1.00  0.00    -0.205 C  
HETATM   14  C   UNL     1      -8.793  10.565  65.797  1.00  0.00    -0.190 C  
BRANCH  13  15
HETATM   15  C   UNL     1      -9.609  13.452  68.316  1.00  0.00    -0.220 C  
BRANCH  15  16
HETATM   16  C   UNL     1      -8.240  13.387  68.996  1.00  0.00     0.311 C  
BRANCH  16  17
HETATM   17  C   UNL     1      -7.529  14.716  68.956  1.00  0.00    -0.136 C  
HETATM   18  C   UNL     1      -8.125  15.805  69.481  1.00  0.00    -0.137 C  
HETATM   19  C   UNL     1      -6.148  14.728  68.371  1.00  0.00    -0.100 C  
BRANCH  18  20
HETATM   20  C   UNL     1      -7.533  17.185  69.607  1.00  0.00     0.450 C  
BRANCH  20  21
HETATM   21  C   UNL     1      -7.670  17.967  68.316  1.00  0.00    -0.285 C  
HETATM   22  C   UNL     1      -8.683  18.815  68.036  1.00  0.00    -0.324 C  
HETATM   23  C   UNL     1      -9.867  19.090  68.925  1.00  0.00    -0.464 C  
HETATM   24  C   UNL     1      -8.695  19.605  66.769  1.00  0.00    -0.334 C  
HETATM   25  O   UNL     1      -9.632  20.341  66.492  1.00  0.00    -0.389 OA 
HETATM   26  C   UNL     1      -7.541  19.498  65.864  1.00  0.00    -0.306 A  
HETATM   27  C   UNL     1      -6.515  18.605  66.136  1.00  0.00    -0.249 A  
HETATM   28  C   UNL     1      -6.569  17.753  67.332  1.00  0.00    -0.164 C  
HETATM   29  C   UNL     1      -5.425  18.505  65.262  1.00  0.00    -0.232 A  
HETATM   30  C   UNL     1      -5.364  19.307  64.121  1.00  0.00    -0.280 A  
HETATM   31  O   UNL     1      -5.707  16.899  67.502  1.00  0.00    -0.124 OA 
HETATM   32  C   UNL     1      -6.393  20.209  63.850  1.00  0.00    -0.059 A  
HETATM   33  C   UNL     1      -7.482  20.305  64.718  1.00  0.00     0.571 A  
ENDBRANCH  20  21
ENDBRANCH  18  20
ENDBRANCH  16  17
ENDBRANCH  15  16
ENDBRANCH  13  15
ENDBRANCH  10  11
ENDBRANCH   9  10
ENDBRANCH   5   6
ENDBRANCH   4   5
TORSDOF 9
ENDMDL
MODEL      435
REMARK 921   NORMALIZED FREE ENERGY PREDICTED BY IDOCK:    1.07 KCAL/MOL
REMARK 922        TOTAL FREE ENERGY PREDICTED BY IDOCK:   -1.57 KCAL/MOL
REMARK 923 INTER-LIGAND FREE ENERGY PREDICTED BY IDOCK:   -3.12 KCAL/MOL
REMARK 924 INTRA-LIGAND FREE ENERGY PREDICTED BY IDOCK:    1.55 KCAL/MOL
REMARK 927      BINDING AFFINITY PREDICTED BY RF-SCORE:    0.00 PKD
ROOT
HETATM    1  C   UNL     1     -10.210  14.833  64.543  1.00  0.00     0.311 C  
HETATM    2  C   UNL     1     -10.797  15.167  65.913  1.00  0.00    -0.342 C  
HETATM    3  C   UNL     1     -12.123  14.424  66.104  1.00  0.00    -0.373 C  
HETATM    4  C   UNL     1      -9.767  14.842  67.011  1.00  0.00    -0.242 C  
ENDROOT
BRANCH   4   5
HETATM    5  C   UNL     1     -10.300  15.166  68.400  1.00  0.00    -0.229 C  
BRANCH   5   6
HETATM    6  C   UNL     1     -11.062  14.004  69.029  1.00  0.00    -0.296 C  
HETATM    7  C   UNL     1     -10.516  12.645  68.550  1.00  0.00    -0.249 C  
HETATM    8  C   UNL     1      -9.031  12.464  68.899  1.00  0.00     0.292 C  
HETATM    9  C   UNL     1     -11.381  11.518  69.141  1.00  0.00    -0.351 C  
BRANCH   9  10
HETATM   10  C   UNL     1     -10.886  10.144  68.702  1.00  0.00    -0.272 C  
BRANCH  10  11
HETATM   11  C   UNL     1     -11.459   9.026  69.559  1.00  0.00     0.291 C  
HETATM   12  C   UNL     1     -11.497   9.411  71.050  1.00  0.00    -0.403 C  
HETATM   13  C   UNL     1     -11.950   8.219  71.915  1.00  0.00    -0.383 C  
HETATM   14  C   UNL     1     -12.399  10.623  71.320  1.00  0.00    -0.488 C  
BRANCH  13  15
HETATM   15  C   UNL     1     -11.058   6.975  71.813  1.00  0.00    -0.270 C  
BRANCH  15  16
HETATM   16  C   UNL     1     -10.101   6.835  72.998  1.00  0.00    -0.212 C  
BRANCH  16  17
HETATM   17  C   UNL     1      -8.688   7.210  72.628  1.00  0.00    -0.138 C  
HETATM   18  C   UNL     1      -7.904   6.310  72.003  1.00  0.00    -0.097 C  
HETATM   19  C   UNL     1      -8.257   8.612  72.939  1.00  0.00     0.011 C  
BRANCH  18  20
HETATM   20  C   UNL     1      -6.507   6.537  71.485  1.00  0.00    -0.046 C  
BRANCH  20  21
HETATM   21  C   UNL     1      -6.303   7.975  71.052  1.00  0.00    -0.037 C  
HETATM   22  C   UNL     1      -6.630   8.465  69.837  1.00  0.00    -0.038 C  
HETATM   23  C   UNL     1      -7.199   7.666  68.695  1.00  0.00    -0.082 C  
HETATM   24  C   UNL     1      -6.466   9.915  69.524  1.00  0.00    -0.048 C  
HETATM   25  O   UNL     1      -6.719  10.354  68.411  1.00  0.00    -0.059 OA 
HETATM   26  C   UNL     1      -6.012  10.817  70.593  1.00  0.00    -0.094 A  
HETATM   27  C   UNL     1      -5.647  10.311  71.832  1.00  0.00     0.219 A  
HETATM   28  C   UNL     1      -5.709   8.866  72.092  1.00  0.00    -0.064 C  
HETATM   29  C   UNL     1      -5.207  11.178  72.840  1.00  0.00     0.571 A  
HETATM   30  C   UNL     1      -5.141  12.553  72.604  1.00  0.00     0.249 A  
HETATM   31  O   UNL     1      -5.287   8.426  73.155  1.00  0.00    -0.046 OA 
HETATM   32  C   UNL     1      -5.512  13.062  71.361  1.00  0.00    -0.102 A  
HETATM   33  C   UNL     1      -5.946  12.197  70.354  1.00  0.00    -0.103 A  
ENDBRANCH  20  21
ENDBRANCH  18  20
ENDBRANCH  16  17
ENDBRANCH  15  16
ENDBRANCH  13  15
ENDBRANCH  10  11
ENDBRANCH   9  10
ENDBRANCH   5   6
ENDBRANCH   4   5
TORSDOF 9
ENDMDL
MODEL      436
REMARK 921   NORMALIZED FREE ENERGY PREDICTED BY IDOCK:    1.07 KCAL/MOL
REMARK 922        TOTAL FREE ENERGY PREDICTED BY IDOCK:   -1.57 KCAL/MOL
REMARK 923 INTER-LIGAND FREE ENERGY PREDICTED BY IDOCK:   -2.53 KCAL/MOL
REMARK 924 INTRA-LIGAND FREE ENERGY PREDICTED BY IDOCK:    0.96 KCAL/MOL
REMARK 927      BINDING AFFINITY PREDICTED BY RF-SCORE:    0.00 PKD
ROOT
HETATM    1  C   UNL     1      -6.285   5.258  71.733  1.00  0.00    -0.030 C  
HETATM    2  C   UNL     1      -6.945   6.432  72.452  1.00  0.00    -0.074 C  
HETATM    3  C   UNL     1      -6.419   6.522  73.889  1.00  0.00    -0.069 C  
HETATM    4  C   UNL     1      -6.714   7.727  71.651  1.00  0.00    -0.046 C  
ENDROOT
BRANCH   4   5
HETATM    5  C   UNL     1      -7.361   8.931  72.322  1.00  0.00     0.133 C  
BRANCH   5   6
HETATM    6  C   UNL     1      -8.885   8.887  72.277  1.00  0.00     0.069 C  
HETATM    7  C   UNL     1      -9.422   9.311  70.897  1.00  0.00    -0.330 C  
HETATM    8  C   UNL     1      -8.902   8.403  69.772  1.00  0.00    -0.134 C  
HETATM    9  C   UNL     1     -10.960   9.337  70.942  1.00  0.00    -0.368 C  
BRANCH   9  10
HETATM   10  C   UNL     1     -11.552   9.748  69.598  1.00  0.00    -0.032 C  
BRANCH  10  11
HETATM   11  C   UNL     1     -10.484   9.942  68.534  1.00  0.00    -0.232 C  
HETATM   12  C   UNL     1     -10.531  11.358  67.928  1.00  0.00    -0.212 C  
HETATM   13  C   UNL     1      -9.535  11.489  66.759  1.00  0.00    -0.202 C  
HETATM   14  C   UNL     1     -10.259  12.450  68.970  1.00  0.00     0.080 C  
BRANCH  13  15
HETATM   15  C   UNL     1      -9.774  10.516  65.598  1.00  0.00    -0.289 C  
BRANCH  15  16
HETATM   16  C   UNL     1     -11.067  10.810  64.836  1.00  0.00     0.247 C  
BRANCH  16  17
HETATM   17  C   UNL     1     -11.397  12.281  64.835  1.00  0.00    -0.373 C  
HETATM   18  C   UNL     1     -12.139  12.797  65.834  1.00  0.00    -0.485 C  
HETATM   19  C   UNL     1     -10.817  13.104  63.722  1.00  0.00    -0.172 C  
BRANCH  18  20
HETATM   20  C   UNL     1     -12.491  14.248  66.040  1.00  0.00    -0.392 C  
BRANCH  20  21
HETATM   21  C   UNL     1     -11.997  14.753  67.381  1.00  0.00    -0.236 C  
HETATM   22  C   UNL     1     -11.023  15.674  67.543  1.00  0.00    -0.309 C  
HETATM   23  C   UNL     1     -10.231  16.315  66.435  1.00  0.00    -0.322 C  
HETATM   24  C   UNL     1     -10.656  16.172  68.901  1.00  0.00    -0.275 C  
HETATM   25  O   UNL     1      -9.744  16.974  69.055  1.00  0.00    -0.259 OA 
HETATM   26  C   UNL     1     -11.428  15.694  70.057  1.00  0.00    -0.352 A  
HETATM   27  C   UNL     1     -12.408  14.726  69.896  1.00  0.00    -0.328 A  
HETATM   28  C   UNL     1     -12.685  14.163  68.567  1.00  0.00     0.880 C  
HETATM   29  C   UNL     1     -13.131  14.270  71.005  1.00  0.00    -0.394 A  
HETATM   30  C   UNL     1     -12.875  14.795  72.274  1.00  0.00    -0.414 A  
HETATM   31  O   UNL     1     -13.480  13.237  68.458  1.00  0.00     3.089 OA 
HETATM   32  C   UNL     1     -11.894  15.772  72.435  1.00  0.00    -0.606 A  
HETATM   33  C   UNL     1     -11.169  16.222  71.330  1.00  0.00    -0.091 A  
ENDBRANCH  20  21
ENDBRANCH  18  20
ENDBRANCH  16  17
ENDBRANCH  15  16
ENDBRANCH  13  15
ENDBRANCH  10  11
ENDBRANCH   9  10
ENDBRANCH   5   6
ENDBRANCH   4   5
TORSDOF 9
ENDMDL
MODEL      437
REMARK 921   NORMALIZED FREE ENERGY PREDICTED BY IDOCK:    1.11 KCAL/MOL
REMARK 922        TOTAL FREE ENERGY PREDICTED BY IDOCK:   -1.51 KCAL/MOL
REMARK 923 INTER-LIGAND FREE ENERGY PREDICTED BY IDOCK:   -0.19 KCAL/MOL
REMARK 924 INTRA-LIGAND FREE ENERGY PREDICTED BY IDOCK:   -1.32 KCAL/MOL
REMARK 927      BINDING AFFINITY PREDICTED BY RF-SCORE:    0.00 PKD
ROOT
HETATM    1  C   UNL     1     -11.106   3.790  63.235  1.00  0.00     0.101 C  
HETATM    2  C   UNL     1     -10.349   2.892  64.211  1.00  0.00     0.022 C  
HETATM    3  C   UNL     1      -8.977   2.533  63.628  1.00  0.00    -0.093 C  
HETATM    4  C   UNL     1     -10.251   3.585  65.584  1.00  0.00     0.338 C  
ENDROOT
BRANCH   4   5
HETATM    5  C   UNL     1      -9.511   2.726  66.600  1.00  0.00     0.038 C  
BRANCH   5   6
HETATM    6  C   UNL     1      -8.380   3.474  67.298  1.00  0.00    -0.093 C  
HETATM    7  C   UNL     1      -8.837   4.864  67.783  1.00  0.00    -0.109 C  
HETATM    8  C   UNL     1     -10.009   4.773  68.772  1.00  0.00    -0.182 C  
HETATM    9  C   UNL     1      -7.634   5.605  68.392  1.00  0.00    -0.081 C  
BRANCH   9  10
HETATM   10  C   UNL     1      -8.027   6.991  68.894  1.00  0.00    -0.120 C  
BRANCH  10  11
HETATM   11  C   UNL     1      -7.741   8.076  67.868  1.00  0.00    -0.114 C  
HETATM   12  C   UNL     1      -6.485   8.890  68.231  1.00  0.00    -0.059 C  
HETATM   13  C   UNL     1      -6.292  10.069  67.258  1.00  0.00    -0.067 C  
HETATM   14  C   UNL     1      -5.216   8.027  68.263  1.00  0.00    -0.032 C  
BRANCH  13  15
HETATM   15  C   UNL     1      -7.456  11.067  67.218  1.00  0.00    -0.107 C  
BRANCH  15  16
HETATM   16  C   UNL     1      -8.174  11.085  65.868  1.00  0.00    -0.100 C  
BRANCH  16  17
HETATM   17  C   UNL     1      -9.410  11.949  65.899  1.00  0.00    -0.193 C  
HETATM   18  C   UNL     1      -9.287  13.280  66.066  1.00  0.00    -0.016 C  
HETATM   19  C   UNL     1     -10.723  11.258  65.681  1.00  0.00    -0.279 C  
BRANCH  18  20
HETATM   20  C   UNL     1     -10.396  14.299  66.036  1.00  0.00    -0.318 C  
BRANCH  20  21
HETATM   21  C   UNL     1     -10.352  15.204  67.252  1.00  0.00    -0.261 C  
HETATM   22  C   UNL     1     -10.724  14.836  68.496  1.00  0.00    -0.247 C  
HETATM   23  C   UNL     1     -11.292  13.496  68.881  1.00  0.00    -0.332 C  
HETATM   24  C   UNL     1     -10.572  15.770  69.651  1.00  0.00    -0.295 C  
HETATM   25  O   UNL     1     -10.949  15.457  70.772  1.00  0.00    -0.326 OA 
HETATM   26  C   UNL     1      -9.936  17.075  69.418  1.00  0.00    -0.090 A  
HETATM   27  C   UNL     1      -9.580  17.466  68.136  1.00  0.00    -0.287 A  
HETATM   28  C   UNL     1      -9.837  16.580  66.992  1.00  0.00    -0.257 C  
HETATM   29  C   UNL     1      -8.983  18.715  67.924  1.00  0.00    -0.308 A  
HETATM   30  C   UNL     1      -8.737  19.567  69.003  1.00  0.00    -0.217 A  
HETATM   31  O   UNL     1      -9.611  16.982  65.856  1.00  0.00    -0.488 OA 
HETATM   32  C   UNL     1      -9.090  19.173  70.294  1.00  0.00     1.610 A  
HETATM   33  C   UNL     1      -9.690  17.929  70.503  1.00  0.00     2.770 A  
ENDBRANCH  20  21
ENDBRANCH  18  20
ENDBRANCH  16  17
ENDBRANCH  15  16
ENDBRANCH  13  15
ENDBRANCH  10  11
ENDBRANCH   9  10
ENDBRANCH   5   6
ENDBRANCH   4   5
TORSDOF 9
ENDMDL
MODEL      438
REMARK 921   NORMALIZED FREE ENERGY PREDICTED BY IDOCK:    2.07 KCAL/MOL
REMARK 922        TOTAL FREE ENERGY PREDICTED BY IDOCK:   -0.04 KCAL/MOL
REMARK 923 INTER-LIGAND FREE ENERGY PREDICTED BY IDOCK:   -3.48 KCAL/MOL
REMARK 924 INTRA-LIGAND FREE ENERGY PREDICTED BY IDOCK:    3.44 KCAL/MOL
REMARK 927      BINDING AFFINITY PREDICTED BY RF-SCORE:    0.00 PKD
ROOT
HETATM    1  C   UNL     1     -13.492   9.794  71.758  1.00  0.00    -0.463 C  
HETATM    2  C   UNL     1     -12.371   9.700  70.726  1.00  0.00    -0.279 C  
HETATM    3  C   UNL     1     -12.734  10.529  69.489  1.00  0.00     0.347 C  
HETATM    4  C   UNL     1     -11.039  10.136  71.366  1.00  0.00     0.134 C  
ENDROOT
BRANCH   4   5
HETATM    5  C   UNL     1      -9.883  10.052  70.379  1.00  0.00    -0.071 C  
BRANCH   5   6
HETATM    6  C   UNL     1     -10.205   9.193  69.160  1.00  0.00    -0.215 C  
HETATM    7  C   UNL     1      -9.875   7.709  69.412  1.00  0.00    -0.171 C  
HETATM    8  C   UNL     1     -10.663   7.136  70.600  1.00  0.00    -0.255 C  
HETATM    9  C   UNL     1     -10.131   6.911  68.122  1.00  0.00    -0.187 C  
BRANCH   9  10
HETATM   10  C   UNL     1      -9.824   5.429  68.310  1.00  0.00    -0.196 C  
BRANCH  10  11
HETATM   11  C   UNL     1      -9.058   4.846  67.133  1.00  0.00    -0.122 C  
HETATM   12  C   UNL     1      -9.224   5.702  65.863  1.00  0.00    -0.145 C  
HETATM   13  C   UNL     1      -8.557   5.023  64.651  1.00  0.00    -0.150 C  
HETATM   14  C   UNL     1      -8.670   7.122  66.036  1.00  0.00    -0.162 C  
BRANCH  13  15
HETATM   15  C   UNL     1      -9.105   3.632  64.309  1.00  0.00    -0.128 C  
BRANCH  15  16
HETATM   16  C   UNL     1      -9.652   2.895  65.532  1.00  0.00     0.065 C  
BRANCH  16  17
HETATM   17  C   UNL     1      -8.547   2.385  66.422  1.00  0.00    -0.114 C  
HETATM   18  C   UNL     1      -8.649   2.528  67.759  1.00  0.00    -0.118 C  
HETATM   19  C   UNL     1      -7.404   1.685  65.749  1.00  0.00    -0.057 C  
BRANCH  18  20
HETATM   20  C   UNL     1      -7.692   2.006  68.798  1.00  0.00    -0.047 C  
BRANCH  20  21
HETATM   21  C   UNL     1      -7.590   2.948  69.981  1.00  0.00    -0.043 C  
HETATM   22  C   UNL     1      -6.626   3.880  70.140  1.00  0.00    -0.033 C  
HETATM   23  C   UNL     1      -5.468   4.110  69.206  1.00  0.00    -0.012 C  
HETATM   24  C   UNL     1      -6.650   4.819  71.300  1.00  0.00    -0.030 C  
HETATM   25  O   UNL     1      -5.755   5.636  71.470  1.00  0.00    -0.019 OA 
HETATM   26  C   UNL     1      -7.788   4.759  72.229  1.00  0.00    -0.098 A  
HETATM   27  C   UNL     1      -8.762   3.782  72.084  1.00  0.00    -0.115 A  
HETATM   28  C   UNL     1      -8.669   2.794  71.001  1.00  0.00    -0.067 C  
HETATM   29  C   UNL     1      -9.837   3.728  72.981  1.00  0.00    -0.186 A  
HETATM   30  C   UNL     1      -9.935   4.660  74.016  1.00  0.00    -0.199 A  
HETATM   31  O   UNL     1      -9.481   1.877  70.950  1.00  0.00    -0.116 OA 
HETATM   32  C   UNL     1      -8.959   5.645  74.159  1.00  0.00    -0.122 A  
HETATM   33  C   UNL     1      -7.885   5.696  73.268  1.00  0.00    -0.106 A  
ENDBRANCH  20  21
ENDBRANCH  18  20
ENDBRANCH  16  17
ENDBRANCH  15  16
ENDBRANCH  13  15
ENDBRANCH  10  11
ENDBRANCH   9  10
ENDBRANCH   5   6
ENDBRANCH   4   5
TORSDOF 9
ENDMDL
MODEL      439
REMARK 921   NORMALIZED FREE ENERGY PREDICTED BY IDOCK:    2.71 KCAL/MOL
REMARK 922        TOTAL FREE ENERGY PREDICTED BY IDOCK:    0.93 KCAL/MOL
REMARK 923 INTER-LIGAND FREE ENERGY PREDICTED BY IDOCK:   -0.07 KCAL/MOL
REMARK 924 INTRA-LIGAND FREE ENERGY PREDICTED BY IDOCK:    1.00 KCAL/MOL
REMARK 927      BINDING AFFINITY PREDICTED BY RF-SCORE:    0.00 PKD
ROOT
HETATM    1  C   UNL     1     -11.021  13.469  63.842  1.00  0.00    -0.019 C  
HETATM    2  C   UNL     1     -10.331  12.177  64.272  1.00  0.00    -0.363 C  
HETATM    3  C   UNL     1     -10.155  12.164  65.795  1.00  0.00    -0.272 C  
HETATM    4  C   UNL     1     -11.128  10.965  63.753  1.00  0.00     0.290 C  
ENDROOT
BRANCH   4   5
HETATM    5  C   UNL     1     -10.476   9.647  64.148  1.00  0.00     2.354 C  
BRANCH   5   6
HETATM    6  C   UNL     1      -8.954   9.684  64.043  1.00  0.00    -0.261 C  
HETATM    7  C   UNL     1      -8.305   8.530  64.832  1.00  0.00    -0.171 C  
HETATM    8  C   UNL     1      -8.769   7.155  64.329  1.00  0.00     0.574 C  
HETATM    9  C   UNL     1      -6.775   8.674  64.766  1.00  0.00    -0.069 C  
BRANCH   9  10
HETATM   10  C   UNL     1      -6.074   7.555  65.530  1.00  0.00    -0.038 C  
BRANCH  10  11
HETATM   11  C   UNL     1      -7.041   6.744  66.378  1.00  0.00    -0.071 C  
HETATM   12  C   UNL     1      -6.516   5.320  66.639  1.00  0.00    -0.041 C  
HETATM   13  C   UNL     1      -7.569   4.473  67.380  1.00  0.00    -0.082 C  
HETATM   14  C   UNL     1      -5.198   5.316  67.423  1.00  0.00    -0.008 C  
BRANCH  13  15
HETATM   15  C   UNL     1      -8.903   4.312  66.640  1.00  0.00    -0.116 C  
BRANCH  15  16
HETATM   16  C   UNL     1      -9.710   5.610  66.586  1.00  0.00    -0.176 C  
BRANCH  16  17
HETATM   17  C   UNL     1      -9.669   6.352  67.898  1.00  0.00    -0.124 C  
HETATM   18  C   UNL     1      -9.928   7.674  67.922  1.00  0.00    -0.208 C  
HETATM   19  C   UNL     1      -9.391   5.539  69.128  1.00  0.00    -0.158 C  
BRANCH  18  20
HETATM   20  C   UNL     1     -10.017   8.554  69.142  1.00  0.00    -0.194 C  
BRANCH  20  21
HETATM   21  C   UNL     1      -8.741   9.345  69.350  1.00  0.00    -0.157 C  
HETATM   22  C   UNL     1      -7.549   8.807  69.685  1.00  0.00    -0.076 C  
HETATM   23  C   UNL     1      -7.293   7.349  69.959  1.00  0.00    -0.082 C  
HETATM   24  C   UNL     1      -6.326   9.656  69.791  1.00  0.00    -0.047 C  
HETATM   25  O   UNL     1      -5.254   9.178  70.137  1.00  0.00    -0.028 OA 
HETATM   26  C   UNL     1      -6.429  11.082  69.448  1.00  0.00    -0.095 A  
HETATM   27  C   UNL     1      -7.658  11.642  69.134  1.00  0.00     0.044 A  
HETATM   28  C   UNL     1      -8.874  10.817  69.140  1.00  0.00    -0.086 C  
HETATM   29  C   UNL     1      -7.747  13.004  68.818  1.00  0.00     0.004 A  
HETATM   30  C   UNL     1      -6.599  13.799  68.812  1.00  0.00    -0.100 A  
HETATM   31  O   UNL     1      -9.964  11.349  68.961  1.00  0.00    -0.171 OA 
HETATM   32  C   UNL     1      -5.362  13.235  69.123  1.00  0.00    -0.073 A  
HETATM   33  C   UNL     1      -5.275  11.879  69.443  1.00  0.00    -0.057 A  
ENDBRANCH  20  21
ENDBRANCH  18  20
ENDBRANCH  16  17
ENDBRANCH  15  16
ENDBRANCH  13  15
ENDBRANCH  10  11
ENDBRANCH   9  10
ENDBRANCH   5   6
ENDBRANCH   4   5
TORSDOF 9
ENDMDL
MODEL      440
REMARK 921   NORMALIZED FREE ENERGY PREDICTED BY IDOCK:    2.93 KCAL/MOL
REMARK 922        TOTAL FREE ENERGY PREDICTED BY IDOCK:    1.27 KCAL/MOL
REMARK 923 INTER-LIGAND FREE ENERGY PREDICTED BY IDOCK:    0.53 KCAL/MOL
REMARK 924 INTRA-LIGAND FREE ENERGY PREDICTED BY IDOCK:    0.74 KCAL/MOL
REMARK 927      BINDING AFFINITY PREDICTED BY RF-SCORE:    0.00 PKD
ROOT
HETATM    1  C   UNL     1     -10.446   7.994  69.221  1.00  0.00    -0.221 C  
HETATM    2  C   UNL     1     -11.714   8.517  69.892  1.00  0.00     0.410 C  
HETATM    3  C   UNL     1     -11.603   8.351  71.411  1.00  0.00    -0.332 C  
HETATM    4  C   UNL     1     -11.959   9.978  69.468  1.00  0.00     0.096 C  
ENDROOT
BRANCH   4   5
HETATM    5  C   UNL     1     -13.220  10.548  70.103  1.00  0.00     0.216 C  
BRANCH   5   6
HETATM    6  C   UNL     1     -13.110  12.038  70.408  1.00  0.00     0.512 C  
HETATM    7  C   UNL     1     -11.658  12.537  70.267  1.00  0.00    -0.052 C  
HETATM    8  C   UNL     1     -11.107  12.314  68.851  1.00  0.00    -0.291 C  
HETATM    9  C   UNL     1     -11.594  14.019  70.676  1.00  0.00    -0.126 C  
BRANCH   9  10
HETATM   10  C   UNL     1     -10.178  14.572  70.554  1.00  0.00     0.940 C  
BRANCH  10  11
HETATM   11  C   UNL     1     -10.021  15.494  69.356  1.00  0.00    -0.277 C  
HETATM   12  C   UNL     1     -11.383  15.996  68.839  1.00  0.00    -0.370 C  
HETATM   13  C   UNL     1     -11.212  16.815  67.545  1.00  0.00     0.081 C  
HETATM   14  C   UNL     1     -12.138  16.826  69.885  1.00  0.00     1.588 C  
BRANCH  13  15
HETATM   15  C   UNL     1     -10.564  16.053  66.382  1.00  0.00    -0.284 C  
BRANCH  15  16
HETATM   16  C   UNL     1     -10.204  14.612  66.747  1.00  0.00    -0.268 C  
BRANCH  16  17
HETATM   17  C   UNL     1      -8.718  14.432  66.929  1.00  0.00    -0.218 C  
HETATM   18  C   UNL     1      -8.230  13.218  67.251  1.00  0.00    -0.164 C  
HETATM   19  C   UNL     1      -7.855  15.633  66.677  1.00  0.00    -0.134 C  
BRANCH  18  20
HETATM   20  C   UNL     1      -6.779  12.836  67.386  1.00  0.00    -0.138 C  
BRANCH  20  21
HETATM   21  C   UNL     1      -6.613  11.338  67.550  1.00  0.00    -0.073 C  
HETATM   22  C   UNL     1      -6.017  10.529  66.648  1.00  0.00    -0.071 C  
HETATM   23  C   UNL     1      -5.467  10.959  65.314  1.00  0.00    -0.069 C  
HETATM   24  C   UNL     1      -5.826   9.075  66.928  1.00  0.00    -0.049 C  
HETATM   25  O   UNL     1      -5.327   8.331  66.095  1.00  0.00    -0.027 OA 
HETATM   26  C   UNL     1      -6.233   8.555  68.242  1.00  0.00    -0.051 A  
HETATM   27  C   UNL     1      -6.872   9.378  69.157  1.00  0.00    -0.050 A  
HETATM   28  C   UNL     1      -7.153  10.781  68.825  1.00  0.00    -0.079 C  
HETATM   29  C   UNL     1      -7.264   8.869  70.402  1.00  0.00    -0.060 A  
HETATM   30  C   UNL     1      -7.006   7.536  70.728  1.00  0.00    -0.048 A  
HETATM   31  O   UNL     1      -7.808  11.465  69.602  1.00  0.00     0.207 OA 
HETATM   32  C   UNL     1      -6.359   6.709  69.810  1.00  0.00    -0.042 A  
HETATM   33  C   UNL     1      -5.973   7.215  68.567  1.00  0.00    -0.026 A  
ENDBRANCH  20  21
ENDBRANCH  18  20
ENDBRANCH  16  17
ENDBRANCH  15  16
ENDBRANCH  13  15
ENDBRANCH  10  11
ENDBRANCH   9  10
ENDBRANCH   5   6
ENDBRANCH   4   5
TORSDOF 9
ENDMDL
MODEL      441
REMARK 921   NORMALIZED FREE ENERGY PREDICTED BY IDOCK:    3.18 KCAL/MOL
REMARK 922        TOTAL FREE ENERGY PREDICTED BY IDOCK:    1.65 KCAL/MOL
REMARK 923 INTER-LIGAND FREE ENERGY PREDICTED BY IDOCK:    0.64 KCAL/MOL
REMARK 924 INTRA-LIGAND FREE ENERGY PREDICTED BY IDOCK:    1.01 KCAL/MOL
REMARK 927      BINDING AFFINITY PREDICTED BY RF-SCORE:    0.00 PKD
ROOT
HETATM    1  C   UNL     1     -10.472   7.942  69.141  1.00  0.00    -0.218 C  
HETATM    2  C   UNL     1     -11.656   8.534  69.902  1.00  0.00     0.277 C  
HETATM    3  C   UNL     1     -11.441   8.365  71.410  1.00  0.00    -0.328 C  
HETATM    4  C   UNL     1     -11.855  10.005  69.488  1.00  0.00     0.017 C  
ENDROOT
BRANCH   4   5
HETATM    5  C   UNL     1     -13.032  10.643  70.213  1.00  0.00    -0.128 C  
BRANCH   5   6
HETATM    6  C   UNL     1     -12.794  12.110  70.554  1.00  0.00     0.065 C  
HETATM    7  C   UNL     1     -11.390  12.571  70.117  1.00  0.00     0.170 C  
HETATM    8  C   UNL     1     -11.174  12.409  68.605  1.00  0.00    -0.314 C  
HETATM    9  C   UNL     1     -11.175  14.026  70.570  1.00  0.00     0.216 C  
BRANCH   9  10
HETATM   10  C   UNL     1      -9.798  14.541  70.163  1.00  0.00     0.788 C  
BRANCH  10  11
HETATM   11  C   UNL     1      -9.872  15.531  69.012  1.00  0.00    -0.235 C  
HETATM   12  C   UNL     1     -11.162  16.372  69.063  1.00  0.00    -0.291 C  
HETATM   13  C   UNL     1     -11.284  17.269  67.816  1.00  0.00     0.135 C  
HETATM   14  C   UNL     1     -11.254  17.228  70.332  1.00  0.00     1.165 C  
BRANCH  13  15
HETATM   15  C   UNL     1     -11.313  16.515  66.480  1.00  0.00     0.575 C  
BRANCH  15  16
HETATM   16  C   UNL     1     -11.299  14.996  66.659  1.00  0.00    -0.289 C  
BRANCH  16  17
HETATM   17  C   UNL     1     -10.021  14.381  66.148  1.00  0.00    -0.328 C  
HETATM   18  C   UNL     1      -9.823  13.054  66.280  1.00  0.00    -0.278 C  
HETATM   19  C   UNL     1      -9.056  15.299  65.460  1.00  0.00     0.413 C  
BRANCH  18  20
HETATM   20  C   UNL     1      -8.654  12.261  65.756  1.00  0.00     0.580 C  
BRANCH  20  21
HETATM   21  C   UNL     1      -8.067  11.363  66.827  1.00  0.00    -0.161 C  
HETATM   22  C   UNL     1      -7.668  11.783  68.046  1.00  0.00    -0.123 C  
HETATM   23  C   UNL     1      -7.686  13.209  68.531  1.00  0.00    -0.117 C  
HETATM   24  C   UNL     1      -7.174  10.814  69.069  1.00  0.00    -0.096 C  
HETATM   25  O   UNL     1      -6.770  11.196  70.159  1.00  0.00    -0.165 OA 
HETATM   26  C   UNL     1      -7.203   9.380  68.748  1.00  0.00    -0.073 A  
HETATM   27  C   UNL     1      -7.585   8.949  67.486  1.00  0.00    -0.093 A  
HETATM   28  C   UNL     1      -7.964   9.922  66.452  1.00  0.00    -0.111 C  
HETATM   29  C   UNL     1      -7.600   7.581  67.188  1.00  0.00    -0.107 A  
HETATM   30  C   UNL     1      -7.239   6.647  68.161  1.00  0.00    -0.088 A  
HETATM   31  O   UNL     1      -8.199   9.532  65.314  1.00  0.00    -0.121 OA 
HETATM   32  C   UNL     1      -6.860   7.079  69.431  1.00  0.00    -0.054 A  
HETATM   33  C   UNL     1      -6.840   8.443  69.726  1.00  0.00    -0.043 A  
ENDBRANCH  20  21
ENDBRANCH  18  20
ENDBRANCH  16  17
ENDBRANCH  15  16
ENDBRANCH  13  15
ENDBRANCH  10  11
ENDBRANCH   9  10
ENDBRANCH   5   6
ENDBRANCH   4   5
TORSDOF 9
ENDMDL
MODEL      442
REMARK 921   NORMALIZED FREE ENERGY PREDICTED BY IDOCK:    3.54 KCAL/MOL
REMARK 922        TOTAL FREE ENERGY PREDICTED BY IDOCK:    2.20 KCAL/MOL
REMARK 923 INTER-LIGAND FREE ENERGY PREDICTED BY IDOCK:   -2.48 KCAL/MOL
REMARK 924 INTRA-LIGAND FREE ENERGY PREDICTED BY IDOCK:    4.68 KCAL/MOL
REMARK 927      BINDING AFFINITY PREDICTED BY RF-SCORE:    0.00 PKD
ROOT
HETATM    1  C   UNL     1     -13.491   9.796  71.759  1.00  0.00    -0.463 C  
HETATM    2  C   UNL     1     -12.354   9.733  70.742  1.00  0.00    -0.321 C  
HETATM    3  C   UNL     1     -12.716  10.565  69.507  1.00  0.00     0.347 C  
HETATM    4  C   UNL     1     -11.040  10.188  71.405  1.00  0.00     0.134 C  
ENDROOT
BRANCH   4   5
HETATM    5  C   UNL     1      -9.868  10.135  70.433  1.00  0.00     0.073 C  
BRANCH   5   6
HETATM    6  C   UNL     1     -10.156   9.279  69.204  1.00  0.00    -0.204 C  
HETATM    7  C   UNL     1      -9.617   7.845  69.375  1.00  0.00    -0.160 C  
HETATM    8  C   UNL     1     -10.239   7.135  70.587  1.00  0.00    -0.205 C  
HETATM    9  C   UNL     1      -9.852   7.060  68.073  1.00  0.00    -0.156 C  
BRANCH   9  10
HETATM   10  C   UNL     1      -9.339   5.628  68.182  1.00  0.00    -0.119 C  
BRANCH  10  11
HETATM   11  C   UNL     1      -8.589   5.189  66.935  1.00  0.00    -0.105 C  
HETATM   12  C   UNL     1      -8.958   6.051  65.713  1.00  0.00    -0.116 C  
HETATM   13  C   UNL     1      -8.295   5.504  64.434  1.00  0.00    -0.115 C  
HETATM   14  C   UNL     1      -8.587   7.527  65.902  1.00  0.00    -0.165 C  
BRANCH  13  15
HETATM   15  C   UNL     1      -8.677   4.062  64.076  1.00  0.00    -0.113 C  
BRANCH  15  16
HETATM   16  C   UNL     1      -9.032   3.223  65.304  1.00  0.00    -0.142 C  
BRANCH  16  17
HETATM   17  C   UNL     1      -7.808   2.845  66.101  1.00  0.00    -0.081 C  
HETATM   18  C   UNL     1      -7.835   2.939  67.445  1.00  0.00    -0.073 C  
HETATM   19  C   UNL     1      -6.632   2.324  65.329  1.00  0.00    -0.031 C  
BRANCH  18  20
HETATM   20  C   UNL     1      -6.745   2.526  68.399  1.00  0.00    -0.036 C  
BRANCH  20  21
HETATM   21  C   UNL     1      -6.687   3.442  69.605  1.00  0.00    -0.034 C  
HETATM   22  C   UNL     1      -6.964   3.065  70.871  1.00  0.00    -0.033 C  
HETATM   23  C   UNL     1      -7.424   1.695  71.296  1.00  0.00    -0.032 C  
HETATM   24  C   UNL     1      -6.803   4.017  72.009  1.00  0.00    -0.037 C  
HETATM   25  O   UNL     1      -7.095   3.691  73.152  1.00  0.00    -0.050 OA 
HETATM   26  C   UNL     1      -6.263   5.356  71.733  1.00  0.00    -0.038 A  
HETATM   27  C   UNL     1      -6.007   5.756  70.430  1.00  0.00    -0.025 A  
HETATM   28  C   UNL     1      -6.273   4.845  69.308  1.00  0.00    -0.030 C  
HETATM   29  C   UNL     1      -5.501   7.037  70.178  1.00  0.00    -0.023 A  
HETATM   30  C   UNL     1      -5.247   7.912  71.236  1.00  0.00    -0.030 A  
HETATM   31  O   UNL     1      -6.139   5.250  68.159  1.00  0.00    -0.024 OA 
HETATM   32  C   UNL     1      -5.500   7.509  72.546  1.00  0.00    -0.037 A  
HETATM   33  C   UNL     1      -6.008   6.233  72.797  1.00  0.00    -0.042 A  
ENDBRANCH  20  21
ENDBRANCH  18  20
ENDBRANCH  16  17
ENDBRANCH  15  16
ENDBRANCH  13  15
ENDBRANCH  10  11
ENDBRANCH   9  10
ENDBRANCH   5   6
ENDBRANCH   4   5
TORSDOF 9
ENDMDL
MODEL      443
REMARK 921   NORMALIZED FREE ENERGY PREDICTED BY IDOCK:    3.54 KCAL/MOL
REMARK 922        TOTAL FREE ENERGY PREDICTED BY IDOCK:    2.21 KCAL/MOL
REMARK 923 INTER-LIGAND FREE ENERGY PREDICTED BY IDOCK:   -4.26 KCAL/MOL
REMARK 924 INTRA-LIGAND FREE ENERGY PREDICTED BY IDOCK:    6.46 KCAL/MOL
REMARK 927      BINDING AFFINITY PREDICTED BY RF-SCORE:    0.00 PKD
ROOT
HETATM    1  C   UNL     1     -10.181   2.660  67.394  1.00  0.00     1.874 C  
HETATM    2  C   UNL     1      -9.635   4.084  67.471  1.00  0.00    -0.216 C  
HETATM    3  C   UNL     1      -8.981   4.315  68.838  1.00  0.00    -0.156 C  
HETATM    4  C   UNL     1      -8.668   4.333  66.298  1.00  0.00    -0.114 C  
ENDROOT
BRANCH   4   5
HETATM    5  C   UNL     1      -8.100   5.746  66.323  1.00  0.00    -0.107 C  
BRANCH   5   6
HETATM    6  C   UNL     1      -9.025   6.744  67.012  1.00  0.00    -0.118 C  
HETATM    7  C   UNL     1      -8.377   8.139  67.111  1.00  0.00    -0.120 C  
HETATM    8  C   UNL     1      -8.029   8.713  65.728  1.00  0.00    -0.106 C  
HETATM    9  C   UNL     1      -9.314   9.075  67.895  1.00  0.00    -0.155 C  
BRANCH   9  10
HETATM   10  C   UNL     1      -8.726  10.476  68.024  1.00  0.00    -0.128 C  
BRANCH  10  11
HETATM   11  C   UNL     1      -8.879  11.283  66.745  1.00  0.00    -0.170 C  
HETATM   12  C   UNL     1      -9.121  12.776  67.037  1.00  0.00    -0.220 C  
HETATM   13  C   UNL     1      -9.409  13.552  65.736  1.00  0.00     0.136 C  
HETATM   14  C   UNL     1      -7.947  13.426  67.781  1.00  0.00    -0.167 C  
BRANCH  13  15
HETATM   15  C   UNL     1     -10.634  13.061  64.953  1.00  0.00    -0.355 C  
BRANCH  15  16
HETATM   16  C   UNL     1     -11.954  13.400  65.647  1.00  0.00    -0.439 C  
BRANCH  16  17
HETATM   17  C   UNL     1     -11.740  13.886  67.058  1.00  0.00    -0.426 C  
HETATM   18  C   UNL     1     -12.328  13.236  68.082  1.00  0.00     0.099 C  
HETATM   19  C   UNL     1     -10.818  15.056  67.239  1.00  0.00    -0.310 C  
BRANCH  18  20
HETATM   20  C   UNL     1     -12.157  13.526  69.551  1.00  0.00    -0.352 C  
BRANCH  20  21
HETATM   21  C   UNL     1     -12.223  12.257  70.378  1.00  0.00    -0.371 C  
HETATM   22  C   UNL     1     -12.993  12.094  71.474  1.00  0.00    -0.398 C  
HETATM   23  C   UNL     1     -13.873  13.148  72.091  1.00  0.00    -0.506 C  
HETATM   24  C   UNL     1     -13.054  10.780  72.181  1.00  0.00    -0.244 C  
HETATM   25  O   UNL     1     -13.717  10.642  73.200  1.00  0.00     1.386 OA 
HETATM   26  C   UNL     1     -12.315   9.643  71.614  1.00  0.00    -0.489 A  
HETATM   27  C   UNL     1     -11.500   9.816  70.506  1.00  0.00    -0.370 A  
HETATM   28  C   UNL     1     -11.363  11.141  69.884  1.00  0.00    -0.268 C  
HETATM   29  C   UNL     1     -10.793   8.728  69.980  1.00  0.00    -0.231 A  
HETATM   30  C   UNL     1     -10.913   7.465  70.563  1.00  0.00    -0.270 A  
HETATM   31  O   UNL     1     -10.560  11.298  68.971  1.00  0.00    -0.209 OA 
HETATM   32  C   UNL     1     -11.737   7.289  71.675  1.00  0.00    -0.316 A  
HETATM   33  C   UNL     1     -12.437   8.375  72.202  1.00  0.00    -0.422 A  
ENDBRANCH  20  21
ENDBRANCH  18  20
ENDBRANCH  16  17
ENDBRANCH  15  16
ENDBRANCH  13  15
ENDBRANCH  10  11
ENDBRANCH   9  10
ENDBRANCH   5   6
ENDBRANCH   4   5
TORSDOF 9
ENDMDL
MODEL      444
REMARK 921   NORMALIZED FREE ENERGY PREDICTED BY IDOCK:    3.56 KCAL/MOL
REMARK 922        TOTAL FREE ENERGY PREDICTED BY IDOCK:    2.23 KCAL/MOL
REMARK 923 INTER-LIGAND FREE ENERGY PREDICTED BY IDOCK:   -0.78 KCAL/MOL
REMARK 924 INTRA-LIGAND FREE ENERGY PREDICTED BY IDOCK:    3.01 KCAL/MOL
REMARK 927      BINDING AFFINITY PREDICTED BY RF-SCORE:    0.00 PKD
ROOT
HETATM    1  C   UNL     1     -12.444  11.146  69.552  1.00  0.00    -0.142 C  
HETATM    2  C   UNL     1     -11.141  10.361  69.421  1.00  0.00    -0.304 C  
HETATM    3  C   UNL     1     -11.131   9.589  68.097  1.00  0.00    -0.052 C  
HETATM    4  C   UNL     1      -9.942  11.318  69.563  1.00  0.00     0.270 C  
ENDROOT
BRANCH   4   5
HETATM    5  C   UNL     1      -8.614  10.582  69.449  1.00  0.00    -0.100 C  
BRANCH   5   6
HETATM    6  C   UNL     1      -7.710  11.155  68.363  1.00  0.00    -0.125 C  
HETATM    7  C   UNL     1      -7.236  12.579  68.716  1.00  0.00    -0.089 C  
HETATM    8  C   UNL     1      -6.452  12.616  70.036  1.00  0.00     0.104 C  
HETATM    9  C   UNL     1      -6.409  13.138  67.546  1.00  0.00    -0.142 C  
BRANCH   9  10
HETATM   10  C   UNL     1      -5.909  14.549  67.838  1.00  0.00    -0.137 C  
BRANCH  10  11
HETATM   11  C   UNL     1      -6.887  15.614  67.369  1.00  0.00    -0.231 C  
HETATM   12  C   UNL     1      -6.174  16.938  67.035  1.00  0.00    -0.226 C  
HETATM   13  C   UNL     1      -7.194  18.043  66.696  1.00  0.00    -0.248 C  
HETATM   14  C   UNL     1      -5.167  16.789  65.888  1.00  0.00     1.085 C  
BRANCH  13  15
HETATM   15  C   UNL     1      -8.193  18.361  67.816  1.00  0.00    -0.265 C  
BRANCH  15  16
HETATM   16  C   UNL     1      -8.225  17.287  68.904  1.00  0.00    -0.181 C  
BRANCH  16  17
HETATM   17  C   UNL     1      -9.498  16.481  68.862  1.00  0.00    -0.260 C  
HETATM   18  C   UNL     1      -9.435  15.136  68.907  1.00  0.00    -0.213 C  
HETATM   19  C   UNL     1     -10.786  17.250  68.830  1.00  0.00    -0.247 C  
BRANCH  18  20
HETATM   20  C   UNL     1     -10.598  14.180  68.962  1.00  0.00    -0.227 C  
BRANCH  20  21
HETATM   21  C   UNL     1     -11.143  13.888  67.578  1.00  0.00    -0.302 C  
HETATM   22  C   UNL     1     -12.229  14.482  67.040  1.00  0.00    -0.197 C  
HETATM   23  C   UNL     1     -13.110  15.489  67.731  1.00  0.00     3.270 C  
HETATM   24  C   UNL     1     -12.648  14.190  65.637  1.00  0.00    -0.470 C  
HETATM   25  O   UNL     1     -13.657  14.693  65.161  1.00  0.00    -0.006 OA 
HETATM   26  C   UNL     1     -11.808  13.297  64.825  1.00  0.00    -0.411 A  
HETATM   27  C   UNL     1     -10.710  12.663  65.386  1.00  0.00    -0.308 A  
HETATM   28  C   UNL     1     -10.372  12.874  66.801  1.00  0.00    -0.245 C  
HETATM   29  C   UNL     1      -9.922  11.807  64.606  1.00  0.00    -0.275 A  
HETATM   30  C   UNL     1     -10.235  11.596  63.262  1.00  0.00    -0.445 A  
HETATM   31  O   UNL     1      -9.462  12.227  67.306  1.00  0.00    -0.179 OA 
HETATM   32  C   UNL     1     -11.336  12.237  62.696  1.00  0.00     1.141 A  
HETATM   33  C   UNL     1     -12.124  13.086  63.475  1.00  0.00    -0.617 A  
ENDBRANCH  20  21
ENDBRANCH  18  20
ENDBRANCH  16  17
ENDBRANCH  15  16
ENDBRANCH  13  15
ENDBRANCH  10  11
ENDBRANCH   9  10
ENDBRANCH   5   6
ENDBRANCH   4   5
TORSDOF 9
ENDMDL
MODEL      445
REMARK 921   NORMALIZED FREE ENERGY PREDICTED BY IDOCK:    3.91 KCAL/MOL
REMARK 922        TOTAL FREE ENERGY PREDICTED BY IDOCK:    2.77 KCAL/MOL
REMARK 923 INTER-LIGAND FREE ENERGY PREDICTED BY IDOCK:    0.60 KCAL/MOL
REMARK 924 INTRA-LIGAND FREE ENERGY PREDICTED BY IDOCK:    2.17 KCAL/MOL
REMARK 927      BINDING AFFINITY PREDICTED BY RF-SCORE:    0.00 PKD
ROOT
HETATM    1  C   UNL     1     -13.649  10.424  71.096  1.00  0.00     0.002 C  
HETATM    2  C   UNL     1     -12.545  10.548  70.048  1.00  0.00    -0.192 C  
HETATM    3  C   UNL     1     -13.059  11.349  68.846  1.00  0.00     2.455 C  
HETATM    4  C   UNL     1     -11.290  11.171  70.688  1.00  0.00     0.142 C  
ENDROOT
BRANCH   4   5
HETATM    5  C   UNL     1     -10.153  11.309  69.685  1.00  0.00     0.359 C  
BRANCH   5   6
HETATM    6  C   UNL     1     -10.414  10.555  68.385  1.00  0.00    -0.212 C  
HETATM    7  C   UNL     1      -9.754   9.162  68.398  1.00  0.00    -0.166 C  
HETATM    8  C   UNL     1     -10.273   8.288  69.550  1.00  0.00    -0.210 C  
HETATM    9  C   UNL     1      -9.971   8.489  67.031  1.00  0.00    -0.318 C  
BRANCH   9  10
HETATM   10  C   UNL     1      -9.341   7.102  66.984  1.00  0.00    -0.181 C  
BRANCH  10  11
HETATM   11  C   UNL     1      -8.356   6.957  65.835  1.00  0.00    -0.137 C  
HETATM   12  C   UNL     1      -8.351   8.200  64.926  1.00  0.00    -0.133 C  
HETATM   13  C   UNL     1      -7.451   7.978  63.694  1.00  0.00    -0.118 C  
HETATM   14  C   UNL     1      -7.912   9.469  65.670  1.00  0.00    -0.108 C  
BRANCH  13  15
HETATM   15  C   UNL     1      -7.858   6.796  62.805  1.00  0.00    -0.107 C  
BRANCH  15  16
HETATM   16  C   UNL     1      -8.142   5.525  63.606  1.00  0.00    -0.121 C  
BRANCH  16  17
HETATM   17  C   UNL     1      -6.881   4.925  64.174  1.00  0.00    -0.048 C  
HETATM   18  C   UNL     1      -6.866   4.495  65.452  1.00  0.00    -0.057 C  
HETATM   19  C   UNL     1      -5.714   4.791  63.241  1.00  0.00    -0.017 C  
BRANCH  18  20
HETATM   20  C   UNL     1      -5.732   3.796  66.155  1.00  0.00    -0.018 C  
BRANCH  20  21
HETATM   21  C   UNL     1      -5.673   4.172  67.623  1.00  0.00    -0.022 C  
HETATM   22  C   UNL     1      -5.528   5.431  68.088  1.00  0.00    -0.011 C  
HETATM   23  C   UNL     1      -5.348   6.663  67.240  1.00  0.00    -0.009 C  
HETATM   24  C   UNL     1      -5.561   5.717  69.552  1.00  0.00    -0.008 C  
HETATM   25  O   UNL     1      -5.386   6.851  69.979  1.00  0.00    -0.018 OA 
HETATM   26  C   UNL     1      -5.831   4.608  70.479  1.00  0.00    -0.017 A  
HETATM   27  C   UNL     1      -5.950   3.310  70.005  1.00  0.00    -0.023 A  
HETATM   28  C   UNL     1      -5.807   3.027  68.570  1.00  0.00    -0.023 C  
HETATM   29  C   UNL     1      -6.198   2.259  70.897  1.00  0.00    -0.019 A  
HETATM   30  C   UNL     1      -6.333   2.515  72.263  1.00  0.00    -0.014 A  
HETATM   31  O   UNL     1      -5.812   1.864  68.182  1.00  0.00    -0.022 OA 
HETATM   32  C   UNL     1      -6.218   3.821  72.739  1.00  0.00    -0.012 A  
HETATM   33  C   UNL     1      -5.966   4.867  71.850  1.00  0.00    -0.017 A  
ENDBRANCH  20  21
ENDBRANCH  18  20
ENDBRANCH  16  17
ENDBRANCH  15  16
ENDBRANCH  13  15
ENDBRANCH  10  11
ENDBRANCH   9  10
ENDBRANCH   5   6
ENDBRANCH   4   5
TORSDOF 9
ENDMDL
MODEL      446
REMARK 921   NORMALIZED FREE ENERGY PREDICTED BY IDOCK:    4.68 KCAL/MOL
REMARK 922        TOTAL FREE ENERGY PREDICTED BY IDOCK:    3.94 KCAL/MOL
REMARK 923 INTER-LIGAND FREE ENERGY PREDICTED BY IDOCK:   -2.42 KCAL/MOL
REMARK 924 INTRA-LIGAND FREE ENERGY PREDICTED BY IDOCK:    6.36 KCAL/MOL
REMARK 927      BINDING AFFINITY PREDICTED BY RF-SCORE:    0.00 PKD
ROOT
HETATM    1  C   UNL     1     -10.502   9.965  70.641  1.00  0.00    -0.301 C  
HETATM    2  C   UNL     1      -9.052   9.919  70.164  1.00  0.00    -0.171 C  
HETATM    3  C   UNL     1      -8.494  11.343  70.063  1.00  0.00     1.945 C  
HETATM    4  C   UNL     1      -8.226   9.020  71.104  1.00  0.00    -0.198 C  
ENDROOT
BRANCH   4   5
HETATM    5  C   UNL     1      -6.769   8.932  70.667  1.00  0.00    -0.054 C  
BRANCH   5   6
HETATM    6  C   UNL     1      -6.095  10.298  70.574  1.00  0.00    -0.114 C  
HETATM    7  C   UNL     1      -6.011  10.788  69.116  1.00  0.00    -0.041 C  
HETATM    8  C   UNL     1      -7.399  10.915  68.468  1.00  0.00    -0.098 C  
HETATM    9  C   UNL     1      -5.242  12.120  69.076  1.00  0.00    -0.055 C  
BRANCH   9  10
HETATM   10  C   UNL     1      -5.127  12.658  67.654  1.00  0.00    -0.101 C  
BRANCH  10  11
HETATM   11  C   UNL     1      -6.428  12.519  66.880  1.00  0.00     0.262 C  
HETATM   12  C   UNL     1      -7.504  13.497  67.390  1.00  0.00    -0.136 C  
HETATM   13  C   UNL     1      -8.853  13.246  66.688  1.00  0.00    -0.072 C  
HETATM   14  C   UNL     1      -7.092  14.965  67.218  1.00  0.00    -0.103 C  
BRANCH  13  15
HETATM   15  C   UNL     1      -9.426  11.836  66.880  1.00  0.00    -0.200 C  
BRANCH  15  16
HETATM   16  C   UNL     1      -9.621  11.092  65.558  1.00  0.00    -0.263 C  
BRANCH  16  17
HETATM   17  C   UNL     1      -8.930   9.752  65.559  1.00  0.00    -0.214 C  
HETATM   18  C   UNL     1      -9.609   8.654  65.948  1.00  0.00    -0.210 C  
HETATM   19  C   UNL     1      -7.515   9.719  65.062  1.00  0.00    -0.127 C  
BRANCH  18  20
HETATM   20  C   UNL     1      -9.111   7.233  65.930  1.00  0.00    -0.064 C  
BRANCH  20  21
HETATM   21  C   UNL     1      -8.797   6.737  67.327  1.00  0.00    -0.118 C  
HETATM   22  C   UNL     1      -7.555   6.647  67.849  1.00  0.00    -0.107 C  
HETATM   23  C   UNL     1      -6.275   6.969  67.124  1.00  0.00    -0.044 C  
HETATM   24  C   UNL     1      -7.345   6.222  69.264  1.00  0.00    -0.092 C  
HETATM   25  O   UNL     1      -6.219   6.097  69.727  1.00  0.00    -0.025 OA 
HETATM   26  C   UNL     1      -8.526   5.975  70.105  1.00  0.00    -0.127 A  
HETATM   27  C   UNL     1      -9.801   6.038  69.563  1.00  0.00    -0.202 A  
HETATM   28  C   UNL     1      -9.988   6.351  68.139  1.00  0.00    -0.136 C  
HETATM   29  C   UNL     1     -10.918   5.792  70.371  1.00  0.00    -0.333 A  
HETATM   30  C   UNL     1     -10.753   5.492  71.724  1.00  0.00    -0.289 A  
HETATM   31  O   UNL     1     -11.112   6.301  67.654  1.00  0.00    -0.341 OA 
HETATM   32  C   UNL     1      -9.472   5.433  72.271  1.00  0.00    -0.165 A  
HETATM   33  C   UNL     1      -8.358   5.673  71.464  1.00  0.00    -0.127 A  
ENDBRANCH  20  21
ENDBRANCH  18  20
ENDBRANCH  16  17
ENDBRANCH  15  16
ENDBRANCH  13  15
ENDBRANCH  10  11
ENDBRANCH   9  10
ENDBRANCH   5   6
ENDBRANCH   4   5
TORSDOF 9
ENDMDL
MODEL      447
REMARK 921   NORMALIZED FREE ENERGY PREDICTED BY IDOCK:    5.27 KCAL/MOL
REMARK 922        TOTAL FREE ENERGY PREDICTED BY IDOCK:    4.83 KCAL/MOL
REMARK 923 INTER-LIGAND FREE ENERGY PREDICTED BY IDOCK:    0.56 KCAL/MOL
REMARK 924 INTRA-LIGAND FREE ENERGY PREDICTED BY IDOCK:    4.27 KCAL/MOL
REMARK 927      BINDING AFFINITY PREDICTED BY RF-SCORE:    0.00 PKD
ROOT
HETATM    1  C   UNL     1     -11.743  20.979  67.676  1.00  0.00     4.696 C  
HETATM    2  C   UNL     1     -10.965  19.863  66.982  1.00  0.00    -0.231 C  
HETATM    3  C   UNL     1      -9.612  20.396  66.499  1.00  0.00    -0.431 C  
HETATM    4  C   UNL     1     -10.827  18.658  67.933  1.00  0.00    -0.253 C  
ENDROOT
BRANCH   4   5
HETATM    5  C   UNL     1     -10.065  17.510  67.285  1.00  0.00    -0.327 C  
BRANCH   5   6
HETATM    6  C   UNL     1      -9.783  16.365  68.252  1.00  0.00    -0.224 C  
HETATM    7  C   UNL     1      -8.969  15.244  67.578  1.00  0.00    -0.192 C  
HETATM    8  C   UNL     1      -7.615  15.748  67.054  1.00  0.00    -0.257 C  
HETATM    9  C   UNL     1      -8.797  14.081  68.571  1.00  0.00    -0.160 C  
BRANCH   9  10
HETATM   10  C   UNL     1      -7.994  12.937  67.959  1.00  0.00    -0.158 C  
BRANCH  10  11
HETATM   11  C   UNL     1      -8.536  12.515  66.603  1.00  0.00    -0.006 C  
HETATM   12  C   UNL     1     -10.071  12.395  66.613  1.00  0.00    -0.234 C  
HETATM   13  C   UNL     1     -10.589  11.834  65.275  1.00  0.00    -0.327 C  
HETATM   14  C   UNL     1     -10.761  13.731  66.920  1.00  0.00    -0.280 C  
BRANCH  13  15
HETATM   15  C   UNL     1     -10.051  10.445  64.908  1.00  0.00    -0.382 C  
BRANCH  15  16
HETATM   16  C   UNL     1      -8.536  10.332  65.084  1.00  0.00    -0.173 C  
BRANCH  16  17
HETATM   17  C   UNL     1      -8.102   8.910  65.335  1.00  0.00    -0.119 C  
HETATM   18  C   UNL     1      -8.272   7.983  64.371  1.00  0.00    -0.085 C  
HETATM   19  C   UNL     1      -7.443   8.625  66.652  1.00  0.00    -0.089 C  
BRANCH  18  20
HETATM   20  C   UNL     1      -7.823   6.546  64.413  1.00  0.00    -0.115 C  
BRANCH  20  21
HETATM   21  C   UNL     1      -7.848   5.998  65.826  1.00  0.00    -0.104 C  
HETATM   22  C   UNL     1      -6.758   5.833  66.605  1.00  0.00    -0.058 C  
HETATM   23  C   UNL     1      -5.337   6.112  66.193  1.00  0.00    -0.013 C  
HETATM   24  C   UNL     1      -6.886   5.360  68.015  1.00  0.00    -0.060 C  
HETATM   25  O   UNL     1      -5.897   5.167  68.709  1.00  0.00    -0.018 OA 
HETATM   26  C   UNL     1      -8.233   5.149  68.565  1.00  0.00    -0.089 A  
HETATM   27  C   UNL     1      -9.352   5.289  67.757  1.00  0.00    -0.130 A  
HETATM   28  C   UNL     1      -9.205   5.649  66.340  1.00  0.00    -0.152 C  
HETATM   29  C   UNL     1     -10.630   5.076  68.289  1.00  0.00     0.095 A  
HETATM   30  C   UNL     1     -10.782   4.731  69.634  1.00  0.00     0.612 A  
HETATM   31  O   UNL     1     -10.195   5.667  65.617  1.00  0.00     0.172 OA 
HETATM   32  C   UNL     1      -9.658   4.595  70.447  1.00  0.00    -0.271 A  
HETATM   33  C   UNL     1      -8.384   4.802  69.915  1.00  0.00    -0.072 A  
ENDBRANCH  20  21
ENDBRANCH  18  20
ENDBRANCH  16  17
ENDBRANCH  15  16
ENDBRANCH  13  15
ENDBRANCH  10  11
ENDBRANCH   9  10
ENDBRANCH   5   6
ENDBRANCH   4   5
TORSDOF 9
ENDMDL
MODEL      448
REMARK 921   NORMALIZED FREE ENERGY PREDICTED BY IDOCK:    7.02 KCAL/MOL
REMARK 922        TOTAL FREE ENERGY PREDICTED BY IDOCK:    7.51 KCAL/MOL
REMARK 923 INTER-LIGAND FREE ENERGY PREDICTED BY IDOCK:    8.96 KCAL/MOL
REMARK 924 INTRA-LIGAND FREE ENERGY PREDICTED BY IDOCK:   -1.44 KCAL/MOL
REMARK 927      BINDING AFFINITY PREDICTED BY RF-SCORE:    0.00 PKD
ROOT
HETATM    1  C   UNL     1     -11.381  17.016  65.746  1.00  0.00     0.768 C  
HETATM    2  C   UNL     1     -10.838  15.607  65.518  1.00  0.00    -0.356 C  
HETATM    3  C   UNL     1     -10.705  14.879  66.860  1.00  0.00    -0.308 C  
HETATM    4  C   UNL     1     -11.740  14.858  64.519  1.00  0.00    -0.388 C  
ENDROOT
BRANCH   4   5
HETATM    5  C   UNL     1     -11.236  13.447  64.249  1.00  0.00    -0.406 C  
BRANCH   5   6
HETATM    6  C   UNL     1     -12.007  12.384  65.024  1.00  0.00    -0.458 C  
HETATM    7  C   UNL     1     -11.119  11.166  65.348  1.00  0.00    -0.074 C  
HETATM    8  C   UNL     1      -9.894  11.553  66.191  1.00  0.00    -0.250 C  
HETATM    9  C   UNL     1     -11.972  10.092  66.045  1.00  0.00     4.177 C  
BRANCH   9  10
HETATM   10  C   UNL     1     -11.145   8.860  66.394  1.00  0.00     1.316 C  
BRANCH  10  11
HETATM   11  C   UNL     1     -10.652   8.129  65.156  1.00  0.00     4.756 C  
HETATM   12  C   UNL     1      -9.171   7.725  65.283  1.00  0.00     0.424 C  
HETATM   13  C   UNL     1      -8.653   7.111  63.968  1.00  0.00     0.471 C  
HETATM   14  C   UNL     1      -8.925   6.753  66.444  1.00  0.00    -0.165 C  
BRANCH  13  15
HETATM   15  C   UNL     1      -8.745   8.034  62.746  1.00  0.00     0.278 C  
BRANCH  15  16
HETATM   16  C   UNL     1      -7.832   9.256  62.859  1.00  0.00    -0.129 C  
BRANCH  16  17
HETATM   17  C   UNL     1      -6.507   8.913  63.490  1.00  0.00    -0.089 C  
HETATM   18  C   UNL     1      -6.414   8.815  64.831  1.00  0.00    -0.065 C  
HETATM   19  C   UNL     1      -5.363   8.642  62.558  1.00  0.00    -0.071 C  
BRANCH  18  20
HETATM   20  C   UNL     1      -5.202   8.399  65.624  1.00  0.00    -0.031 C  
BRANCH  20  21
HETATM   21  C   UNL     1      -5.556   7.372  66.681  1.00  0.00    -0.024 C  
HETATM   22  C   UNL     1      -5.812   7.660  67.975  1.00  0.00    -0.039 C  
HETATM   23  C   UNL     1      -5.741   9.028  68.599  1.00  0.00    -0.041 C  
HETATM   24  C   UNL     1      -6.230   6.592  68.930  1.00  0.00    -0.030 C  
HETATM   25  O   UNL     1      -6.421   6.841  70.113  1.00  0.00    -0.038 OA 
HETATM   26  C   UNL     1      -6.432   5.229  68.416  1.00  0.00    -0.040 A  
HETATM   27  C   UNL     1      -6.140   4.927  67.094  1.00  0.00    -0.031 A  
HETATM   28  C   UNL     1      -5.624   5.964  66.191  1.00  0.00    -0.013 C  
HETATM   29  C   UNL     1      -6.327   3.623  66.617  1.00  0.00    -0.036 A  
HETATM   30  C   UNL     1      -6.815   2.628  67.467  1.00  0.00    -0.044 A  
HETATM   31  O   UNL     1      -5.275   5.657  65.057  1.00  0.00    -0.009 OA 
HETATM   32  C   UNL     1      -7.112   2.933  68.794  1.00  0.00    -0.048 A  
HETATM   33  C   UNL     1      -6.921   4.231  69.271  1.00  0.00    -0.050 A  
ENDBRANCH  20  21
ENDBRANCH  18  20
ENDBRANCH  16  17
ENDBRANCH  15  16
ENDBRANCH  13  15
ENDBRANCH  10  11
ENDBRANCH   9  10
ENDBRANCH   5   6
ENDBRANCH   4   5
TORSDOF 9
ENDMDL
MODEL      449
REMARK 921   NORMALIZED FREE ENERGY PREDICTED BY IDOCK:    7.26 KCAL/MOL
REMARK 922        TOTAL FREE ENERGY PREDICTED BY IDOCK:    7.88 KCAL/MOL
REMARK 923 INTER-LIGAND FREE ENERGY PREDICTED BY IDOCK:   -1.23 KCAL/MOL
REMARK 924 INTRA-LIGAND FREE ENERGY PREDICTED BY IDOCK:    9.12 KCAL/MOL
REMARK 927      BINDING AFFINITY PREDICTED BY RF-SCORE:    0.00 PKD
ROOT
HETATM    1  C   UNL     1     -10.515   9.975  70.645  1.00  0.00    -0.211 C  
HETATM    2  C   UNL     1      -9.077   9.887  70.137  1.00  0.00    -0.171 C  
HETATM    3  C   UNL     1      -8.467  11.290  70.061  1.00  0.00     1.714 C  
HETATM    4  C   UNL     1      -8.268   8.931  71.035  1.00  0.00    -0.217 C  
ENDROOT
BRANCH   4   5
HETATM    5  C   UNL     1      -6.825   8.800  70.566  1.00  0.00    -0.046 C  
BRANCH   5   6
HETATM    6  C   UNL     1      -6.097  10.139  70.507  1.00  0.00    -0.108 C  
HETATM    7  C   UNL     1      -6.085  10.714  69.078  1.00  0.00    -0.041 C  
HETATM    8  C   UNL     1      -7.505  10.938  68.535  1.00  0.00    -0.103 C  
HETATM    9  C   UNL     1      -5.260  12.012  69.064  1.00  0.00    -0.054 C  
BRANCH   9  10
HETATM   10  C   UNL     1      -5.214  12.631  67.671  1.00  0.00    -0.110 C  
BRANCH  10  11
HETATM   11  C   UNL     1      -6.577  12.634  66.998  1.00  0.00     0.139 C  
HETATM   12  C   UNL     1      -7.610  13.444  67.803  1.00  0.00    -0.157 C  
HETATM   13  C   UNL     1      -9.014  13.321  67.179  1.00  0.00    -0.229 C  
HETATM   14  C   UNL     1      -7.225  14.924  67.931  1.00  0.00    -0.166 C  
BRANCH  13  15
HETATM   15  C   UNL     1      -9.557  11.889  67.096  1.00  0.00    -0.192 C  
BRANCH  15  16
HETATM   16  C   UNL     1      -9.732  11.405  65.656  1.00  0.00    -0.263 C  
BRANCH  16  17
HETATM   17  C   UNL     1      -9.087  10.061  65.431  1.00  0.00    -0.235 C  
HETATM   18  C   UNL     1      -9.832   8.942  65.527  1.00  0.00     0.142 C  
HETATM   19  C   UNL     1      -7.636  10.061  65.052  1.00  0.00    -0.139 C  
BRANCH  18  20
HETATM   20  C   UNL     1      -9.379   7.531  65.252  1.00  0.00     0.690 C  
BRANCH  20  21
HETATM   21  C   UNL     1      -9.292   6.718  66.529  1.00  0.00    -0.197 C  
HETATM   22  C   UNL     1     -10.029   6.946  67.636  1.00  0.00    -0.180 C  
HETATM   23  C   UNL     1     -11.019   8.066  67.815  1.00  0.00     0.061 C  
HETATM   24  C   UNL     1      -9.933   6.044  68.822  1.00  0.00    -0.150 C  
HETATM   25  O   UNL     1     -10.567   6.272  69.843  1.00  0.00    -0.204 OA 
HETATM   26  C   UNL     1      -9.073   4.855  68.731  1.00  0.00    -0.147 A  
HETATM   27  C   UNL     1      -8.292   4.636  67.606  1.00  0.00    -0.103 A  
HETATM   28  C   UNL     1      -8.313   5.592  66.490  1.00  0.00    -0.109 C  
HETATM   29  C   UNL     1      -7.469   3.505  67.534  1.00  0.00    -0.066 A  
HETATM   30  C   UNL     1      -7.438   2.591  68.589  1.00  0.00    -0.047 A  
HETATM   31  O   UNL     1      -7.542   5.438  65.550  1.00  0.00    -0.079 OA 
HETATM   32  C   UNL     1      -8.226   2.808  69.719  1.00  0.00    -0.064 A  
HETATM   33  C   UNL     1      -9.043   3.938  69.792  1.00  0.00    -0.188 A  
ENDBRANCH  20  21
ENDBRANCH  18  20
ENDBRANCH  16  17
ENDBRANCH  15  16
ENDBRANCH  13  15
ENDBRANCH  10  11
ENDBRANCH   9  10
ENDBRANCH   5   6
ENDBRANCH   4   5
TORSDOF 9
ENDMDL
MODEL      450
REMARK 921   NORMALIZED FREE ENERGY PREDICTED BY IDOCK:    7.42 KCAL/MOL
REMARK 922        TOTAL FREE ENERGY PREDICTED BY IDOCK:    8.13 KCAL/MOL
REMARK 923 INTER-LIGAND FREE ENERGY PREDICTED BY IDOCK:    9.06 KCAL/MOL
REMARK 924 INTRA-LIGAND FREE ENERGY PREDICTED BY IDOCK:   -0.94 KCAL/MOL
REMARK 927      BINDING AFFINITY PREDICTED BY RF-SCORE:    0.00 PKD
ROOT
HETATM    1  C   UNL     1     -11.381  17.016  65.746  1.00  0.00     0.768 C  
HETATM    2  C   UNL     1     -10.838  15.607  65.518  1.00  0.00    -0.356 C  
HETATM    3  C   UNL     1     -10.705  14.879  66.860  1.00  0.00    -0.308 C  
HETATM    4  C   UNL     1     -11.740  14.858  64.519  1.00  0.00    -0.388 C  
ENDROOT
BRANCH   4   5
HETATM    5  C   UNL     1     -11.236  13.447  64.249  1.00  0.00    -0.406 C  
BRANCH   5   6
HETATM    6  C   UNL     1     -12.007  12.384  65.024  1.00  0.00    -0.458 C  
HETATM    7  C   UNL     1     -11.119  11.166  65.348  1.00  0.00    -0.074 C  
HETATM    8  C   UNL     1      -9.894  11.553  66.191  1.00  0.00    -0.250 C  
HETATM    9  C   UNL     1     -11.972  10.092  66.045  1.00  0.00     4.177 C  
BRANCH   9  10
HETATM   10  C   UNL     1     -11.145   8.860  66.394  1.00  0.00     1.316 C  
BRANCH  10  11
HETATM   11  C   UNL     1     -10.652   8.129  65.156  1.00  0.00     4.756 C  
HETATM   12  C   UNL     1      -9.171   7.725  65.283  1.00  0.00     0.424 C  
HETATM   13  C   UNL     1      -8.653   7.111  63.968  1.00  0.00     0.471 C  
HETATM   14  C   UNL     1      -8.925   6.753  66.444  1.00  0.00    -0.165 C  
BRANCH  13  15
HETATM   15  C   UNL     1      -8.745   8.034  62.746  1.00  0.00     0.278 C  
BRANCH  15  16
HETATM   16  C   UNL     1      -7.832   9.256  62.859  1.00  0.00    -0.129 C  
BRANCH  16  17
HETATM   17  C   UNL     1      -6.507   8.913  63.490  1.00  0.00    -0.089 C  
HETATM   18  C   UNL     1      -6.414   8.815  64.831  1.00  0.00    -0.065 C  
HETATM   19  C   UNL     1      -5.363   8.642  62.558  1.00  0.00    -0.071 C  
BRANCH  18  20
HETATM   20  C   UNL     1      -5.202   8.399  65.624  1.00  0.00    -0.031 C  
BRANCH  20  21
HETATM   21  C   UNL     1      -5.556   7.372  66.681  1.00  0.00    -0.024 C  
HETATM   22  C   UNL     1      -5.874   6.085  66.426  1.00  0.00    -0.020 C  
HETATM   23  C   UNL     1      -5.982   5.465  65.058  1.00  0.00    -0.022 C  
HETATM   24  C   UNL     1      -6.131   5.123  67.537  1.00  0.00    -0.030 C  
HETATM   25  O   UNL     1      -6.462   3.967  67.308  1.00  0.00    -0.039 OA 
HETATM   26  C   UNL     1      -5.957   5.586  68.921  1.00  0.00    -0.024 A  
HETATM   27  C   UNL     1      -5.660   6.915  69.186  1.00  0.00    -0.018 A  
HETATM   28  C   UNL     1      -5.517   7.878  68.085  1.00  0.00    -0.033 C  
HETATM   29  C   UNL     1      -5.506   7.348  70.509  1.00  0.00    -0.024 A  
HETATM   30  C   UNL     1      -5.642   6.443  71.564  1.00  0.00    -0.027 A  
HETATM   31  O   UNL     1      -5.357   9.066  68.340  1.00  0.00    -0.037 OA 
HETATM   32  C   UNL     1      -5.936   5.106  71.298  1.00  0.00    -0.021 A  
HETATM   33  C   UNL     1      -6.095   4.676  69.979  1.00  0.00    -0.018 A  
ENDBRANCH  20  21
ENDBRANCH  18  20
ENDBRANCH  16  17
ENDBRANCH  15  16
ENDBRANCH  13  15
ENDBRANCH  10  11
ENDBRANCH   9  10
ENDBRANCH   5   6
ENDBRANCH   4   5
TORSDOF 9
ENDMDL
MODEL      451
REMARK 921   NORMALIZED FREE ENERGY PREDICTED BY IDOCK:    7.96 KCAL/MOL
REMARK 922        TOTAL FREE ENERGY PREDICTED BY IDOCK:    8.95 KCAL/MOL
REMARK 923 INTER-LIGAND FREE ENERGY PREDICTED BY IDOCK:    6.54 KCAL/MOL
REMARK 924 INTRA-LIGAND FREE ENERGY PREDICTED BY IDOCK:    2.41 KCAL/MOL
REMARK 927      BINDING AFFINITY PREDICTED BY RF-SCORE:    0.00 PKD
ROOT
HETATM    1  C   UNL     1      -7.522  15.283  67.232  1.00  0.00    -0.236 C  
HETATM    2  C   UNL     1      -6.793  14.102  66.595  1.00  0.00     2.073 C  
HETATM    3  C   UNL     1      -5.503  13.809  67.369  1.00  0.00     0.289 C  
HETATM    4  C   UNL     1      -7.736  12.886  66.525  1.00  0.00     0.767 C  
ENDROOT
BRANCH   4   5
HETATM    5  C   UNL     1      -7.060  11.680  65.888  1.00  0.00     0.670 C  
BRANCH   5   6
HETATM    6  C   UNL     1      -7.326  10.382  66.644  1.00  0.00    -0.114 C  
HETATM    7  C   UNL     1      -8.749  10.355  67.235  1.00  0.00    -0.125 C  
HETATM    8  C   UNL     1      -9.828  10.486  66.149  1.00  0.00    -0.271 C  
HETATM    9  C   UNL     1      -8.927   9.069  68.061  1.00  0.00    -0.133 C  
BRANCH   9  10
HETATM   10  C   UNL     1     -10.321   8.984  68.672  1.00  0.00    -0.233 C  
BRANCH  10  11
HETATM   11  C   UNL     1     -10.332   8.201  69.975  1.00  0.00    -0.215 C  
HETATM   12  C   UNL     1     -11.011   6.828  69.811  1.00  0.00    -0.345 C  
HETATM   13  C   UNL     1     -11.135   6.110  71.168  1.00  0.00    -0.360 C  
HETATM   14  C   UNL     1     -10.277   5.927  68.809  1.00  0.00    -0.243 C  
BRANCH  13  15
HETATM   15  C   UNL     1     -11.946   6.868  72.226  1.00  0.00    -0.244 C  
BRANCH  15  16
HETATM   16  C   UNL     1     -13.377   7.163  71.774  1.00  0.00    -0.347 C  
BRANCH  16  17
HETATM   17  C   UNL     1     -13.645   8.644  71.684  1.00  0.00    -0.408 C  
HETATM   18  C   UNL     1     -13.517   9.411  72.785  1.00  0.00    -0.164 C  
HETATM   19  C   UNL     1     -13.991   9.189  70.330  1.00  0.00     0.993 C  
BRANCH  18  20
HETATM   20  C   UNL     1     -13.659  10.909  72.862  1.00  0.00     1.812 C  
BRANCH  20  21
HETATM   21  C   UNL     1     -12.662  11.608  71.959  1.00  0.00    -0.095 C  
HETATM   22  C   UNL     1     -11.509  11.061  71.519  1.00  0.00     1.317 C  
HETATM   23  C   UNL     1     -10.991   9.695  71.887  1.00  0.00     0.241 C  
HETATM   24  C   UNL     1     -10.624  11.795  70.567  1.00  0.00     2.379 C  
HETATM   25  O   UNL     1      -9.558  11.320  70.201  1.00  0.00     1.246 OA 
HETATM   26  C   UNL     1     -11.072  13.099  70.056  1.00  0.00     0.345 A  
HETATM   27  C   UNL     1     -12.241  13.675  70.529  1.00  0.00    -0.438 A  
HETATM   28  C   UNL     1     -13.047  12.991  71.550  1.00  0.00    -0.310 C  
HETATM   29  C   UNL     1     -12.653  14.922  70.043  1.00  0.00    -0.260 A  
HETATM   30  C   UNL     1     -11.895  15.584  69.075  1.00  0.00    -0.373 A  
HETATM   31  O   UNL     1     -14.020  13.560  72.031  1.00  0.00    -0.444 OA 
HETATM   32  C   UNL     1     -10.722  15.002  68.595  1.00  0.00    -0.244 A  
HETATM   33  C   UNL     1     -10.308  13.762  69.084  1.00  0.00     0.010 A  
ENDBRANCH  20  21
ENDBRANCH  18  20
ENDBRANCH  16  17
ENDBRANCH  15  16
ENDBRANCH  13  15
ENDBRANCH  10  11
ENDBRANCH   9  10
ENDBRANCH   5   6
ENDBRANCH   4   5
TORSDOF 9
ENDMDL
MODEL      452
REMARK 921   NORMALIZED FREE ENERGY PREDICTED BY IDOCK:    8.08 KCAL/MOL
REMARK 922        TOTAL FREE ENERGY PREDICTED BY IDOCK:    9.13 KCAL/MOL
REMARK 923 INTER-LIGAND FREE ENERGY PREDICTED BY IDOCK:    5.43 KCAL/MOL
REMARK 924 INTRA-LIGAND FREE ENERGY PREDICTED BY IDOCK:    3.70 KCAL/MOL
REMARK 927      BINDING AFFINITY PREDICTED BY RF-SCORE:    0.00 PKD
ROOT
HETATM    1  C   UNL     1     -11.625  16.618  70.027  1.00  0.00     0.387 C  
HETATM    2  C   UNL     1     -11.177  17.862  69.264  1.00  0.00     1.553 C  
HETATM    3  C   UNL     1     -11.971  17.985  67.959  1.00  0.00     2.647 C  
HETATM    4  C   UNL     1     -11.317  19.103  70.167  1.00  0.00     4.626 C  
ENDROOT
BRANCH   4   5
HETATM    5  C   UNL     1     -10.873  20.374  69.455  1.00  0.00     0.871 C  
BRANCH   5   6
HETATM    6  C   UNL     1     -10.784  20.205  67.941  1.00  0.00    -0.191 C  
HETATM    7  C   UNL     1      -9.382  19.737  67.506  1.00  0.00    -0.443 C  
HETATM    8  C   UNL     1      -8.999  18.393  68.143  1.00  0.00    -0.325 C  
HETATM    9  C   UNL     1      -9.326  19.676  65.970  1.00  0.00    -0.331 C  
BRANCH   9  10
HETATM   10  C   UNL     1      -7.958  19.216  65.478  1.00  0.00     0.419 C  
BRANCH  10  11
HETATM   11  C   UNL     1      -7.165  18.504  66.563  1.00  0.00    -0.254 C  
HETATM   12  C   UNL     1      -6.185  17.474  65.973  1.00  0.00    -0.199 C  
HETATM   13  C   UNL     1      -5.494  16.668  67.090  1.00  0.00    -0.170 C  
HETATM   14  C   UNL     1      -5.129  18.120  65.067  1.00  0.00    -0.120 C  
BRANCH  13  15
HETATM   15  C   UNL     1      -6.446  15.884  68.002  1.00  0.00    -0.146 C  
BRANCH  15  16
HETATM   16  C   UNL     1      -6.973  14.606  67.348  1.00  0.00    -0.123 C  
BRANCH  16  17
HETATM   17  C   UNL     1      -8.450  14.420  67.584  1.00  0.00    -0.191 C  
HETATM   18  C   UNL     1      -9.204  13.820  66.642  1.00  0.00    -0.238 C  
HETATM   19  C   UNL     1      -8.987  14.878  68.908  1.00  0.00    -0.184 C  
BRANCH  18  20
HETATM   20  C   UNL     1     -10.667  13.475  66.743  1.00  0.00    -0.278 C  
BRANCH  20  21
HETATM   21  C   UNL     1     -10.921  12.445  67.826  1.00  0.00    -0.267 C  
HETATM   22  C   UNL     1     -10.186  11.327  68.010  1.00  0.00    -0.201 C  
HETATM   23  C   UNL     1      -9.032  10.886  67.151  1.00  0.00    -0.141 C  
HETATM   24  C   UNL     1     -10.461  10.408  69.154  1.00  0.00    -0.227 C  
HETATM   25  O   UNL     1      -9.826   9.372  69.299  1.00  0.00    -0.163 OA 
HETATM   26  C   UNL     1     -11.501  10.784  70.123  1.00  0.00    -0.415 A  
HETATM   27  C   UNL     1     -12.276  11.916  69.918  1.00  0.00    -0.269 A  
HETATM   28  C   UNL     1     -12.069  12.753  68.728  1.00  0.00    -0.128 C  
HETATM   29  C   UNL     1     -13.271  12.259  70.842  1.00  0.00     0.271 A  
HETATM   30  C   UNL     1     -13.480  11.470  71.975  1.00  0.00    -0.298 A  
HETATM   31  O   UNL     1     -12.829  13.689  68.511  1.00  0.00     0.691 OA 
HETATM   32  C   UNL     1     -12.697  10.335  72.183  1.00  0.00    -0.277 A  
HETATM   33  C   UNL     1     -11.709   9.990  71.260  1.00  0.00    -0.452 A  
ENDBRANCH  20  21
ENDBRANCH  18  20
ENDBRANCH  16  17
ENDBRANCH  15  16
ENDBRANCH  13  15
ENDBRANCH  10  11
ENDBRANCH   9  10
ENDBRANCH   5   6
ENDBRANCH   4   5
TORSDOF 9
ENDMDL
MODEL      453
REMARK 921   NORMALIZED FREE ENERGY PREDICTED BY IDOCK:    8.66 KCAL/MOL
REMARK 922        TOTAL FREE ENERGY PREDICTED BY IDOCK:   10.01 KCAL/MOL
REMARK 923 INTER-LIGAND FREE ENERGY PREDICTED BY IDOCK:   -0.23 KCAL/MOL
REMARK 924 INTRA-LIGAND FREE ENERGY PREDICTED BY IDOCK:   10.24 KCAL/MOL
REMARK 927      BINDING AFFINITY PREDICTED BY RF-SCORE:    0.00 PKD
ROOT
HETATM    1  C   UNL     1     -10.415  10.246  70.590  1.00  0.00     0.066 C  
HETATM    2  C   UNL     1      -8.932  10.170  70.235  1.00  0.00     0.219 C  
HETATM    3  C   UNL     1      -8.400  11.573  69.924  1.00  0.00     1.657 C  
HETATM    4  C   UNL     1      -8.161   9.479  71.376  1.00  0.00     0.539 C  
ENDROOT
BRANCH   4   5
HETATM    5  C   UNL     1      -6.674   9.369  71.068  1.00  0.00    -0.078 C  
BRANCH   5   6
HETATM    6  C   UNL     1      -6.009  10.726  70.860  1.00  0.00     0.017 C  
HETATM    7  C   UNL     1      -5.971  11.114  69.369  1.00  0.00    -0.057 C  
HETATM    8  C   UNL     1      -7.377  11.191  68.757  1.00  0.00    -0.114 C  
HETATM    9  C   UNL     1      -5.209  12.442  69.214  1.00  0.00    -0.068 C  
BRANCH   9  10
HETATM   10  C   UNL     1      -5.139  12.880  67.755  1.00  0.00    -0.103 C  
BRANCH  10  11
HETATM   11  C   UNL     1      -6.487  12.776  67.058  1.00  0.00     0.256 C  
HETATM   12  C   UNL     1      -7.444  13.901  67.493  1.00  0.00    -0.184 C  
HETATM   13  C   UNL     1      -8.845  13.699  66.884  1.00  0.00    -0.201 C  
HETATM   14  C   UNL     1      -6.914  15.295  67.131  1.00  0.00    -0.037 C  
BRANCH  13  15
HETATM   15  C   UNL     1      -9.528  12.380  67.265  1.00  0.00    -0.191 C  
BRANCH  15  16
HETATM   16  C   UNL     1      -9.694  11.434  66.075  1.00  0.00    -0.253 C  
BRANCH  16  17
HETATM   17  C   UNL     1      -9.532   9.990  66.477  1.00  0.00    -0.222 C  
HETATM   18  C   UNL     1      -8.295   9.464  66.582  1.00  0.00    -0.119 C  
HETATM   19  C   UNL     1     -10.785   9.230  66.794  1.00  0.00    -0.120 C  
BRANCH  18  20
HETATM   20  C   UNL     1      -7.942   8.077  67.051  1.00  0.00    -0.108 C  
BRANCH  20  21
HETATM   21  C   UNL     1      -7.892   7.097  65.896  1.00  0.00    -0.106 C  
HETATM   22  C   UNL     1      -7.794   7.446  64.596  1.00  0.00    -0.123 C  
HETATM   23  C   UNL     1      -7.770   8.856  64.068  1.00  0.00    -0.128 C  
HETATM   24  C   UNL     1      -7.671   6.410  63.529  1.00  0.00    -0.106 C  
HETATM   25  O   UNL     1      -7.627   6.722  62.346  1.00  0.00    -0.076 OA 
HETATM   26  C   UNL     1      -7.583   4.998  63.929  1.00  0.00    -0.067 A  
HETATM   27  C   UNL     1      -7.713   4.635  65.261  1.00  0.00    -0.086 A  
HETATM   28  C   UNL     1      -7.944   5.658  66.290  1.00  0.00    -0.102 C  
HETATM   29  C   UNL     1      -7.636   3.286  65.630  1.00  0.00    -0.077 A  
HETATM   30  C   UNL     1      -7.420   2.305  64.660  1.00  0.00    -0.063 A  
HETATM   31  O   UNL     1      -8.159   5.312  67.446  1.00  0.00    -0.100 OA 
HETATM   32  C   UNL     1      -7.284   2.669  63.321  1.00  0.00    -0.048 A  
HETATM   33  C   UNL     1      -7.366   4.014  62.954  1.00  0.00    -0.049 A  
ENDBRANCH  20  21
ENDBRANCH  18  20
ENDBRANCH  16  17
ENDBRANCH  15  16
ENDBRANCH  13  15
ENDBRANCH  10  11
ENDBRANCH   9  10
ENDBRANCH   5   6
ENDBRANCH   4   5
TORSDOF 9
ENDMDL
MODEL      454
REMARK 921   NORMALIZED FREE ENERGY PREDICTED BY IDOCK:    8.74 KCAL/MOL
REMARK 922        TOTAL FREE ENERGY PREDICTED BY IDOCK:   10.14 KCAL/MOL
REMARK 923 INTER-LIGAND FREE ENERGY PREDICTED BY IDOCK:    6.18 KCAL/MOL
REMARK 924 INTRA-LIGAND FREE ENERGY PREDICTED BY IDOCK:    3.96 KCAL/MOL
REMARK 927      BINDING AFFINITY PREDICTED BY RF-SCORE:    0.00 PKD
ROOT
HETATM    1  C   UNL     1     -10.822  19.048  68.356  1.00  0.00     0.219 C  
HETATM    2  C   UNL     1     -10.287  17.935  69.253  1.00  0.00    -0.001 C  
HETATM    3  C   UNL     1     -11.346  17.552  70.292  1.00  0.00     1.996 C  
HETATM    4  C   UNL     1      -9.839  16.741  68.388  1.00  0.00    -0.253 C  
ENDROOT
BRANCH   4   5
HETATM    5  C   UNL     1      -9.287  15.603  69.237  1.00  0.00    -0.267 C  
BRANCH   5   6
HETATM    6  C   UNL     1      -9.240  14.275  68.488  1.00  0.00    -0.197 C  
HETATM    7  C   UNL     1      -9.146  13.082  69.460  1.00  0.00     1.564 C  
HETATM    8  C   UNL     1     -10.341  13.027  70.423  1.00  0.00     3.036 C  
HETATM    9  C   UNL     1      -9.007  11.782  68.649  1.00  0.00    -0.069 C  
BRANCH   9  10
HETATM   10  C   UNL     1      -8.911  10.562  69.559  1.00  0.00    -0.054 C  
BRANCH  10  11
HETATM   11  C   UNL     1      -7.476  10.245  69.947  1.00  0.00    -0.165 C  
HETATM   12  C   UNL     1      -6.586  10.019  68.711  1.00  0.00    -0.049 C  
HETATM   13  C   UNL     1      -5.173   9.565  69.125  1.00  0.00    -0.036 C  
HETATM   14  C   UNL     1      -6.492  11.265  67.820  1.00  0.00    -0.060 C  
BRANCH  13  15
HETATM   15  C   UNL     1      -5.127   8.262  69.933  1.00  0.00    -0.023 C  
BRANCH  15  16
HETATM   16  C   UNL     1      -5.616   8.441  71.371  1.00  0.00    -0.035 C  
BRANCH  16  17
HETATM   17  C   UNL     1      -6.925   7.732  71.613  1.00  0.00    -0.063 C  
HETATM   18  C   UNL     1      -7.011   6.810  72.593  1.00  0.00    -0.071 C  
HETATM   19  C   UNL     1      -8.088   8.149  70.763  1.00  0.00    -0.102 C  
BRANCH  18  20
HETATM   20  C   UNL     1      -8.249   6.072  73.030  1.00  0.00    -0.116 C  
BRANCH  20  21
HETATM   21  C   UNL     1      -8.914   5.366  71.865  1.00  0.00    -0.144 C  
HETATM   22  C   UNL     1     -10.026   5.804  71.236  1.00  0.00    -0.241 C  
HETATM   23  C   UNL     1     -10.821   7.026  71.611  1.00  0.00    -0.249 C  
HETATM   24  C   UNL     1     -10.568   5.085  70.045  1.00  0.00    -0.030 C  
HETATM   25  O   UNL     1     -11.600   5.453  69.500  1.00  0.00     0.951 OA 
HETATM   26  C   UNL     1      -9.821   3.932  69.522  1.00  0.00    -0.080 A  
HETATM   27  C   UNL     1      -8.696   3.464  70.184  1.00  0.00    -0.123 A  
HETATM   28  C   UNL     1      -8.237   4.114  71.419  1.00  0.00    -0.078 C  
HETATM   29  C   UNL     1      -7.998   2.358  69.682  1.00  0.00    -0.053 A  
HETATM   30  C   UNL     1      -8.427   1.730  68.511  1.00  0.00    -0.084 A  
HETATM   31  O   UNL     1      -7.304   3.625  72.046  1.00  0.00    -0.052 OA 
HETATM   32  C   UNL     1      -9.555   2.203  67.842  1.00  0.00    -0.058 A  
HETATM   33  C   UNL     1     -10.254   3.302  68.346  1.00  0.00     1.162 A  
ENDBRANCH  20  21
ENDBRANCH  18  20
ENDBRANCH  16  17
ENDBRANCH  15  16
ENDBRANCH  13  15
ENDBRANCH  10  11
ENDBRANCH   9  10
ENDBRANCH   5   6
ENDBRANCH   4   5
TORSDOF 9
ENDMDL
MODEL      455
REMARK 921   NORMALIZED FREE ENERGY PREDICTED BY IDOCK:    8.94 KCAL/MOL
REMARK 922        TOTAL FREE ENERGY PREDICTED BY IDOCK:   10.45 KCAL/MOL
REMARK 923 INTER-LIGAND FREE ENERGY PREDICTED BY IDOCK:    5.64 KCAL/MOL
REMARK 924 INTRA-LIGAND FREE ENERGY PREDICTED BY IDOCK:    4.80 KCAL/MOL
REMARK 927      BINDING AFFINITY PREDICTED BY RF-SCORE:    0.00 PKD
ROOT
HETATM    1  C   UNL     1     -11.564  16.740  69.940  1.00  0.00     0.612 C  
HETATM    2  C   UNL     1     -11.142  17.965  69.131  1.00  0.00     1.089 C  
HETATM    3  C   UNL     1     -11.958  18.036  67.836  1.00  0.00     2.560 C  
HETATM    4  C   UNL     1     -11.285  19.231  69.997  1.00  0.00     3.693 C  
ENDROOT
BRANCH   4   5
HETATM    5  C   UNL     1     -10.867  20.484  69.238  1.00  0.00     0.846 C  
BRANCH   5   6
HETATM    6  C   UNL     1     -10.827  20.277  67.728  1.00  0.00     0.056 C  
HETATM    7  C   UNL     1      -9.436  19.810  67.258  1.00  0.00    -0.471 C  
HETATM    8  C   UNL     1      -9.019  18.486  67.916  1.00  0.00    -0.300 C  
HETATM    9  C   UNL     1      -9.430  19.709  65.723  1.00  0.00    -0.066 C  
BRANCH   9  10
HETATM   10  C   UNL     1      -8.075  19.247  65.197  1.00  0.00     1.374 C  
BRANCH  10  11
HETATM   11  C   UNL     1      -7.205  18.654  66.293  1.00  0.00    -0.281 C  
HETATM   12  C   UNL     1      -6.111  17.733  65.720  1.00  0.00    -0.192 C  
HETATM   13  C   UNL     1      -5.330  17.036  66.850  1.00  0.00    -0.195 C  
HETATM   14  C   UNL     1      -5.139  18.481  64.798  1.00  0.00    -0.189 C  
BRANCH  13  15
HETATM   15  C   UNL     1      -6.184  16.165  67.780  1.00  0.00    -0.158 C  
BRANCH  15  16
HETATM   16  C   UNL     1      -5.648  14.739  67.912  1.00  0.00    -0.117 C  
BRANCH  16  17
HETATM   17  C   UNL     1      -6.742  13.711  67.775  1.00  0.00    -0.177 C  
HETATM   18  C   UNL     1      -6.447  12.483  67.305  1.00  0.00    -0.124 C  
HETATM   19  C   UNL     1      -8.112  14.115  68.235  1.00  0.00    -0.146 C  
BRANCH  18  20
HETATM   20  C   UNL     1      -7.388  11.313  67.184  1.00  0.00    -0.130 C  
BRANCH  20  21
HETATM   21  C   UNL     1      -7.528  10.575  68.501  1.00  0.00    -0.091 C  
HETATM   22  C   UNL     1      -6.578  10.527  69.459  1.00  0.00    -0.080 C  
HETATM   23  C   UNL     1      -5.209  11.147  69.367  1.00  0.00    -0.044 C  
HETATM   24  C   UNL     1      -6.833   9.841  70.760  1.00  0.00    -0.058 C  
HETATM   25  O   UNL     1      -5.960   9.758  71.613  1.00  0.00    -0.246 OA 
HETATM   26  C   UNL     1      -8.170   9.283  71.008  1.00  0.00    -0.122 A  
HETATM   27  C   UNL     1      -9.137   9.305  70.014  1.00  0.00    -0.229 A  
HETATM   28  C   UNL     1      -8.837   9.885  68.698  1.00  0.00    -0.128 C  
HETATM   29  C   UNL     1     -10.405   8.761  70.258  1.00  0.00    -0.227 A  
HETATM   30  C   UNL     1     -10.701   8.204  71.504  1.00  0.00    -0.286 A  
HETATM   31  O   UNL     1      -9.667   9.804  67.800  1.00  0.00    -0.138 OA 
HETATM   32  C   UNL     1      -9.731   8.186  72.505  1.00  0.00    -0.357 A  
HETATM   33  C   UNL     1      -8.466   8.723  72.260  1.00  0.00    -0.034 A  
ENDBRANCH  20  21
ENDBRANCH  18  20
ENDBRANCH  16  17
ENDBRANCH  15  16
ENDBRANCH  13  15
ENDBRANCH  10  11
ENDBRANCH   9  10
ENDBRANCH   5   6
ENDBRANCH   4   5
TORSDOF 9
ENDMDL
MODEL      456
REMARK 921   NORMALIZED FREE ENERGY PREDICTED BY IDOCK:    9.28 KCAL/MOL
REMARK 922        TOTAL FREE ENERGY PREDICTED BY IDOCK:   10.96 KCAL/MOL
REMARK 923 INTER-LIGAND FREE ENERGY PREDICTED BY IDOCK:   -2.30 KCAL/MOL
REMARK 924 INTRA-LIGAND FREE ENERGY PREDICTED BY IDOCK:   13.26 KCAL/MOL
REMARK 927      BINDING AFFINITY PREDICTED BY RF-SCORE:    0.00 PKD
ROOT
HETATM    1  C   UNL     1      -6.261   5.719  71.583  1.00  0.00    -0.039 C  
HETATM    2  C   UNL     1      -6.834   7.114  71.824  1.00  0.00    -0.059 C  
HETATM    3  C   UNL     1      -6.785   7.444  73.319  1.00  0.00    -0.065 C  
HETATM    4  C   UNL     1      -6.077   8.141  70.961  1.00  0.00    -0.033 C  
ENDROOT
BRANCH   4   5
HETATM    5  C   UNL     1      -6.616   9.552  71.156  1.00  0.00    -0.027 C  
BRANCH   5   6
HETATM    6  C   UNL     1      -8.140   9.603  71.198  1.00  0.00     0.472 C  
HETATM    7  C   UNL     1      -8.762   8.912  69.968  1.00  0.00    -0.151 C  
HETATM    8  C   UNL     1      -8.354   7.435  69.869  1.00  0.00    -0.134 C  
HETATM    9  C   UNL     1     -10.291   9.078  70.018  1.00  0.00    -0.226 C  
BRANCH   9  10
HETATM   10  C   UNL     1     -10.965   8.410  68.824  1.00  0.00     0.134 C  
BRANCH  10  11
HETATM   11  C   UNL     1     -10.178   7.214  68.313  1.00  0.00    -0.210 C  
HETATM   12  C   UNL     1      -8.957   7.648  67.480  1.00  0.00    -0.128 C  
HETATM   13  C   UNL     1      -8.253   6.426  66.858  1.00  0.00    -0.110 C  
HETATM   14  C   UNL     1      -7.951   8.469  68.297  1.00  0.00    -0.114 C  
BRANCH  13  15
HETATM   15  C   UNL     1      -9.133   5.581  65.927  1.00  0.00    -0.163 C  
BRANCH  15  16
HETATM   16  C   UNL     1      -9.091   6.062  64.476  1.00  0.00     0.602 C  
BRANCH  16  17
HETATM   17  C   UNL     1      -8.190   7.260  64.306  1.00  0.00     0.025 C  
HETATM   18  C   UNL     1      -8.671   8.376  63.724  1.00  0.00     0.240 C  
HETATM   19  C   UNL     1      -6.801   7.146  64.860  1.00  0.00    -0.047 C  
BRANCH  18  20
HETATM   20  C   UNL     1      -7.948   9.686  63.551  1.00  0.00    -0.140 C  
BRANCH  20  21
HETATM   21  C   UNL     1      -8.674  10.818  64.252  1.00  0.00    -0.080 C  
HETATM   22  C   UNL     1      -8.253  11.413  65.388  1.00  0.00     0.377 C  
HETATM   23  C   UNL     1      -7.029  11.028  66.177  1.00  0.00    -0.057 C  
HETATM   24  C   UNL     1      -8.991  12.575  65.965  1.00  0.00     0.168 C  
HETATM   25  O   UNL     1      -8.637  13.089  67.018  1.00  0.00    -0.200 OA 
HETATM   26  C   UNL     1     -10.147  13.108  65.230  1.00  0.00    -0.250 A  
HETATM   27  C   UNL     1     -10.599  12.478  64.080  1.00  0.00    -0.451 A  
HETATM   28  C   UNL     1      -9.929  11.269  63.582  1.00  0.00    -0.359 C  
HETATM   29  C   UNL     1     -11.708  12.989  63.392  1.00  0.00    -0.477 A  
HETATM   30  C   UNL     1     -12.355  14.136  63.857  1.00  0.00    -0.229 A  
HETATM   31  O   UNL     1     -10.403  10.668  62.624  1.00  0.00     0.081 OA 
HETATM   32  C   UNL     1     -11.897  14.771  65.011  1.00  0.00    -0.343 A  
HETATM   33  C   UNL     1     -10.796  14.259  65.699  1.00  0.00    -0.311 A  
ENDBRANCH  20  21
ENDBRANCH  18  20
ENDBRANCH  16  17
ENDBRANCH  15  16
ENDBRANCH  13  15
ENDBRANCH  10  11
ENDBRANCH   9  10
ENDBRANCH   5   6
ENDBRANCH   4   5
TORSDOF 9
ENDMDL
MODEL      457
REMARK 921   NORMALIZED FREE ENERGY PREDICTED BY IDOCK:    9.56 KCAL/MOL
REMARK 922        TOTAL FREE ENERGY PREDICTED BY IDOCK:   11.38 KCAL/MOL
REMARK 923 INTER-LIGAND FREE ENERGY PREDICTED BY IDOCK:    7.67 KCAL/MOL
REMARK 924 INTRA-LIGAND FREE ENERGY PREDICTED BY IDOCK:    3.71 KCAL/MOL
REMARK 927      BINDING AFFINITY PREDICTED BY RF-SCORE:    0.00 PKD
ROOT
HETATM    1  C   UNL     1     -11.661  16.024  69.831  1.00  0.00    -0.276 C  
HETATM    2  C   UNL     1     -11.238  17.250  69.025  1.00  0.00     0.449 C  
HETATM    3  C   UNL     1     -12.056  17.329  67.732  1.00  0.00     2.092 C  
HETATM    4  C   UNL     1     -11.373  18.514  69.896  1.00  0.00     3.911 C  
ENDROOT
BRANCH   4   5
HETATM    5  C   UNL     1     -10.953  19.768  69.141  1.00  0.00     1.240 C  
BRANCH   5   6
HETATM    6  C   UNL     1     -10.894  19.559  67.631  1.00  0.00    -0.442 C  
HETATM    7  C   UNL     1      -9.492  19.107  67.178  1.00  0.00    -0.367 C  
HETATM    8  C   UNL     1      -9.069  17.788  67.842  1.00  0.00    -0.259 C  
HETATM    9  C   UNL     1      -9.469  19.004  65.643  1.00  0.00     0.530 C  
BRANCH   9  10
HETATM   10  C   UNL     1      -8.103  18.557  65.133  1.00  0.00     1.934 C  
BRANCH  10  11
HETATM   11  C   UNL     1      -7.239  17.973  66.239  1.00  0.00    -0.310 C  
HETATM   12  C   UNL     1      -6.128  17.066  65.677  1.00  0.00     1.112 C  
HETATM   13  C   UNL     1      -5.352  16.376  66.817  1.00  0.00     0.205 C  
HETATM   14  C   UNL     1      -5.153  17.827  64.769  1.00  0.00     0.360 C  
BRANCH  13  15
HETATM   15  C   UNL     1      -6.207  15.493  67.734  1.00  0.00    -0.178 C  
BRANCH  15  16
HETATM   16  C   UNL     1      -6.828  14.304  67.000  1.00  0.00     0.732 C  
BRANCH  16  17
HETATM   17  C   UNL     1      -8.289  14.137  67.333  1.00  0.00    -0.210 C  
HETATM   18  C   UNL     1      -9.102  13.507  66.461  1.00  0.00    -0.129 C  
HETATM   19  C   UNL     1      -8.741  14.647  68.669  1.00  0.00    -0.174 C  
BRANCH  18  20
HETATM   20  C   UNL     1     -10.557  13.176  66.664  1.00  0.00    -0.284 C  
BRANCH  20  21
HETATM   21  C   UNL     1     -10.730  11.901  67.464  1.00  0.00    -0.263 C  
HETATM   22  C   UNL     1     -11.204  11.845  68.727  1.00  0.00    -0.314 C  
HETATM   23  C   UNL     1     -11.592  13.030  69.570  1.00  0.00    -0.342 C  
HETATM   24  C   UNL     1     -11.416  10.534  69.410  1.00  0.00    -0.262 C  
HETATM   25  O   UNL     1     -11.804  10.482  70.570  1.00  0.00    -0.291 OA 
HETATM   26  C   UNL     1     -11.168   9.299  68.652  1.00  0.00     0.185 A  
HETATM   27  C   UNL     1     -10.652   9.355  67.366  1.00  0.00    -0.326 A  
HETATM   28  C   UNL     1     -10.345  10.651  66.745  1.00  0.00    -0.245 C  
HETATM   29  C   UNL     1     -10.411   8.172  66.656  1.00  0.00    -0.284 A  
HETATM   30  C   UNL     1     -10.696   6.935  67.237  1.00  0.00    -0.421 A  
HETATM   31  O   UNL     1      -9.795  10.679  65.650  1.00  0.00    -0.222 OA 
HETATM   32  C   UNL     1     -11.219   6.878  68.529  1.00  0.00    -0.068 A  
HETATM   33  C   UNL     1     -11.455   8.057  69.238  1.00  0.00     0.588 A  
ENDBRANCH  20  21
ENDBRANCH  18  20
ENDBRANCH  16  17
ENDBRANCH  15  16
ENDBRANCH  13  15
ENDBRANCH  10  11
ENDBRANCH   9  10
ENDBRANCH   5   6
ENDBRANCH   4   5
TORSDOF 9
ENDMDL
MODEL      458
REMARK 921   NORMALIZED FREE ENERGY PREDICTED BY IDOCK:   12.88 KCAL/MOL
REMARK 922        TOTAL FREE ENERGY PREDICTED BY IDOCK:   16.46 KCAL/MOL
REMARK 923 INTER-LIGAND FREE ENERGY PREDICTED BY IDOCK:    0.35 KCAL/MOL
REMARK 924 INTRA-LIGAND FREE ENERGY PREDICTED BY IDOCK:   16.11 KCAL/MOL
REMARK 927      BINDING AFFINITY PREDICTED BY RF-SCORE:    0.00 PKD
ROOT
HETATM    1  C   UNL     1      -6.283   5.748  71.577  1.00  0.00    -0.043 C  
HETATM    2  C   UNL     1      -6.784   7.139  71.959  1.00  0.00    -0.056 C  
HETATM    3  C   UNL     1      -6.596   7.362  73.464  1.00  0.00    -0.065 C  
HETATM    4  C   UNL     1      -6.067   8.201  71.104  1.00  0.00    -0.034 C  
ENDROOT
BRANCH   4   5
HETATM    5  C   UNL     1      -6.538   9.610  71.440  1.00  0.00     0.144 C  
BRANCH   5   6
HETATM    6  C   UNL     1      -8.037   9.686  71.707  1.00  0.00     1.402 C  
HETATM    7  C   UNL     1      -8.851   9.110  70.532  1.00  0.00    -0.263 C  
HETATM    8  C   UNL     1      -8.506   7.638  70.258  1.00  0.00    -0.134 C  
HETATM    9  C   UNL     1     -10.351   9.299  70.817  1.00  0.00    -0.348 C  
BRANCH   9  10
HETATM   10  C   UNL     1     -11.210   8.744  69.686  1.00  0.00     0.058 C  
BRANCH  10  11
HETATM   11  C   UNL     1     -10.564   7.547  69.007  1.00  0.00    -0.190 C  
HETATM   12  C   UNL     1      -9.344   7.958  68.162  1.00  0.00    -0.146 C  
HETATM   13  C   UNL     1      -8.789   6.755  67.374  1.00  0.00    -0.117 C  
HETATM   14  C   UNL     1      -8.229   8.586  69.008  1.00  0.00    -0.116 C  
BRANCH  13  15
HETATM   15  C   UNL     1      -9.785   6.105  66.406  1.00  0.00    -0.152 C  
BRANCH  15  16
HETATM   16  C   UNL     1      -9.772   6.754  65.021  1.00  0.00     1.805 C  
BRANCH  16  17
HETATM   17  C   UNL     1      -8.775   7.881  64.936  1.00  0.00     0.123 C  
HETATM   18  C   UNL     1      -9.175   9.093  64.504  1.00  0.00     0.038 C  
HETATM   19  C   UNL     1      -7.380   7.587  65.404  1.00  0.00    -0.071 C  
BRANCH  18  20
HETATM   20  C   UNL     1      -8.343  10.347  64.437  1.00  0.00    -0.142 C  
BRANCH  20  21
HETATM   21  C   UNL     1      -8.386  11.111  65.745  1.00  0.00    -0.041 C  
HETATM   22  C   UNL     1      -7.359  11.198  66.618  1.00  0.00    -0.145 C  
HETATM   23  C   UNL     1      -6.024  10.517  66.470  1.00  0.00    -0.077 C  
HETATM   24  C   UNL     1      -7.464  12.040  67.846  1.00  0.00    -0.114 C  
HETATM   25  O   UNL     1      -6.552  12.086  68.660  1.00  0.00    -0.064 OA 
HETATM   26  C   UNL     1      -8.684  12.834  68.050  1.00  0.00    -0.194 A  
HETATM   27  C   UNL     1      -9.751  12.722  67.172  1.00  0.00    -0.216 A  
HETATM   28  C   UNL     1      -9.677  11.806  66.025  1.00  0.00    -0.232 C  
HETATM   29  C   UNL     1     -10.913  13.477  67.381  1.00  0.00    -0.286 A  
HETATM   30  C   UNL     1     -10.996  14.349  68.469  1.00  0.00    -0.264 A  
HETATM   31  O   UNL     1     -10.665  11.643  65.319  1.00  0.00    -0.279 OA 
HETATM   32  C   UNL     1      -9.922  14.465  69.350  1.00  0.00     0.093 A  
HETATM   33  C   UNL     1      -8.766  13.709  69.144  1.00  0.00     0.476 A  
ENDBRANCH  20  21
ENDBRANCH  18  20
ENDBRANCH  16  17
ENDBRANCH  15  16
ENDBRANCH  13  15
ENDBRANCH  10  11
ENDBRANCH   9  10
ENDBRANCH   5   6
ENDBRANCH   4   5
TORSDOF 9
ENDMDL
MODEL      459
REMARK 921   NORMALIZED FREE ENERGY PREDICTED BY IDOCK:   15.32 KCAL/MOL
REMARK 922        TOTAL FREE ENERGY PREDICTED BY IDOCK:   20.18 KCAL/MOL
REMARK 923 INTER-LIGAND FREE ENERGY PREDICTED BY IDOCK:   10.10 KCAL/MOL
REMARK 924 INTRA-LIGAND FREE ENERGY PREDICTED BY IDOCK:   10.09 KCAL/MOL
REMARK 927      BINDING AFFINITY PREDICTED BY RF-SCORE:    0.00 PKD
ROOT
HETATM    1  C   UNL     1     -10.260   2.661  67.405  1.00  0.00     1.874 C  
HETATM    2  C   UNL     1      -9.556   3.991  67.666  1.00  0.00    -0.210 C  
HETATM    3  C   UNL     1      -9.042   4.030  69.109  1.00  0.00    -0.197 C  
HETATM    4  C   UNL     1      -8.438   4.198  66.627  1.00  0.00    -0.104 C  
ENDROOT
BRANCH   4   5
HETATM    5  C   UNL     1      -7.708   5.518  66.838  1.00  0.00    -0.100 C  
BRANCH   5   6
HETATM    6  C   UNL     1      -8.605   6.606  67.419  1.00  0.00    -0.119 C  
HETATM    7  C   UNL     1      -7.782   7.802  67.934  1.00  0.00    -0.122 C  
HETATM    8  C   UNL     1      -6.940   8.445  66.822  1.00  0.00    -0.073 C  
HETATM    9  C   UNL     1      -8.731   8.820  68.591  1.00  0.00    -0.134 C  
BRANCH   9  10
HETATM   10  C   UNL     1      -7.971  10.032  69.120  1.00  0.00    -0.116 C  
BRANCH  10  11
HETATM   11  C   UNL     1      -7.382  10.876  68.001  1.00  0.00    -0.088 C  
HETATM   12  C   UNL     1      -7.253  12.356  68.408  1.00  0.00    -0.110 C  
HETATM   13  C   UNL     1      -6.786  13.215  67.217  1.00  0.00     0.020 C  
HETATM   14  C   UNL     1      -6.306  12.556  69.598  1.00  0.00    -0.100 C  
BRANCH  13  15
HETATM   15  C   UNL     1      -7.714  13.183  65.996  1.00  0.00     2.483 C  
BRANCH  15  16
HETATM   16  C   UNL     1      -9.108  13.734  66.299  1.00  0.00    -0.012 C  
BRANCH  16  17
HETATM   17  C   UNL     1      -9.310  13.973  67.774  1.00  0.00    -0.205 C  
HETATM   18  C   UNL     1     -10.257  13.280  68.437  1.00  0.00    -0.249 C  
HETATM   19  C   UNL     1      -8.384  14.952  68.434  1.00  0.00    -0.153 C  
BRANCH  18  20
HETATM   20  C   UNL     1     -10.538  13.325  69.916  1.00  0.00     0.886 C  
BRANCH  20  21
HETATM   21  C   UNL     1     -10.841  11.945  70.466  1.00  0.00     1.791 C  
HETATM   22  C   UNL     1      -9.910  11.005  70.736  1.00  0.00     3.178 C  
HETATM   23  C   UNL     1      -8.430  11.142  70.492  1.00  0.00     3.322 C  
HETATM   24  C   UNL     1     -10.292   9.700  71.351  1.00  0.00     0.023 C  
HETATM   25  O   UNL     1      -9.457   8.829  71.556  1.00  0.00    -0.222 OA 
HETATM   26  C   UNL     1     -11.697   9.487  71.729  1.00  0.00    -0.411 A  
HETATM   27  C   UNL     1     -12.659  10.439  71.425  1.00  0.00    -0.539 A  
HETATM   28  C   UNL     1     -12.286  11.673  70.720  1.00  0.00    -0.344 C  
HETATM   29  C   UNL     1     -13.996  10.221  71.781  1.00  0.00     0.179 A  
HETATM   30  C   UNL     1     -14.363   9.051  72.449  1.00  0.00    -0.325 A  
HETATM   31  O   UNL     1     -13.162  12.454  70.369  1.00  0.00     0.465 OA 
HETATM   32  C   UNL     1     -13.395   8.096  72.758  1.00  0.00     0.238 A  
HETATM   33  C   UNL     1     -12.063   8.311  72.399  1.00  0.00    -0.430 A  
ENDBRANCH  20  21
ENDBRANCH  18  20
ENDBRANCH  16  17
ENDBRANCH  15  16
ENDBRANCH  13  15
ENDBRANCH  10  11
ENDBRANCH   9  10
ENDBRANCH   5   6
ENDBRANCH   4   5
TORSDOF 9
ENDMDL
MODEL      460
REMARK 921   NORMALIZED FREE ENERGY PREDICTED BY IDOCK:   17.57 KCAL/MOL
REMARK 922        TOTAL FREE ENERGY PREDICTED BY IDOCK:   23.61 KCAL/MOL
REMARK 923 INTER-LIGAND FREE ENERGY PREDICTED BY IDOCK:    5.25 KCAL/MOL
REMARK 924 INTRA-LIGAND FREE ENERGY PREDICTED BY IDOCK:   18.36 KCAL/MOL
REMARK 927      BINDING AFFINITY PREDICTED BY RF-SCORE:    0.00 PKD
ROOT
HETATM    1  C   UNL     1      -7.266  19.677  64.117  1.00  0.00     2.004 C  
HETATM    2  C   UNL     1      -7.194  19.188  65.562  1.00  0.00    -0.132 C  
HETATM    3  C   UNL     1      -8.586  19.246  66.200  1.00  0.00    -0.267 C  
HETATM    4  C   UNL     1      -6.576  17.777  65.602  1.00  0.00    -0.137 C  
ENDROOT
BRANCH   4   5
HETATM    5  C   UNL     1      -6.472  17.246  67.025  1.00  0.00    -0.211 C  
BRANCH   5   6
HETATM    6  C   UNL     1      -5.973  15.805  67.085  1.00  0.00     0.140 C  
HETATM    7  C   UNL     1      -6.495  15.078  68.339  1.00  0.00    -0.104 C  
HETATM    8  C   UNL     1      -8.030  15.035  68.385  1.00  0.00    -0.131 C  
HETATM    9  C   UNL     1      -5.885  13.667  68.393  1.00  0.00    -0.098 C  
BRANCH   9  10
HETATM   10  C   UNL     1      -6.368  12.894  69.616  1.00  0.00    -0.089 C  
BRANCH  10  11
HETATM   11  C   UNL     1      -7.884  12.892  69.733  1.00  0.00     1.536 C  
HETATM   12  C   UNL     1      -8.522  14.025  68.908  1.00  0.00     0.046 C  
HETATM   13  C   UNL     1     -10.043  14.092  69.149  1.00  0.00     0.021 C  
HETATM   14  C   UNL     1      -8.238  13.889  67.406  1.00  0.00    -0.198 C  
BRANCH  13  15
HETATM   15  C   UNL     1     -10.454  14.335  70.607  1.00  0.00     1.247 C  
BRANCH  15  16
HETATM   16  C   UNL     1     -11.416  15.514  70.761  1.00  0.00    -0.396 C  
BRANCH  16  17
HETATM   17  C   UNL     1     -12.403  15.587  69.624  1.00  0.00    -0.221 C  
HETATM   18  C   UNL     1     -12.066  15.090  68.417  1.00  0.00    -0.139 C  
HETATM   19  C   UNL     1     -13.750  16.172  69.933  1.00  0.00     3.127 C  
BRANCH  18  20
HETATM   20  C   UNL     1     -12.950  14.999  67.201  1.00  0.00     2.261 C  
BRANCH  20  21
HETATM   21  C   UNL     1     -12.409  14.002  66.195  1.00  0.00    -0.491 C  
HETATM   22  C   UNL     1     -12.405  14.185  64.858  1.00  0.00    -0.446 C  
HETATM   23  C   UNL     1     -12.977  15.375  64.135  1.00  0.00     1.076 C  
HETATM   24  C   UNL     1     -11.778  13.182  63.947  1.00  0.00    -0.456 C  
HETATM   25  O   UNL     1     -11.811  13.324  62.732  1.00  0.00     0.114 OA 
HETATM   26  C   UNL     1     -11.097  12.023  64.542  1.00  0.00    -0.384 A  
HETATM   27  C   UNL     1     -11.126  11.818  65.913  1.00  0.00    -0.355 A  
HETATM   28  C   UNL     1     -11.841  12.756  66.790  1.00  0.00    -0.382 C  
HETATM   29  C   UNL     1     -10.482  10.705  66.469  1.00  0.00    -0.285 A  
HETATM   30  C   UNL     1      -9.802   9.805  65.646  1.00  0.00    -0.371 A  
HETATM   31  O   UNL     1     -11.945  12.504  67.985  1.00  0.00    -0.342 OA 
HETATM   32  C   UNL     1      -9.767  10.014  64.268  1.00  0.00    -0.242 A  
HETATM   33  C   UNL     1     -10.414  11.120  63.714  1.00  0.00    -0.444 A  
ENDBRANCH  20  21
ENDBRANCH  18  20
ENDBRANCH  16  17
ENDBRANCH  15  16
ENDBRANCH  13  15
ENDBRANCH  10  11
ENDBRANCH   9  10
ENDBRANCH   5   6
ENDBRANCH   4   5
TORSDOF 9
ENDMDL
MODEL      461
REMARK 921   NORMALIZED FREE ENERGY PREDICTED BY IDOCK:   24.82 KCAL/MOL
REMARK 922        TOTAL FREE ENERGY PREDICTED BY IDOCK:   34.68 KCAL/MOL
REMARK 923 INTER-LIGAND FREE ENERGY PREDICTED BY IDOCK:   32.47 KCAL/MOL
REMARK 924 INTRA-LIGAND FREE ENERGY PREDICTED BY IDOCK:    2.21 KCAL/MOL
REMARK 927      BINDING AFFINITY PREDICTED BY RF-SCORE:    0.00 PKD
ROOT
HETATM    1  C   UNL     1     -10.255   2.674  67.407  1.00  0.00     1.874 C  
HETATM    2  C   UNL     1      -9.450   3.950  67.646  1.00  0.00    -0.233 C  
HETATM    3  C   UNL     1      -8.898   3.955  69.075  1.00  0.00    -0.151 C  
HETATM    4  C   UNL     1      -8.345   4.072  66.579  1.00  0.00    -0.104 C  
ENDROOT
BRANCH   4   5
HETATM    5  C   UNL     1      -7.516   5.335  66.766  1.00  0.00    -0.087 C  
BRANCH   5   6
HETATM    6  C   UNL     1      -8.313   6.483  67.378  1.00  0.00    -0.120 C  
HETATM    7  C   UNL     1      -7.391   7.624  67.848  1.00  0.00    -0.102 C  
HETATM    8  C   UNL     1      -6.558   8.205  66.695  1.00  0.00    -0.056 C  
HETATM    9  C   UNL     1      -8.240   8.706  68.538  1.00  0.00    -0.122 C  
BRANCH   9  10
HETATM   10  C   UNL     1      -7.379   9.867  69.025  1.00  0.00    -0.080 C  
BRANCH  10  11
HETATM   11  C   UNL     1      -6.781  10.661  67.875  1.00  0.00    -0.064 C  
HETATM   12  C   UNL     1      -6.498  12.122  68.275  1.00  0.00    -0.055 C  
HETATM   13  C   UNL     1      -6.023  12.943  67.061  1.00  0.00     0.425 C  
HETATM   14  C   UNL     1      -5.473  12.231  69.411  1.00  0.00    -0.074 C  
BRANCH  13  15
HETATM   15  C   UNL     1      -7.018  13.000  65.894  1.00  0.00     4.349 C  
BRANCH  15  16
HETATM   16  C   UNL     1      -8.346  13.650  66.281  1.00  0.00     0.891 C  
BRANCH  16  17
HETATM   17  C   UNL     1      -8.507  13.757  67.776  1.00  0.00    -0.181 C  
HETATM   18  C   UNL     1      -9.485  13.064  68.391  1.00  0.00    -0.165 C  
HETATM   19  C   UNL     1      -7.507  14.604  68.506  1.00  0.00    -0.120 C  
BRANCH  18  20
HETATM   20  C   UNL     1      -9.737  12.982  69.874  1.00  0.00     2.382 C  
BRANCH  20  21
HETATM   21  C   UNL     1     -10.084  11.569  70.301  1.00  0.00     2.122 C  
HETATM   22  C   UNL     1     -11.041  10.807  69.729  1.00  0.00    -0.346 C  
HETATM   23  C   UNL     1     -11.955  11.241  68.614  1.00  0.00    -0.314 C  
HETATM   24  C   UNL     1     -11.260   9.396  70.163  1.00  0.00    -0.219 C  
HETATM   25  O   UNL     1     -12.155   8.717  69.677  1.00  0.00     0.763 OA 
HETATM   26  C   UNL     1     -10.361   8.826  71.177  1.00  0.00    -0.315 A  
HETATM   27  C   UNL     1      -9.398   9.616  71.787  1.00  0.00     1.346 A  
HETATM   28  C   UNL     1      -9.265  11.035  71.428  1.00  0.00     7.738 C  
HETATM   29  C   UNL     1      -8.553   9.065  72.759  1.00  0.00     0.736 A  
HETATM   30  C   UNL     1      -8.672   7.719  73.110  1.00  0.00    -0.250 A  
HETATM   31  O   UNL     1      -8.480  11.742  72.049  1.00  0.00    13.389 OA 
HETATM   32  C   UNL     1      -9.637   6.923  72.494  1.00  0.00    -0.165 A  
HETATM   33  C   UNL     1     -10.482   7.474  71.529  1.00  0.00    -0.226 A  
ENDBRANCH  20  21
ENDBRANCH  18  20
ENDBRANCH  16  17
ENDBRANCH  15  16
ENDBRANCH  13  15
ENDBRANCH  10  11
ENDBRANCH   9  10
ENDBRANCH   5   6
ENDBRANCH   4   5
TORSDOF 9
ENDMDL
MODEL      462
REMARK 921   NORMALIZED FREE ENERGY PREDICTED BY IDOCK:   25.29 KCAL/MOL
REMARK 922        TOTAL FREE ENERGY PREDICTED BY IDOCK:   35.39 KCAL/MOL
REMARK 923 INTER-LIGAND FREE ENERGY PREDICTED BY IDOCK:    2.02 KCAL/MOL
REMARK 924 INTRA-LIGAND FREE ENERGY PREDICTED BY IDOCK:   33.37 KCAL/MOL
REMARK 927      BINDING AFFINITY PREDICTED BY RF-SCORE:    0.00 PKD
ROOT
HETATM    1  C   UNL     1      -9.145  18.828  69.057  1.00  0.00    -0.157 C  
HETATM    2  C   UNL     1      -7.826  18.146  69.410  1.00  0.00     0.288 C  
HETATM    3  C   UNL     1      -7.017  19.040  70.356  1.00  0.00     0.747 C  
HETATM    4  C   UNL     1      -8.105  16.751  70.000  1.00  0.00     1.593 C  
ENDROOT
BRANCH   4   5
HETATM    5  C   UNL     1      -6.818  16.022  70.363  1.00  0.00     0.720 C  
BRANCH   5   6
HETATM    6  C   UNL     1      -6.826  14.557  69.937  1.00  0.00    -0.097 C  
HETATM    7  C   UNL     1      -8.245  14.085  69.563  1.00  0.00     0.618 C  
HETATM    8  C   UNL     1      -8.838  14.904  68.406  1.00  0.00    -0.178 C  
HETATM    9  C   UNL     1      -8.206  12.583  69.235  1.00  0.00     0.737 C  
BRANCH   9  10
HETATM   10  C   UNL     1      -9.585  12.057  68.853  1.00  0.00     0.100 C  
BRANCH  10  11
HETATM   11  C   UNL     1     -10.477  13.146  68.279  1.00  0.00    -0.258 C  
HETATM   12  C   UNL     1     -11.801  13.271  69.057  1.00  0.00    -0.365 C  
HETATM   13  C   UNL     1     -12.746  14.281  68.378  1.00  0.00     0.848 C  
HETATM   14  C   UNL     1     -11.584  13.665  70.524  1.00  0.00    -0.043 C  
BRANCH  13  15
HETATM   15  C   UNL     1     -13.126  13.935  66.933  1.00  0.00     1.558 C  
BRANCH  15  16
HETATM   16  C   UNL     1     -11.913  13.851  66.006  1.00  0.00    -0.436 C  
BRANCH  16  17
HETATM   17  C   UNL     1     -10.708  14.542  66.592  1.00  0.00    -0.305 C  
HETATM   18  C   UNL     1      -9.495  13.964  66.489  1.00  0.00    -0.288 C  
HETATM   19  C   UNL     1     -10.936  15.886  67.218  1.00  0.00    -0.234 C  
BRANCH  18  20
HETATM   20  C   UNL     1      -8.178  14.545  66.935  1.00  0.00    -0.073 C  
BRANCH  20  21
HETATM   21  C   UNL     1      -8.079  16.019  66.595  1.00  0.00    -0.311 C  
HETATM   22  C   UNL     1      -9.088  16.761  66.091  1.00  0.00    -0.288 C  
HETATM   23  C   UNL     1     -10.458  16.248  65.734  1.00  0.00    -0.379 C  
HETATM   24  C   UNL     1      -8.924  18.227  65.861  1.00  0.00     0.229 C  
HETATM   25  O   UNL     1      -9.822  18.893  65.364  1.00  0.00    -0.125 OA 
HETATM   26  C   UNL     1      -7.662  18.863  66.265  1.00  0.00    -0.297 A  
HETATM   27  C   UNL     1      -6.614  18.098  66.755  1.00  0.00    -0.215 A  
HETATM   28  C   UNL     1      -6.751  16.640  66.874  1.00  0.00    -0.212 C  
HETATM   29  C   UNL     1      -5.412  18.714  67.128  1.00  0.00    -0.140 A  
HETATM   30  C   UNL     1      -5.269  20.099  67.017  1.00  0.00    -0.163 A  
HETATM   31  O   UNL     1      -5.781  15.969  67.210  1.00  0.00    -0.269 OA 
HETATM   32  C   UNL     1      -6.325  20.869  66.530  1.00  0.00    -0.328 A  
HETATM   33  C   UNL     1      -7.520  20.254  66.153  1.00  0.00    -0.260 A  
ENDBRANCH  20  21
ENDBRANCH  18  20
ENDBRANCH  16  17
ENDBRANCH  15  16
ENDBRANCH  13  15
ENDBRANCH  10  11
ENDBRANCH   9  10
ENDBRANCH   5   6
ENDBRANCH   4   5
TORSDOF 9
ENDMDL
MODEL      463
REMARK 921   NORMALIZED FREE ENERGY PREDICTED BY IDOCK:   28.82 KCAL/MOL
REMARK 922        TOTAL FREE ENERGY PREDICTED BY IDOCK:   40.79 KCAL/MOL
REMARK 923 INTER-LIGAND FREE ENERGY PREDICTED BY IDOCK:   20.03 KCAL/MOL
REMARK 924 INTRA-LIGAND FREE ENERGY PREDICTED BY IDOCK:   20.76 KCAL/MOL
REMARK 927      BINDING AFFINITY PREDICTED BY RF-SCORE:    0.00 PKD
ROOT
HETATM    1  C   UNL     1      -6.364   5.860  71.567  1.00  0.00    -0.048 C  
HETATM    2  C   UNL     1      -6.530   7.344  71.888  1.00  0.00    -0.043 C  
HETATM    3  C   UNL     1      -5.915   7.650  73.258  1.00  0.00    -0.059 C  
HETATM    4  C   UNL     1      -5.917   8.190  70.756  1.00  0.00    -0.033 C  
ENDROOT
BRANCH   4   5
HETATM    5  C   UNL     1      -6.064   9.682  71.023  1.00  0.00    -0.077 C  
BRANCH   5   6
HETATM    6  C   UNL     1      -7.254  10.010  71.918  1.00  0.00     1.923 C  
HETATM    7  C   UNL     1      -8.559   9.403  71.368  1.00  0.00     0.291 C  
HETATM    8  C   UNL     1      -8.479   7.874  71.249  1.00  0.00    -0.127 C  
HETATM    9  C   UNL     1      -9.734   9.845  72.257  1.00  0.00     3.737 C  
BRANCH   9  10
HETATM   10  C   UNL     1     -11.058   9.271  71.762  1.00  0.00    -0.398 C  
BRANCH  10  11
HETATM   11  C   UNL     1     -10.926   7.825  71.312  1.00  0.00    -0.259 C  
HETATM   12  C   UNL     1     -10.156   7.708  69.983  1.00  0.00    -0.204 C  
HETATM   13  C   UNL     1     -10.152   6.252  69.475  1.00  0.00    -0.217 C  
HETATM   14  C   UNL     1      -8.715   8.225  70.092  1.00  0.00    -0.133 C  
BRANCH  13  15
HETATM   15  C   UNL     1     -11.543   5.656  69.222  1.00  0.00     1.224 C  
BRANCH  15  16
HETATM   16  C   UNL     1     -11.950   5.711  67.749  1.00  0.00     3.790 C  
BRANCH  16  17
HETATM   17  C   UNL     1     -10.876   6.328  66.891  1.00  0.00    -0.428 C  
HETATM   18  C   UNL     1     -11.218   7.198  65.920  1.00  0.00     3.412 C  
HETATM   19  C   UNL     1      -9.457   5.967  67.218  1.00  0.00    -0.119 C  
BRANCH  18  20
HETATM   20  C   UNL     1     -10.281   7.972  65.030  1.00  0.00     3.470 C  
BRANCH  20  21
HETATM   21  C   UNL     1      -9.919   9.313  65.638  1.00  0.00    -0.130 C  
HETATM   22  C   UNL     1     -10.790  10.325  65.837  1.00  0.00     0.141 C  
HETATM   23  C   UNL     1     -12.244  10.319  65.448  1.00  0.00     5.771 C  
HETATM   24  C   UNL     1     -10.362  11.584  66.516  1.00  0.00    -0.232 C  
HETATM   25  O   UNL     1     -11.136  12.520  66.659  1.00  0.00    -0.260 OA 
HETATM   26  C   UNL     1      -8.988  11.670  67.033  1.00  0.00    -0.182 A  
HETATM   27  C   UNL     1      -8.084  10.643  66.802  1.00  0.00    -0.131 A  
HETATM   28  C   UNL     1      -8.488   9.456  66.036  1.00  0.00    -0.124 C  
HETATM   29  C   UNL     1      -6.775  10.740  67.291  1.00  0.00    -0.080 A  
HETATM   30  C   UNL     1      -6.378  11.865  68.017  1.00  0.00    -0.055 A  
HETATM   31  O   UNL     1      -7.650   8.607  65.754  1.00  0.00    -0.086 OA 
HETATM   32  C   UNL     1      -7.288  12.895  68.254  1.00  0.00    -0.118 A  
HETATM   33  C   UNL     1      -8.591  12.800  67.762  1.00  0.00    -0.184 A  
ENDBRANCH  20  21
ENDBRANCH  18  20
ENDBRANCH  16  17
ENDBRANCH  15  16
ENDBRANCH  13  15
ENDBRANCH  10  11
ENDBRANCH   9  10
ENDBRANCH   5   6
ENDBRANCH   4   5
TORSDOF 9
ENDMDL
MODEL      464
REMARK 921   NORMALIZED FREE ENERGY PREDICTED BY IDOCK:   34.86 KCAL/MOL
REMARK 922        TOTAL FREE ENERGY PREDICTED BY IDOCK:   50.00 KCAL/MOL
REMARK 923 INTER-LIGAND FREE ENERGY PREDICTED BY IDOCK:   27.50 KCAL/MOL
REMARK 924 INTRA-LIGAND FREE ENERGY PREDICTED BY IDOCK:   22.50 KCAL/MOL
REMARK 927      BINDING AFFINITY PREDICTED BY RF-SCORE:    0.00 PKD
ROOT
HETATM    1  C   UNL     1     -12.664  21.035  66.985  1.00  0.00     7.386 C  
HETATM    2  C   UNL     1     -12.634  19.550  66.634  1.00  0.00     5.101 C  
HETATM    3  C   UNL     1     -11.315  19.209  65.931  1.00  0.00     0.775 C  
HETATM    4  C   UNL     1     -12.866  18.711  67.906  1.00  0.00     6.931 C  
ENDROOT
BRANCH   4   5
HETATM    5  C   UNL     1     -12.855  17.218  67.608  1.00  0.00     5.257 C  
BRANCH   5   6
HETATM    6  C   UNL     1     -12.546  16.371  68.839  1.00  0.00     1.630 C  
HETATM    7  C   UNL     1     -11.678  15.149  68.480  1.00  0.00    -0.347 C  
HETATM    8  C   UNL     1     -10.337  15.557  67.854  1.00  0.00    -0.250 C  
HETATM    9  C   UNL     1     -11.480  14.286  69.739  1.00  0.00    -0.317 C  
BRANCH   9  10
HETATM   10  C   UNL     1     -10.624  13.058  69.446  1.00  0.00     0.229 C  
BRANCH  10  11
HETATM   11  C   UNL     1      -9.164  13.416  69.214  1.00  0.00     0.767 C  
HETATM   12  C   UNL     1      -9.016  14.745  68.450  1.00  0.00    -0.187 C  
HETATM   13  C   UNL     1      -7.539  15.020  68.105  1.00  0.00    -0.113 C  
HETATM   14  C   UNL     1      -9.601  15.935  69.223  1.00  0.00    -0.266 C  
BRANCH  13  15
HETATM   15  C   UNL     1      -6.871  13.947  67.237  1.00  0.00     0.162 C  
BRANCH  15  16
HETATM   16  C   UNL     1      -6.399  12.739  68.048  1.00  0.00    -0.099 C  
BRANCH  16  17
HETATM   17  C   UNL     1      -6.197  11.523  67.181  1.00  0.00    -0.121 C  
HETATM   18  C   UNL     1      -5.554  11.645  66.003  1.00  0.00     0.402 C  
HETATM   19  C   UNL     1      -6.687  10.214  67.725  1.00  0.00    -0.071 C  
BRANCH  18  20
HETATM   20  C   UNL     1      -5.188  10.533  65.055  1.00  0.00    -0.139 C  
BRANCH  20  21
HETATM   21  C   UNL     1      -5.955   9.264  65.366  1.00  0.00    -0.062 C  
HETATM   22  C   UNL     1      -6.022   8.686  66.584  1.00  0.00    -0.053 C  
HETATM   23  C   UNL     1      -5.310   9.166  67.822  1.00  0.00    -0.034 C  
HETATM   24  C   UNL     1      -6.868   7.478  66.816  1.00  0.00    -0.070 C  
HETATM   25  O   UNL     1      -6.896   6.926  67.908  1.00  0.00    -0.074 OA 
HETATM   26  C   UNL     1      -7.690   6.974  65.707  1.00  0.00    -0.103 A  
HETATM   27  C   UNL     1      -7.600   7.548  64.448  1.00  0.00    -0.111 A  
HETATM   28  C   UNL     1      -6.680   8.668  64.206  1.00  0.00    -0.074 C  
HETATM   29  C   UNL     1      -8.381   7.053  63.395  1.00  0.00     0.207 A  
HETATM   30  C   UNL     1      -9.257   5.988  63.612  1.00  0.00     1.150 A  
HETATM   31  O   UNL     1      -6.538   9.095  63.066  1.00  0.00    -0.091 OA 
HETATM   32  C   UNL     1      -9.352   5.413  64.879  1.00  0.00     0.228 A  
HETATM   33  C   UNL     1      -8.570   5.903  65.926  1.00  0.00    -0.145 A  
ENDBRANCH  20  21
ENDBRANCH  18  20
ENDBRANCH  16  17
ENDBRANCH  15  16
ENDBRANCH  13  15
ENDBRANCH  10  11
ENDBRANCH   9  10
ENDBRANCH   5   6
ENDBRANCH   4   5
TORSDOF 9
ENDMDL
MODEL      465
REMARK 921   NORMALIZED FREE ENERGY PREDICTED BY IDOCK:   37.25 KCAL/MOL
REMARK 922        TOTAL FREE ENERGY PREDICTED BY IDOCK:   53.65 KCAL/MOL
REMARK 923 INTER-LIGAND FREE ENERGY PREDICTED BY IDOCK:   21.97 KCAL/MOL
REMARK 924 INTRA-LIGAND FREE ENERGY PREDICTED BY IDOCK:   31.67 KCAL/MOL
REMARK 927      BINDING AFFINITY PREDICTED BY RF-SCORE:    0.00 PKD
ROOT
HETATM    1  C   UNL     1      -8.316   6.133  71.041  1.00  0.00    -0.124 C  
HETATM    2  C   UNL     1      -7.997   7.618  71.195  1.00  0.00    -0.091 C  
HETATM    3  C   UNL     1      -6.484   7.811  71.343  1.00  0.00    -0.038 C  
HETATM    4  C   UNL     1      -8.586   8.401  70.006  1.00  0.00    -0.131 C  
ENDROOT
BRANCH   4   5
HETATM    5  C   UNL     1      -8.303   9.894  70.116  1.00  0.00    -0.156 C  
BRANCH   5   6
HETATM    6  C   UNL     1      -7.029  10.311  69.390  1.00  0.00    -0.083 C  
HETATM    7  C   UNL     1      -7.223  11.632  68.621  1.00  0.00    -0.104 C  
HETATM    8  C   UNL     1      -7.622  12.788  69.552  1.00  0.00     0.721 C  
HETATM    9  C   UNL     1      -5.939  11.952  67.836  1.00  0.00    -0.054 C  
BRANCH   9  10
HETATM   10  C   UNL     1      -6.071  13.254  67.054  1.00  0.00     0.748 C  
BRANCH  10  11
HETATM   11  C   UNL     1      -7.440  13.893  67.226  1.00  0.00    -0.051 C  
HETATM   12  C   UNL     1      -7.914  13.843  68.691  1.00  0.00    -0.109 C  
HETATM   13  C   UNL     1      -9.357  14.369  68.820  1.00  0.00    -0.150 C  
HETATM   14  C   UNL     1      -6.989  14.624  69.633  1.00  0.00    -0.149 C  
BRANCH  13  15
HETATM   15  C   UNL     1     -10.399  13.594  68.003  1.00  0.00    -0.250 C  
BRANCH  15  16
HETATM   16  C   UNL     1     -11.754  13.504  68.707  1.00  0.00    -0.373 C  
BRANCH  16  17
HETATM   17  C   UNL     1     -11.659  12.763  70.017  1.00  0.00    -0.194 C  
HETATM   18  C   UNL     1     -12.762  12.613  70.777  1.00  0.00    -0.213 C  
HETATM   19  C   UNL     1     -10.323  12.179  70.369  1.00  0.00     2.986 C  
BRANCH  18  20
HETATM   20  C   UNL     1     -12.872  11.835  72.062  1.00  0.00    -0.247 C  
BRANCH  20  21
HETATM   21  C   UNL     1     -12.070  10.550  72.003  1.00  0.00     0.455 C  
HETATM   22  C   UNL     1     -10.724  10.480  72.090  1.00  0.00     4.636 C  
HETATM   23  C   UNL     1      -9.792  11.656  72.208  1.00  0.00    16.395 C  
HETATM   24  C   UNL     1     -10.023   9.162  72.102  1.00  0.00     0.183 C  
HETATM   25  O   UNL     1      -8.802   9.096  72.137  1.00  0.00    -0.314 OA 
HETATM   26  C   UNL     1     -10.834   7.935  72.093  1.00  0.00    -0.327 A  
HETATM   27  C   UNL     1     -12.214   8.006  71.973  1.00  0.00    -0.374 A  
HETATM   28  C   UNL     1     -12.883   9.308  71.851  1.00  0.00    -0.404 C  
HETATM   29  C   UNL     1     -12.976   6.830  71.955  1.00  0.00    -0.156 A  
HETATM   30  C   UNL     1     -12.350   5.587  72.067  1.00  0.00     0.676 A  
HETATM   31  O   UNL     1     -14.091   9.347  71.643  1.00  0.00    -0.236 OA 
HETATM   32  C   UNL     1     -10.963   5.516  72.193  1.00  0.00    -0.291 A  
HETATM   33  C   UNL     1     -10.204   6.687  72.205  1.00  0.00    -0.209 A  
ENDBRANCH  20  21
ENDBRANCH  18  20
ENDBRANCH  16  17
ENDBRANCH  15  16
ENDBRANCH  13  15
ENDBRANCH  10  11
ENDBRANCH   9  10
ENDBRANCH   5   6
ENDBRANCH   4   5
TORSDOF 9
ENDMDL
MODEL      466
REMARK 921   NORMALIZED FREE ENERGY PREDICTED BY IDOCK:   40.99 KCAL/MOL
REMARK 922        TOTAL FREE ENERGY PREDICTED BY IDOCK:   59.35 KCAL/MOL
REMARK 923 INTER-LIGAND FREE ENERGY PREDICTED BY IDOCK:   25.72 KCAL/MOL
REMARK 924 INTRA-LIGAND FREE ENERGY PREDICTED BY IDOCK:   33.63 KCAL/MOL
REMARK 927      BINDING AFFINITY PREDICTED BY RF-SCORE:    0.00 PKD
ROOT
HETATM    1  C   UNL     1     -12.664  21.035  66.985  1.00  0.00     7.386 C  
HETATM    2  C   UNL     1     -12.648  19.548  66.641  1.00  0.00     5.101 C  
HETATM    3  C   UNL     1     -11.342  19.196  65.921  1.00  0.00     0.775 C  
HETATM    4  C   UNL     1     -12.867  18.717  67.920  1.00  0.00     6.931 C  
ENDROOT
BRANCH   4   5
HETATM    5  C   UNL     1     -12.869  17.222  67.630  1.00  0.00     5.257 C  
BRANCH   5   6
HETATM    6  C   UNL     1     -12.548  16.379  68.860  1.00  0.00     1.630 C  
HETATM    7  C   UNL     1     -11.693  15.150  68.495  1.00  0.00    -0.347 C  
HETATM    8  C   UNL     1     -10.358  15.547  67.847  1.00  0.00    -0.250 C  
HETATM    9  C   UNL     1     -11.482  14.292  69.755  1.00  0.00    -0.317 C  
BRANCH   9  10
HETATM   10  C   UNL     1     -10.638  13.058  69.456  1.00  0.00     0.371 C  
BRANCH  10  11
HETATM   11  C   UNL     1      -9.180  13.405  69.202  1.00  0.00     0.564 C  
HETATM   12  C   UNL     1      -9.034  14.730  68.429  1.00  0.00    -0.187 C  
HETATM   13  C   UNL     1      -7.561  14.994  68.061  1.00  0.00    -0.126 C  
HETATM   14  C   UNL     1      -9.600  15.927  69.204  1.00  0.00    -0.253 C  
BRANCH  13  15
HETATM   15  C   UNL     1      -6.912  13.912  67.189  1.00  0.00     0.348 C  
BRANCH  15  16
HETATM   16  C   UNL     1      -6.436  12.706  67.999  1.00  0.00    -0.093 C  
BRANCH  16  17
HETATM   17  C   UNL     1      -6.253  11.484  67.135  1.00  0.00    -0.121 C  
HETATM   18  C   UNL     1      -5.626  11.597  65.947  1.00  0.00     0.570 C  
HETATM   19  C   UNL     1      -6.744  10.180  67.693  1.00  0.00    -0.075 C  
BRANCH  18  20
HETATM   20  C   UNL     1      -5.281  10.478  65.000  1.00  0.00    -0.139 C  
BRANCH  20  21
HETATM   21  C   UNL     1      -6.263   9.329  65.116  1.00  0.00    -0.068 C  
HETATM   22  C   UNL     1      -6.616   8.515  64.099  1.00  0.00    -0.071 C  
HETATM   23  C   UNL     1      -6.142   8.635  62.675  1.00  0.00    -0.087 C  
HETATM   24  C   UNL     1      -7.532   7.357  64.324  1.00  0.00    -0.098 C  
HETATM   25  O   UNL     1      -7.889   6.644  63.396  1.00  0.00    -0.112 OA 
HETATM   26  C   UNL     1      -7.984   7.076  65.695  1.00  0.00    -0.123 A  
HETATM   27  C   UNL     1      -7.646   7.929  66.735  1.00  0.00    -0.098 A  
HETATM   28  C   UNL     1      -6.834   9.126  66.480  1.00  0.00    -0.080 C  
HETATM   29  C   UNL     1      -8.090   7.656  68.036  1.00  0.00    -0.123 A  
HETATM   30  C   UNL     1      -8.865   6.523  68.290  1.00  0.00    -0.119 A  
HETATM   31  O   UNL     1      -6.632   9.922  67.390  1.00  0.00    -0.068 OA 
HETATM   32  C   UNL     1      -9.200   5.662  67.245  1.00  0.00    -0.110 A  
HETATM   33  C   UNL     1      -8.762   5.937  65.948  1.00  0.00    -0.152 A  
ENDBRANCH  20  21
ENDBRANCH  18  20
ENDBRANCH  16  17
ENDBRANCH  15  16
ENDBRANCH  13  15
ENDBRANCH  10  11
ENDBRANCH   9  10
ENDBRANCH   5   6
ENDBRANCH   4   5
TORSDOF 9
ENDMDL
MODEL      467
REMARK 921   NORMALIZED FREE ENERGY PREDICTED BY IDOCK:   41.17 KCAL/MOL
REMARK 922        TOTAL FREE ENERGY PREDICTED BY IDOCK:   59.63 KCAL/MOL
REMARK 923 INTER-LIGAND FREE ENERGY PREDICTED BY IDOCK:   22.23 KCAL/MOL
REMARK 924 INTRA-LIGAND FREE ENERGY PREDICTED BY IDOCK:   37.40 KCAL/MOL
REMARK 927      BINDING AFFINITY PREDICTED BY RF-SCORE:    0.00 PKD
ROOT
HETATM    1  C   UNL     1      -9.146  18.828  69.058  1.00  0.00    -0.157 C  
HETATM    2  C   UNL     1      -7.829  18.143  69.415  1.00  0.00     0.288 C  
HETATM    3  C   UNL     1      -7.018  19.038  70.357  1.00  0.00     0.747 C  
HETATM    4  C   UNL     1      -8.114  16.751  70.013  1.00  0.00     1.593 C  
ENDROOT
BRANCH   4   5
HETATM    5  C   UNL     1      -6.830  16.019  70.379  1.00  0.00     0.720 C  
BRANCH   5   6
HETATM    6  C   UNL     1      -6.846  14.551  69.964  1.00  0.00    -0.070 C  
HETATM    7  C   UNL     1      -8.268  14.082  69.602  1.00  0.00     0.796 C  
HETATM    8  C   UNL     1      -8.866  14.894  68.443  1.00  0.00    -0.178 C  
HETATM    9  C   UNL     1      -8.236  12.577  69.285  1.00  0.00     0.737 C  
BRANCH   9  10
HETATM   10  C   UNL     1      -9.620  12.052  68.915  1.00  0.00     0.100 C  
BRANCH  10  11
HETATM   11  C   UNL     1     -10.516  13.143  68.352  1.00  0.00    -0.261 C  
HETATM   12  C   UNL     1     -11.838  13.258  69.135  1.00  0.00    -0.378 C  
HETATM   13  C   UNL     1     -12.788  14.271  68.466  1.00  0.00     1.231 C  
HETATM   14  C   UNL     1     -11.617  13.642  70.604  1.00  0.00     0.051 C  
BRANCH  13  15
HETATM   15  C   UNL     1     -13.171  13.934  67.019  1.00  0.00     2.467 C  
BRANCH  15  16
HETATM   16  C   UNL     1     -11.960  13.855  66.089  1.00  0.00    -0.449 C  
BRANCH  16  17
HETATM   17  C   UNL     1     -10.750  14.532  66.682  1.00  0.00    -0.305 C  
HETATM   18  C   UNL     1      -9.540  13.950  66.570  1.00  0.00    -0.299 C  
HETATM   19  C   UNL     1     -10.970  15.870  67.323  1.00  0.00    -0.234 C  
BRANCH  18  20
HETATM   20  C   UNL     1      -8.220  14.518  67.021  1.00  0.00    -0.164 C  
BRANCH  20  21
HETATM   21  C   UNL     1      -8.116  15.997  66.705  1.00  0.00    -0.311 C  
HETATM   22  C   UNL     1      -7.096  16.794  67.087  1.00  0.00    -0.222 C  
HETATM   23  C   UNL     1      -5.921  16.371  67.928  1.00  0.00    -0.139 C  
HETATM   24  C   UNL     1      -7.038  18.224  66.662  1.00  0.00    -0.212 C  
HETATM   25  O   UNL     1      -6.137  18.961  67.042  1.00  0.00    -0.167 OA 
HETATM   26  C   UNL     1      -8.078  18.729  65.754  1.00  0.00     0.167 A  
HETATM   27  C   UNL     1      -9.142  17.921  65.385  1.00  0.00     1.383 A  
HETATM   28  C   UNL     1      -9.246  16.548  65.899  1.00  0.00    -0.174 C  
HETATM   29  C   UNL     1     -10.133  18.415  64.527  1.00  0.00     4.907 A  
HETATM   30  C   UNL     1     -10.047  19.719  64.034  1.00  0.00     7.441 A  
HETATM   31  O   UNL     1     -10.244  15.883  65.646  1.00  0.00    -0.334 OA 
HETATM   32  C   UNL     1      -8.974  20.531  64.401  1.00  0.00     3.203 A  
HETATM   33  C   UNL     1      -7.990  20.039  65.260  1.00  0.00     0.456 A  
ENDBRANCH  20  21
ENDBRANCH  18  20
ENDBRANCH  16  17
ENDBRANCH  15  16
ENDBRANCH  13  15
ENDBRANCH  10  11
ENDBRANCH   9  10
ENDBRANCH   5   6
ENDBRANCH   4   5
TORSDOF 9
ENDMDL
MODEL      468
REMARK 921   NORMALIZED FREE ENERGY PREDICTED BY IDOCK:   48.70 KCAL/MOL
REMARK 922        TOTAL FREE ENERGY PREDICTED BY IDOCK:   71.13 KCAL/MOL
REMARK 923 INTER-LIGAND FREE ENERGY PREDICTED BY IDOCK:   30.00 KCAL/MOL
REMARK 924 INTRA-LIGAND FREE ENERGY PREDICTED BY IDOCK:   41.12 KCAL/MOL
REMARK 927      BINDING AFFINITY PREDICTED BY RF-SCORE:    0.00 PKD
ROOT
HETATM    1  C   UNL     1     -14.025  17.798  72.493  1.00  0.00    10.729 C  
HETATM    2  C   UNL     1     -12.788  16.988  72.875  1.00  0.00     1.724 C  
HETATM    3  C   UNL     1     -12.904  16.518  74.329  1.00  0.00    -0.090 C  
HETATM    4  C   UNL     1     -12.603  15.823  71.884  1.00  0.00    -0.522 C  
ENDROOT
BRANCH   4   5
HETATM    5  C   UNL     1     -11.375  14.987  72.215  1.00  0.00    -0.177 C  
BRANCH   5   6
HETATM    6  C   UNL     1     -10.393  14.889  71.052  1.00  0.00     0.759 C  
HETATM    7  C   UNL     1     -10.421  13.489  70.406  1.00  0.00     2.078 C  
HETATM    8  C   UNL     1     -11.814  13.131  69.866  1.00  0.00    -0.378 C  
HETATM    9  C   UNL     1      -9.349  13.422  69.305  1.00  0.00     0.735 C  
BRANCH   9  10
HETATM   10  C   UNL     1      -9.329  12.057  68.626  1.00  0.00    -0.056 C  
BRANCH  10  11
HETATM   11  C   UNL     1      -7.941  11.678  68.135  1.00  0.00    -0.141 C  
HETATM   12  C   UNL     1      -8.002  10.680  66.963  1.00  0.00    -0.121 C  
HETATM   13  C   UNL     1      -6.589  10.204  66.572  1.00  0.00    -0.077 C  
HETATM   14  C   UNL     1      -8.715  11.261  65.735  1.00  0.00    -0.111 C  
BRANCH  13  15
HETATM   15  C   UNL     1      -5.813   9.504  67.694  1.00  0.00    -0.044 C  
BRANCH  15  16
HETATM   16  C   UNL     1      -6.074   7.998  67.744  1.00  0.00    -0.047 C  
BRANCH  16  17
HETATM   17  C   UNL     1      -7.498   7.662  67.381  1.00  0.00    -0.100 C  
HETATM   18  C   UNL     1      -8.471   8.570  67.594  1.00  0.00    -0.129 C  
HETATM   19  C   UNL     1      -7.736   6.327  66.740  1.00  0.00    -0.100 C  
BRANCH  18  20
HETATM   20  C   UNL     1      -9.924   8.441  67.216  1.00  0.00    -0.291 C  
BRANCH  20  21
HETATM   21  C   UNL     1     -10.510   9.777  66.804  1.00  0.00    -0.259 C  
HETATM   22  C   UNL     1     -10.157  10.967  67.335  1.00  0.00    -0.223 C  
HETATM   23  C   UNL     1      -9.168  11.169  68.452  1.00  0.00    -0.175 C  
HETATM   24  C   UNL     1     -10.731  12.242  66.812  1.00  0.00    -0.240 C  
HETATM   25  O   UNL     1     -10.447  13.318  67.319  1.00  0.00    -0.245 OA 
HETATM   26  C   UNL     1     -11.635  12.181  65.654  1.00  0.00    -0.409 A  
HETATM   27  C   UNL     1     -12.022  10.958  65.127  1.00  0.00     1.837 A  
HETATM   28  C   UNL     1     -11.535   9.706  65.722  1.00  0.00     3.303 C  
HETATM   29  C   UNL     1     -12.891  10.912  64.029  1.00  0.00     3.092 A  
HETATM   30  C   UNL     1     -13.363  12.096  63.458  1.00  0.00     0.384 A  
HETATM   31  O   UNL     1     -11.968   8.635  65.310  1.00  0.00     9.415 OA 
HETATM   32  C   UNL     1     -12.970  13.326  63.984  1.00  0.00     0.326 A  
HETATM   33  C   UNL     1     -12.108  13.371  65.081  1.00  0.00    -0.442 A  
ENDBRANCH  20  21
ENDBRANCH  18  20
ENDBRANCH  16  17
ENDBRANCH  15  16
ENDBRANCH  13  15
ENDBRANCH  10  11
ENDBRANCH   9  10
ENDBRANCH   5   6
ENDBRANCH   4   5
TORSDOF 9
ENDMDL
