MODEL        1
REMARK 921   NORMALIZED FREE ENERGY PREDICTED BY IDOCK:   -6.67 KCAL/MOL
REMARK 922        TOTAL FREE ENERGY PREDICTED BY IDOCK:   -7.65 KCAL/MOL
REMARK 923 INTER-LIGAND FREE ENERGY PREDICTED BY IDOCK:   -7.45 KCAL/MOL
REMARK 924 INTRA-LIGAND FREE ENERGY PREDICTED BY IDOCK:   -0.20 KCAL/MOL
REMARK 927      BINDING AFFINITY PREDICTED BY RF-SCORE:    0.00 PKD
ROOT
HETATM    1  C   UNL     1     -10.455  11.814  65.658  1.00  0.00    -0.265 C  
HETATM    2  N   UNL     1     -10.520  10.857  64.542  1.00  0.00    -0.349 NA 
HETATM    3  C   UNL     1     -10.847  11.601  63.375  1.00  0.00    -0.379 C  
HETATM    4  C   UNL     1      -9.295  10.090  64.328  1.00  0.00    -0.288 C  
HETATM    5  C   UNL     1     -11.405  12.882  63.915  1.00  0.00    -0.489 C  
HETATM    6  C   UNL     1     -11.708  12.977  65.490  1.00  0.00    -0.408 C  
HETATM    7  C   UNL     1     -11.812  14.569  65.217  1.00  0.00    -0.358 C  
HETATM    8  C   UNL     1     -11.613  13.231  67.058  1.00  0.00    -0.404 A  
HETATM    9  C   UNL     1     -11.190  12.122  67.776  1.00  0.00    -0.275 A  
HETATM   10  C   UNL     1     -11.316  12.031  69.171  1.00  0.00    -0.338 A  
HETATM   11  N   UNL     1     -10.542  11.207  66.987  1.00  0.00    -0.239 NA 
HETATM   12  C   UNL     1     -10.646   9.784  67.237  1.00  0.00    -0.255 C  
HETATM   13  C   UNL     1     -11.791  13.103  69.916  1.00  0.00    -0.378 A  
HETATM   14  C   UNL     1     -12.077  14.282  69.252  1.00  0.00    -0.313 A  
HETATM   15  C   UNL     1     -12.017  14.340  67.851  1.00  0.00    -0.364 A  
ENDROOT
BRANCH  14  16
HETATM   16  O   UNL     1     -12.520  15.463  69.889  1.00  0.00    -0.325 OA 
BRANCH  16  17
HETATM   17  C   UNL     1     -13.100  15.485  71.157  1.00  0.00    -0.507 C  
HETATM   18  N   UNL     1     -12.208  15.996  72.053  1.00  0.00    -0.489 N  
HETATM   19  O   UNL     1     -14.230  15.102  71.438  1.00  0.00    -0.476 OA 
HETATM   20  H   UNL     1     -11.287  16.275  71.715  1.00  0.00     0.000 HD 
HETATM   21  C   UNL     1     -12.502  16.159  73.451  1.00  0.00    -0.555 C  
ENDBRANCH  16  17
ENDBRANCH  14  16
TORSDOF 2
ENDMDL
MODEL        2
REMARK 921   NORMALIZED FREE ENERGY PREDICTED BY IDOCK:   -6.51 KCAL/MOL
REMARK 922        TOTAL FREE ENERGY PREDICTED BY IDOCK:   -7.47 KCAL/MOL
REMARK 923 INTER-LIGAND FREE ENERGY PREDICTED BY IDOCK:   -7.25 KCAL/MOL
REMARK 924 INTRA-LIGAND FREE ENERGY PREDICTED BY IDOCK:   -0.22 KCAL/MOL
REMARK 927      BINDING AFFINITY PREDICTED BY RF-SCORE:    0.00 PKD
ROOT
HETATM    1  C   UNL     1     -11.513  12.005  65.532  1.00  0.00    -0.313 C  
HETATM    2  N   UNL     1     -10.957  12.529  64.275  1.00  0.00    -0.333 NA 
HETATM    3  C   UNL     1     -10.298  11.448  63.628  1.00  0.00    -0.410 C  
HETATM    4  C   UNL     1     -11.943  13.130  63.379  1.00  0.00    -0.483 C  
HETATM    5  C   UNL     1     -10.097  10.447  64.726  1.00  0.00    -0.387 C  
HETATM    6  C   UNL     1     -10.398  10.903  66.236  1.00  0.00    -0.306 C  
HETATM    7  C   UNL     1     -10.350   9.319  66.560  1.00  0.00    -0.270 C  
HETATM    8  C   UNL     1     -11.081  11.192  67.644  1.00  0.00    -0.348 A  
HETATM    9  C   UNL     1     -11.631  12.461  67.745  1.00  0.00    -0.352 A  
HETATM   10  C   UNL     1     -12.014  13.024  68.972  1.00  0.00    -0.312 A  
HETATM   11  N   UNL     1     -11.860  13.029  66.519  1.00  0.00    -0.391 NA 
HETATM   12  C   UNL     1     -11.723  14.456  66.307  1.00  0.00    -0.385 C  
HETATM   13  C   UNL     1     -11.945  12.288  70.148  1.00  0.00    -0.377 A  
HETATM   14  C   UNL     1     -11.548  10.965  70.066  1.00  0.00    -0.341 A  
HETATM   15  C   UNL     1     -11.099  10.434  68.847  1.00  0.00    -0.296 A  
ENDROOT
BRANCH  14  16
HETATM   16  O   UNL     1     -11.479  10.088  71.172  1.00  0.00    -0.357 OA 
BRANCH  16  17
HETATM   17  C   UNL     1     -12.570   9.367  71.654  1.00  0.00    -0.375 C  
HETATM   18  N   UNL     1     -12.529   8.098  71.159  1.00  0.00    -0.465 N  
HETATM   19  O   UNL     1     -13.442   9.797  72.401  1.00  0.00    -0.413 OA 
HETATM   20  H   UNL     1     -11.762   7.846  70.534  1.00  0.00     0.000 HD 
HETATM   21  C   UNL     1     -13.512   7.097  71.473  1.00  0.00    -0.332 C  
ENDBRANCH  16  17
ENDBRANCH  14  16
TORSDOF 2
ENDMDL
MODEL        3
REMARK 921   NORMALIZED FREE ENERGY PREDICTED BY IDOCK:   -6.48 KCAL/MOL
REMARK 922        TOTAL FREE ENERGY PREDICTED BY IDOCK:   -7.44 KCAL/MOL
REMARK 923 INTER-LIGAND FREE ENERGY PREDICTED BY IDOCK:   -7.28 KCAL/MOL
REMARK 924 INTRA-LIGAND FREE ENERGY PREDICTED BY IDOCK:   -0.16 KCAL/MOL
REMARK 927      BINDING AFFINITY PREDICTED BY RF-SCORE:    0.00 PKD
ROOT
HETATM    1  C   UNL     1     -11.299  12.492  66.117  1.00  0.00    -0.343 C  
HETATM    2  N   UNL     1     -10.433  12.138  64.982  1.00  0.00    -0.280 NA 
HETATM    3  C   UNL     1     -10.168  10.744  65.080  1.00  0.00    -0.306 C  
HETATM    4  C   UNL     1     -10.992  12.456  63.669  1.00  0.00    -0.470 C  
HETATM    5  C   UNL     1     -10.506  10.418  66.502  1.00  0.00    -0.262 C  
HETATM    6  C   UNL     1     -10.793  11.631  67.515  1.00  0.00    -0.287 C  
HETATM    7  C   UNL     1     -11.400  10.481  68.477  1.00  0.00    -0.320 C  
HETATM    8  C   UNL     1     -11.480  12.763  68.398  1.00  0.00    -0.349 A  
HETATM    9  C   UNL     1     -11.506  14.007  67.785  1.00  0.00    -0.322 A  
HETATM   10  C   UNL     1     -11.791  15.189  68.485  1.00  0.00    -0.307 A  
HETATM   11  N   UNL     1     -11.344  13.922  66.426  1.00  0.00    -0.319 NA 
HETATM   12  C   UNL     1     -10.642  14.947  65.682  1.00  0.00    -0.344 C  
HETATM   13  C   UNL     1     -12.158  15.155  69.825  1.00  0.00    -0.354 A  
HETATM   14  C   UNL     1     -12.294  13.919  70.431  1.00  0.00    -0.363 A  
HETATM   15  C   UNL     1     -11.937  12.749  69.744  1.00  0.00    -0.362 A  
ENDROOT
BRANCH  14  16
HETATM   16  O   UNL     1     -12.706  13.734  71.770  1.00  0.00    -0.324 OA 
BRANCH  16  17
HETATM   17  C   UNL     1     -13.179  14.764  72.582  1.00  0.00    -0.455 C  
HETATM   18  N   UNL     1     -12.264  15.028  73.557  1.00  0.00    -0.438 N  
HETATM   19  O   UNL     1     -14.251  15.346  72.455  1.00  0.00    -0.537 OA 
HETATM   20  H   UNL     1     -11.406  14.476  73.579  1.00  0.00     0.000 HD 
HETATM   21  C   UNL     1     -12.448  16.045  74.556  1.00  0.00    -0.541 C  
ENDBRANCH  16  17
ENDBRANCH  14  16
TORSDOF 2
ENDMDL
MODEL        4
REMARK 921   NORMALIZED FREE ENERGY PREDICTED BY IDOCK:   -6.47 KCAL/MOL
REMARK 922        TOTAL FREE ENERGY PREDICTED BY IDOCK:   -7.43 KCAL/MOL
REMARK 923 INTER-LIGAND FREE ENERGY PREDICTED BY IDOCK:   -7.23 KCAL/MOL
REMARK 924 INTRA-LIGAND FREE ENERGY PREDICTED BY IDOCK:   -0.20 KCAL/MOL
REMARK 927      BINDING AFFINITY PREDICTED BY RF-SCORE:    0.00 PKD
ROOT
HETATM    1  C   UNL     1     -12.415  14.151  70.414  1.00  0.00    -0.357 C  
HETATM    2  N   UNL     1     -12.308  14.367  71.866  1.00  0.00    -0.317 NA 
HETATM    3  C   UNL     1     -11.976  15.735  72.060  1.00  0.00    -0.479 C  
HETATM    4  C   UNL     1     -13.512  14.025  72.621  1.00  0.00    -0.547 C  
HETATM    5  C   UNL     1     -11.457  16.168  70.722  1.00  0.00    -0.408 C  
HETATM    6  C   UNL     1     -11.185  15.042  69.610  1.00  0.00    -0.296 C  
HETATM    7  C   UNL     1     -11.111  16.291  68.585  1.00  0.00    -0.356 C  
HETATM    8  C   UNL     1     -11.315  14.023  68.394  1.00  0.00    -0.321 A  
HETATM    9  C   UNL     1     -11.726  12.754  68.772  1.00  0.00    -0.323 A  
HETATM   10  C   UNL     1     -11.624  11.641  67.924  1.00  0.00    -0.369 A  
HETATM   11  N   UNL     1     -12.339  12.749  69.999  1.00  0.00    -0.174 NA 
HETATM   12  C   UNL     1     -12.208  11.628  70.907  1.00  0.00    -0.298 C  
HETATM   13  C   UNL     1     -11.186  11.781  66.613  1.00  0.00    -0.383 A  
HETATM   14  C   UNL     1     -10.914  13.055  66.150  1.00  0.00    -0.280 A  
HETATM   15  C   UNL     1     -10.950  14.151  67.025  1.00  0.00    -0.303 A  
ENDROOT
BRANCH  14  16
HETATM   16  O   UNL     1     -10.509  13.349  64.828  1.00  0.00    -0.366 OA 
BRANCH  16  17
HETATM   17  C   UNL     1     -10.657  12.465  63.761  1.00  0.00    -0.452 C  
HETATM   18  N   UNL     1      -9.456  11.880  63.487  1.00  0.00    -0.565 N  
HETATM   19  O   UNL     1     -11.697  12.243  63.149  1.00  0.00    -0.377 OA 
HETATM   20  H   UNL     1      -8.649  12.145  64.052  1.00  0.00     0.000 HD 
HETATM   21  C   UNL     1      -9.272  10.910  62.442  1.00  0.00    -0.262 C  
ENDBRANCH  16  17
ENDBRANCH  14  16
TORSDOF 2
ENDMDL
MODEL        5
REMARK 921   NORMALIZED FREE ENERGY PREDICTED BY IDOCK:   -6.45 KCAL/MOL
REMARK 922        TOTAL FREE ENERGY PREDICTED BY IDOCK:   -7.41 KCAL/MOL
REMARK 923 INTER-LIGAND FREE ENERGY PREDICTED BY IDOCK:   -7.30 KCAL/MOL
REMARK 924 INTRA-LIGAND FREE ENERGY PREDICTED BY IDOCK:   -0.11 KCAL/MOL
REMARK 927      BINDING AFFINITY PREDICTED BY RF-SCORE:    0.00 PKD
ROOT
HETATM    1  C   UNL     1     -10.488  12.635  67.808  1.00  0.00    -0.221 C  
HETATM    2  N   UNL     1     -10.224  12.488  66.369  1.00  0.00    -0.240 NA 
HETATM    3  C   UNL     1     -10.197  13.797  65.815  1.00  0.00    -0.311 C  
HETATM    4  C   UNL     1      -8.988  11.777  66.048  1.00  0.00    -0.107 C  
HETATM    5  C   UNL     1     -10.890  14.634  66.847  1.00  0.00    -0.305 C  
HETATM    6  C   UNL     1     -11.639  13.887  68.055  1.00  0.00    -0.368 C  
HETATM    7  C   UNL     1     -11.661  15.352  68.743  1.00  0.00    -0.382 C  
HETATM    8  C   UNL     1     -12.006  13.205  69.446  1.00  0.00    -0.347 A  
HETATM    9  C   UNL     1     -11.810  11.833  69.461  1.00  0.00    -0.337 A  
HETATM   10  C   UNL     1     -12.337  11.004  70.463  1.00  0.00    -0.462 A  
HETATM   11  N   UNL     1     -10.958  11.417  68.470  1.00  0.00    -0.204 NA 
HETATM   12  C   UNL     1     -11.128  10.137  67.812  1.00  0.00    -0.227 C  
HETATM   13  C   UNL     1     -13.010  11.541  71.553  1.00  0.00    -0.485 A  
HETATM   14  C   UNL     1     -13.091  12.919  71.653  1.00  0.00    -0.335 A  
HETATM   15  C   UNL     1     -12.626  13.735  70.611  1.00  0.00    -0.386 A  
ENDROOT
BRANCH  14  16
HETATM   16  O   UNL     1     -13.703  13.601  72.729  1.00  0.00    -0.707 OA 
BRANCH  16  17
HETATM   17  C   UNL     1     -13.616  14.979  72.919  1.00  0.00    -0.426 C  
HETATM   18  N   UNL     1     -12.568  15.256  73.747  1.00  0.00    -0.567 N  
HETATM   19  O   UNL     1     -14.362  15.821  72.431  1.00  0.00    -0.514 OA 
HETATM   20  H   UNL     1     -12.016  14.478  74.107  1.00  0.00     0.000 HD 
HETATM   21  C   UNL     1     -12.204  16.592  74.136  1.00  0.00    -0.367 C  
ENDBRANCH  16  17
ENDBRANCH  14  16
TORSDOF 2
ENDMDL
MODEL        6
REMARK 921   NORMALIZED FREE ENERGY PREDICTED BY IDOCK:   -6.30 KCAL/MOL
REMARK 922        TOTAL FREE ENERGY PREDICTED BY IDOCK:   -7.24 KCAL/MOL
REMARK 923 INTER-LIGAND FREE ENERGY PREDICTED BY IDOCK:   -7.09 KCAL/MOL
REMARK 924 INTRA-LIGAND FREE ENERGY PREDICTED BY IDOCK:   -0.15 KCAL/MOL
REMARK 927      BINDING AFFINITY PREDICTED BY RF-SCORE:    0.00 PKD
ROOT
HETATM    1  C   UNL     1     -11.605  13.466  66.766  1.00  0.00    -0.365 C  
HETATM    2  N   UNL     1     -10.803  14.122  65.722  1.00  0.00    -0.290 NA 
HETATM    3  C   UNL     1     -10.304  13.097  64.874  1.00  0.00    -0.334 C  
HETATM    4  C   UNL     1     -11.528  15.121  64.938  1.00  0.00    -0.374 C  
HETATM    5  C   UNL     1     -10.447  11.853  65.697  1.00  0.00    -0.302 C  
HETATM    6  C   UNL     1     -10.833  12.008  67.249  1.00  0.00    -0.290 C  
HETATM    7  C   UNL     1     -11.150  10.423  67.168  1.00  0.00    -0.195 C  
HETATM    8  C   UNL     1     -11.612  12.114  68.633  1.00  0.00    -0.372 A  
HETATM    9  C   UNL     1     -11.901  13.418  69.010  1.00  0.00    -0.335 A  
HETATM   10  C   UNL     1     -12.309  13.757  70.308  1.00  0.00    -0.407 A  
HETATM   11  N   UNL     1     -11.855  14.288  67.951  1.00  0.00    -0.359 NA 
HETATM   12  C   UNL     1     -11.405  15.655  68.113  1.00  0.00    -0.340 C  
HETATM   13  C   UNL     1     -12.537  12.775  71.264  1.00  0.00    -0.347 A  
HETATM   14  C   UNL     1     -12.410  11.452  70.882  1.00  0.00    -0.381 A  
HETATM   15  C   UNL     1     -11.932  11.126  69.604  1.00  0.00    -0.429 A  
ENDROOT
BRANCH  14  16
HETATM   16  O   UNL     1     -12.658  10.353  71.735  1.00  0.00    -0.408 OA 
BRANCH  16  17
HETATM   17  C   UNL     1     -11.931   9.164  71.692  1.00  0.00    -0.367 C  
HETATM   18  N   UNL     1     -12.707   8.178  71.160  1.00  0.00    -0.494 N  
HETATM   19  O   UNL     1     -10.777   9.013  72.078  1.00  0.00    -0.349 OA 
HETATM   20  H   UNL     1     -13.660   8.409  70.881  1.00  0.00     0.000 HD 
HETATM   21  C   UNL     1     -12.247   6.828  70.973  1.00  0.00    -0.352 C  
ENDBRANCH  16  17
ENDBRANCH  14  16
TORSDOF 2
ENDMDL
MODEL        7
REMARK 921   NORMALIZED FREE ENERGY PREDICTED BY IDOCK:   -6.24 KCAL/MOL
REMARK 922        TOTAL FREE ENERGY PREDICTED BY IDOCK:   -7.17 KCAL/MOL
REMARK 923 INTER-LIGAND FREE ENERGY PREDICTED BY IDOCK:   -6.94 KCAL/MOL
REMARK 924 INTRA-LIGAND FREE ENERGY PREDICTED BY IDOCK:   -0.22 KCAL/MOL
REMARK 927      BINDING AFFINITY PREDICTED BY RF-SCORE:    0.00 PKD
ROOT
HETATM    1  C   UNL     1     -11.928  14.065  70.969  1.00  0.00    -0.233 C  
HETATM    2  N   UNL     1     -12.717  15.108  71.642  1.00  0.00    -0.329 NA 
HETATM    3  C   UNL     1     -13.445  14.473  72.684  1.00  0.00    -0.493 C  
HETATM    4  C   UNL     1     -11.928  16.216  72.177  1.00  0.00    -0.537 C  
HETATM    5  C   UNL     1     -13.413  13.023  72.307  1.00  0.00    -0.645 C  
HETATM    6  C   UNL     1     -12.861  12.627  70.852  1.00  0.00    -0.178 C  
HETATM    7  C   UNL     1     -12.797  11.126  71.454  1.00  0.00    -0.544 C  
HETATM    8  C   UNL     1     -11.946  12.195  69.623  1.00  0.00    -0.351 A  
HETATM    9  C   UNL     1     -11.428  13.267  68.911  1.00  0.00    -0.298 A  
HETATM   10  C   UNL     1     -10.851  13.123  67.640  1.00  0.00    -0.269 A  
HETATM   11  N   UNL     1     -11.443  14.430  69.637  1.00  0.00    -0.271 NA 
HETATM   12  C   UNL     1     -11.663  15.715  69.005  1.00  0.00    -0.395 C  
HETATM   13  C   UNL     1     -10.683  11.868  67.070  1.00  0.00    -0.280 A  
HETATM   14  C   UNL     1     -11.045  10.760  67.816  1.00  0.00    -0.318 A  
HETATM   15  C   UNL     1     -11.688  10.918  69.053  1.00  0.00    -0.391 A  
ENDROOT
BRANCH  14  16
HETATM   16  O   UNL     1     -10.886   9.425  67.382  1.00  0.00    -0.263 OA 
BRANCH  16  17
HETATM   17  C   UNL     1     -10.316   8.421  68.164  1.00  0.00    -0.204 C  
HETATM   18  N   UNL     1     -11.157   7.348  68.205  1.00  0.00    -0.463 N  
HETATM   19  O   UNL     1      -9.235   8.483  68.738  1.00  0.00    -0.143 OA 
HETATM   20  H   UNL     1     -12.040   7.405  67.699  1.00  0.00     0.000 HD 
HETATM   21  C   UNL     1     -10.858   6.141  68.926  1.00  0.00    -0.340 C  
ENDBRANCH  16  17
ENDBRANCH  14  16
TORSDOF 2
ENDMDL
MODEL        8
REMARK 921   NORMALIZED FREE ENERGY PREDICTED BY IDOCK:   -6.21 KCAL/MOL
REMARK 922        TOTAL FREE ENERGY PREDICTED BY IDOCK:   -7.14 KCAL/MOL
REMARK 923 INTER-LIGAND FREE ENERGY PREDICTED BY IDOCK:   -7.03 KCAL/MOL
REMARK 924 INTRA-LIGAND FREE ENERGY PREDICTED BY IDOCK:   -0.11 KCAL/MOL
REMARK 927      BINDING AFFINITY PREDICTED BY RF-SCORE:    0.00 PKD
ROOT
HETATM    1  C   UNL     1     -10.079  11.116  68.333  1.00  0.00    -0.184 C  
HETATM    2  N   UNL     1      -9.667  10.677  66.991  1.00  0.00    -0.173 NA 
HETATM    3  C   UNL     1      -9.641  11.833  66.164  1.00  0.00    -0.232 C  
HETATM    4  C   UNL     1      -8.375   9.993  66.947  1.00  0.00    -0.125 C  
HETATM    5  C   UNL     1     -10.468  12.828  66.918  1.00  0.00    -0.250 C  
HETATM    6  C   UNL     1     -11.302  12.315  68.192  1.00  0.00    -0.349 C  
HETATM    7  C   UNL     1     -11.456  13.890  68.531  1.00  0.00    -0.346 C  
HETATM    8  C   UNL     1     -11.777  11.931  69.662  1.00  0.00    -0.413 A  
HETATM    9  C   UNL     1     -11.524  10.610  70.000  1.00  0.00    -0.325 A  
HETATM   10  C   UNL     1     -12.113   9.987  71.111  1.00  0.00    -0.475 A  
HETATM   11  N   UNL     1     -10.561  10.043  69.205  1.00  0.00    -0.206 NA 
HETATM   12  C   UNL     1     -10.609   8.643  68.837  1.00  0.00    -0.144 C  
HETATM   13  C   UNL     1     -12.914  10.705  71.990  1.00  0.00    -0.466 A  
HETATM   14  C   UNL     1     -13.064  12.063  71.773  1.00  0.00    -0.355 A  
HETATM   15  C   UNL     1     -12.532  12.660  70.621  1.00  0.00    -0.323 A  
ENDROOT
BRANCH  14  16
HETATM   16  O   UNL     1     -13.809  12.922  72.612  1.00  0.00    -0.596 OA 
BRANCH  16  17
HETATM   17  C   UNL     1     -13.710  14.312  72.576  1.00  0.00    -0.505 C  
HETATM   18  N   UNL     1     -12.817  14.727  73.520  1.00  0.00    -0.499 N  
HETATM   19  O   UNL     1     -14.329  15.058  71.826  1.00  0.00    -0.475 OA 
HETATM   20  H   UNL     1     -12.364  14.022  74.101  1.00  0.00     0.000 HD 
HETATM   21  C   UNL     1     -12.482  16.108  73.734  1.00  0.00    -0.587 C  
ENDBRANCH  16  17
ENDBRANCH  14  16
TORSDOF 2
ENDMDL
MODEL        9
REMARK 921   NORMALIZED FREE ENERGY PREDICTED BY IDOCK:   -6.20 KCAL/MOL
REMARK 922        TOTAL FREE ENERGY PREDICTED BY IDOCK:   -7.13 KCAL/MOL
REMARK 923 INTER-LIGAND FREE ENERGY PREDICTED BY IDOCK:   -7.10 KCAL/MOL
REMARK 924 INTRA-LIGAND FREE ENERGY PREDICTED BY IDOCK:   -0.03 KCAL/MOL
REMARK 927      BINDING AFFINITY PREDICTED BY RF-SCORE:    0.00 PKD
ROOT
HETATM    1  C   UNL     1     -11.479  13.408  68.005  1.00  0.00    -0.304 C  
HETATM    2  N   UNL     1     -10.471  14.090  67.178  1.00  0.00    -0.269 NA 
HETATM    3  C   UNL     1      -9.793  13.085  66.435  1.00  0.00    -0.270 C  
HETATM    4  C   UNL     1     -11.012  15.108  66.279  1.00  0.00    -0.335 C  
HETATM    5  C   UNL     1     -10.107  11.822  67.177  1.00  0.00    -0.224 C  
HETATM    6  C   UNL     1     -10.825  11.938  68.609  1.00  0.00    -0.273 C  
HETATM    7  C   UNL     1     -11.108  10.356  68.423  1.00  0.00    -0.322 C  
HETATM    8  C   UNL     1     -11.889  12.011  69.791  1.00  0.00    -0.401 A  
HETATM    9  C   UNL     1     -12.259  13.304  70.127  1.00  0.00    -0.306 A  
HETATM   10  C   UNL     1     -12.944  13.612  71.312  1.00  0.00    -0.399 A  
HETATM   11  N   UNL     1     -11.987  14.201  69.125  1.00  0.00    -0.343 NA 
HETATM   12  C   UNL     1     -11.591  15.563  69.415  1.00  0.00    -0.355 C  
HETATM   13  C   UNL     1     -13.371  12.607  72.171  1.00  0.00    -0.570 A  
HETATM   14  C   UNL     1     -13.157  11.294  71.793  1.00  0.00    -0.422 A  
HETATM   15  C   UNL     1     -12.408  10.999  70.644  1.00  0.00    -0.480 A  
ENDROOT
BRANCH  14  16
HETATM   16  O   UNL     1     -13.580  10.174  72.544  1.00  0.00    -0.220 OA 
BRANCH  16  17
HETATM   17  C   UNL     1     -13.411   8.855  72.126  1.00  0.00    -0.440 C  
HETATM   18  N   UNL     1     -12.192   8.402  72.537  1.00  0.00    -0.500 N  
HETATM   19  O   UNL     1     -14.218   8.195  71.481  1.00  0.00    -0.411 OA 
HETATM   20  H   UNL     1     -11.591   9.039  73.061  1.00  0.00     0.000 HD 
HETATM   21  C   UNL     1     -11.714   7.073  72.270  1.00  0.00    -0.255 C  
ENDBRANCH  16  17
ENDBRANCH  14  16
TORSDOF 2
ENDMDL
MODEL       10
REMARK 921   NORMALIZED FREE ENERGY PREDICTED BY IDOCK:   -6.16 KCAL/MOL
REMARK 922        TOTAL FREE ENERGY PREDICTED BY IDOCK:   -7.09 KCAL/MOL
REMARK 923 INTER-LIGAND FREE ENERGY PREDICTED BY IDOCK:   -6.89 KCAL/MOL
REMARK 924 INTRA-LIGAND FREE ENERGY PREDICTED BY IDOCK:   -0.20 KCAL/MOL
REMARK 927      BINDING AFFINITY PREDICTED BY RF-SCORE:    0.00 PKD
ROOT
HETATM    1  C   UNL     1     -11.281   8.287  70.221  1.00  0.00    -0.176 C  
HETATM    2  N   UNL     1     -10.689   7.353  71.192  1.00  0.00    -0.230 NA 
HETATM    3  C   UNL     1     -11.316   7.600  72.443  1.00  0.00    -0.329 C  
HETATM    4  C   UNL     1     -10.815   5.942  70.831  1.00  0.00    -0.279 C  
HETATM    5  C   UNL     1     -11.921   8.961  72.275  1.00  0.00    -0.380 C  
HETATM    6  C   UNL     1     -11.527   9.813  70.971  1.00  0.00    -0.458 C  
HETATM    7  C   UNL     1     -12.792  10.735  71.382  1.00  0.00    -0.557 C  
HETATM    8  C   UNL     1     -11.490  10.473  69.523  1.00  0.00    -0.339 A  
HETATM    9  C   UNL     1     -10.710   9.774  68.614  1.00  0.00    -0.216 A  
HETATM   10  C   UNL     1     -10.303  10.323  67.388  1.00  0.00    -0.282 A  
HETATM   11  N   UNL     1     -10.496   8.476  69.000  1.00  0.00    -0.218 NA 
HETATM   12  C   UNL     1      -9.253   7.794  68.707  1.00  0.00    -0.139 C  
HETATM   13  C   UNL     1     -10.748  11.575  66.983  1.00  0.00    -0.300 A  
HETATM   14  C   UNL     1     -11.653  12.237  67.793  1.00  0.00    -0.351 A  
HETATM   15  C   UNL     1     -11.996  11.714  69.049  1.00  0.00    -0.368 A  
ENDROOT
BRANCH  14  16
HETATM   16  O   UNL     1     -12.224  13.492  67.483  1.00  0.00    -0.325 OA 
BRANCH  16  17
HETATM   17  C   UNL     1     -12.292  14.010  66.190  1.00  0.00    -0.458 C  
HETATM   18  N   UNL     1     -11.329  14.962  66.033  1.00  0.00    -0.333 N  
HETATM   19  O   UNL     1     -13.093  13.678  65.323  1.00  0.00    -0.735 OA 
HETATM   20  H   UNL     1     -10.720  15.171  66.824  1.00  0.00     0.000 HD 
HETATM   21  C   UNL     1     -11.129  15.686  64.807  1.00  0.00    -0.412 C  
ENDBRANCH  16  17
ENDBRANCH  14  16
TORSDOF 2
ENDMDL
MODEL       11
REMARK 921   NORMALIZED FREE ENERGY PREDICTED BY IDOCK:   -6.14 KCAL/MOL
REMARK 922        TOTAL FREE ENERGY PREDICTED BY IDOCK:   -7.05 KCAL/MOL
REMARK 923 INTER-LIGAND FREE ENERGY PREDICTED BY IDOCK:   -6.91 KCAL/MOL
REMARK 924 INTRA-LIGAND FREE ENERGY PREDICTED BY IDOCK:   -0.14 KCAL/MOL
REMARK 927      BINDING AFFINITY PREDICTED BY RF-SCORE:    0.00 PKD
ROOT
HETATM    1  C   UNL     1      -8.229  18.457  68.343  1.00  0.00    -0.312 C  
HETATM    2  N   UNL     1      -7.049  19.328  68.229  1.00  0.00    -0.269 NA 
HETATM    3  C   UNL     1      -7.394  20.383  67.341  1.00  0.00    -0.318 C  
HETATM    4  C   UNL     1      -6.570  19.871  69.499  1.00  0.00    -0.337 C  
HETATM    5  C   UNL     1      -8.595  19.857  66.615  1.00  0.00    -0.390 C  
HETATM    6  C   UNL     1      -8.984  18.310  66.807  1.00  0.00    -0.289 C  
HETATM    7  C   UNL     1     -10.393  18.741  66.138  1.00  0.00    -0.494 C  
HETATM    8  C   UNL     1      -9.617  16.938  67.306  1.00  0.00    -0.246 A  
HETATM    9  C   UNL     1      -8.844  16.281  68.252  1.00  0.00    -0.188 A  
HETATM   10  C   UNL     1      -9.058  14.940  68.605  1.00  0.00    -0.185 A  
HETATM   11  N   UNL     1      -7.952  17.119  68.869  1.00  0.00    -0.242 NA 
HETATM   12  C   UNL     1      -6.646  16.656  69.292  1.00  0.00    -0.214 C  
HETATM   13  C   UNL     1     -10.129  14.226  68.082  1.00  0.00    -0.232 A  
HETATM   14  C   UNL     1     -11.014  14.894  67.254  1.00  0.00    -0.323 A  
HETATM   15  C   UNL     1     -10.751  16.212  66.850  1.00  0.00    -0.247 A  
ENDROOT
BRANCH  14  16
HETATM   16  O   UNL     1     -12.170  14.307  66.691  1.00  0.00    -0.449 OA 
BRANCH  16  17
HETATM   17  C   UNL     1     -12.158  13.110  65.976  1.00  0.00    -0.436 C  
HETATM   18  N   UNL     1     -12.444  13.363  64.667  1.00  0.00    -0.591 N  
HETATM   19  O   UNL     1     -11.935  11.997  66.439  1.00  0.00    -0.611 OA 
HETATM   20  H   UNL     1     -12.624  14.328  64.388  1.00  0.00     0.000 HD 
HETATM   21  C   UNL     1     -12.503  12.338  63.661  1.00  0.00    -0.541 C  
ENDBRANCH  16  17
ENDBRANCH  14  16
TORSDOF 2
ENDMDL
MODEL       12
REMARK 921   NORMALIZED FREE ENERGY PREDICTED BY IDOCK:   -6.13 KCAL/MOL
REMARK 922        TOTAL FREE ENERGY PREDICTED BY IDOCK:   -7.05 KCAL/MOL
REMARK 923 INTER-LIGAND FREE ENERGY PREDICTED BY IDOCK:   -6.82 KCAL/MOL
REMARK 924 INTRA-LIGAND FREE ENERGY PREDICTED BY IDOCK:   -0.23 KCAL/MOL
REMARK 927      BINDING AFFINITY PREDICTED BY RF-SCORE:    0.00 PKD
ROOT
HETATM    1  C   UNL     1     -11.436   8.084  70.235  1.00  0.00    -0.073 C  
HETATM    2  N   UNL     1     -10.532   6.925  70.277  1.00  0.00    -0.199 NA 
HETATM    3  C   UNL     1     -11.032   6.043  71.274  1.00  0.00    -0.278 C  
HETATM    4  C   UNL     1     -10.388   6.221  69.004  1.00  0.00    -0.206 C  
HETATM    5  C   UNL     1     -11.939   6.910  72.092  1.00  0.00    -0.302 C  
HETATM    6  C   UNL     1     -11.916   8.495  71.833  1.00  0.00    -0.409 C  
HETATM    7  C   UNL     1     -13.289   8.500  72.689  1.00  0.00    -0.191 C  
HETATM    8  C   UNL     1     -12.212   9.969  71.310  1.00  0.00    -0.498 A  
HETATM    9  C   UNL     1     -11.421  10.348  70.236  1.00  0.00    -0.325 A  
HETATM   10  C   UNL     1     -11.307  11.681  69.813  1.00  0.00    -0.276 A  
HETATM   11  N   UNL     1     -10.877   9.271  69.584  1.00  0.00    -0.231 NA 
HETATM   12  C   UNL     1      -9.562   9.335  68.981  1.00  0.00    -0.159 C  
HETATM   13  C   UNL     1     -12.067  12.684  70.401  1.00  0.00    -0.381 A  
HETATM   14  C   UNL     1     -12.983  12.322  71.372  1.00  0.00    -0.256 A  
HETATM   15  C   UNL     1     -13.038  10.999  71.838  1.00  0.00    -0.525 A  
ENDROOT
BRANCH  14  16
HETATM   16  O   UNL     1     -13.853  13.229  72.019  1.00  0.00    -0.450 OA 
BRANCH  16  17
HETATM   17  C   UNL     1     -13.559  14.578  72.209  1.00  0.00    -0.440 C  
HETATM   18  N   UNL     1     -12.917  14.737  73.401  1.00  0.00    -0.506 N  
HETATM   19  O   UNL     1     -13.835  15.490  71.439  1.00  0.00    -0.500 OA 
HETATM   20  H   UNL     1     -12.745  13.910  73.973  1.00  0.00     0.000 HD 
HETATM   21  C   UNL     1     -12.470  16.012  73.892  1.00  0.00    -0.612 C  
ENDBRANCH  16  17
ENDBRANCH  14  16
TORSDOF 2
ENDMDL
MODEL       13
REMARK 921   NORMALIZED FREE ENERGY PREDICTED BY IDOCK:   -6.10 KCAL/MOL
REMARK 922        TOTAL FREE ENERGY PREDICTED BY IDOCK:   -7.02 KCAL/MOL
REMARK 923 INTER-LIGAND FREE ENERGY PREDICTED BY IDOCK:   -6.82 KCAL/MOL
REMARK 924 INTRA-LIGAND FREE ENERGY PREDICTED BY IDOCK:   -0.20 KCAL/MOL
REMARK 927      BINDING AFFINITY PREDICTED BY RF-SCORE:    0.00 PKD
ROOT
HETATM    1  C   UNL     1     -11.427  11.912  65.509  1.00  0.00    -0.252 C  
HETATM    2  N   UNL     1     -10.990  12.736  64.372  1.00  0.00    -0.338 NA 
HETATM    3  C   UNL     1     -10.232  11.894  63.514  1.00  0.00    -0.457 C  
HETATM    4  C   UNL     1     -12.077  13.372  63.629  1.00  0.00    -0.450 C  
HETATM    5  C   UNL     1      -9.868  10.732  64.388  1.00  0.00    -0.374 C  
HETATM    6  C   UNL     1     -10.160  10.843  65.963  1.00  0.00    -0.303 C  
HETATM    7  C   UNL     1      -9.909   9.245  65.966  1.00  0.00    -0.363 C  
HETATM    8  C   UNL     1     -10.816  10.764  67.412  1.00  0.00    -0.345 A  
HETATM    9  C   UNL     1     -11.511  11.909  67.771  1.00  0.00    -0.319 A  
HETATM   10  C   UNL     1     -11.908  12.170  69.091  1.00  0.00    -0.361 A  
HETATM   11  N   UNL     1     -11.855  12.672  66.685  1.00  0.00    -0.473 NA 
HETATM   12  C   UNL     1     -11.899  14.118  66.759  1.00  0.00    -0.425 C  
HETATM   13  C   UNL     1     -11.704  11.233  70.097  1.00  0.00    -0.429 A  
HETATM   14  C   UNL     1     -11.154  10.013  69.747  1.00  0.00    -0.274 A  
HETATM   15  C   UNL     1     -10.693   9.790  68.440  1.00  0.00    -0.262 A  
ENDROOT
BRANCH  14  16
HETATM   16  O   UNL     1     -10.934   8.952  70.655  1.00  0.00    -0.224 OA 
BRANCH  16  17
HETATM   17  C   UNL     1      -9.816   8.864  71.483  1.00  0.00    -0.314 C  
HETATM   18  N   UNL     1     -10.116   8.094  72.568  1.00  0.00    -0.276 N  
HETATM   19  O   UNL     1      -8.730   9.397  71.285  1.00  0.00    -0.295 OA 
HETATM   20  H   UNL     1     -11.056   7.706  72.642  1.00  0.00     0.000 HD 
HETATM   21  C   UNL     1      -9.172   7.802  73.612  1.00  0.00    -0.284 C  
ENDBRANCH  16  17
ENDBRANCH  14  16
TORSDOF 2
ENDMDL
MODEL       14
REMARK 921   NORMALIZED FREE ENERGY PREDICTED BY IDOCK:   -6.06 KCAL/MOL
REMARK 922        TOTAL FREE ENERGY PREDICTED BY IDOCK:   -6.97 KCAL/MOL
REMARK 923 INTER-LIGAND FREE ENERGY PREDICTED BY IDOCK:   -6.86 KCAL/MOL
REMARK 924 INTRA-LIGAND FREE ENERGY PREDICTED BY IDOCK:   -0.11 KCAL/MOL
REMARK 927      BINDING AFFINITY PREDICTED BY RF-SCORE:    0.00 PKD
ROOT
HETATM    1  C   UNL     1     -11.027  10.957  68.033  1.00  0.00    -0.265 C  
HETATM    2  N   UNL     1     -10.088   9.868  67.726  1.00  0.00    -0.170 NA 
HETATM    3  C   UNL     1     -10.354   8.816  68.644  1.00  0.00    -0.205 C  
HETATM    4  C   UNL     1     -10.160   9.373  66.352  1.00  0.00    -0.262 C  
HETATM    5  C   UNL     1     -11.123   9.488  69.741  1.00  0.00    -0.216 C  
HETATM    6  C   UNL     1     -11.211  11.092  69.737  1.00  0.00    -0.339 C  
HETATM    7  C   UNL     1     -12.396  10.876  70.817  1.00  0.00    -0.487 C  
HETATM    8  C   UNL     1     -11.658  12.604  69.517  1.00  0.00    -0.348 A  
HETATM    9  C   UNL     1     -11.100  13.191  68.391  1.00  0.00    -0.268 A  
HETATM   10  C   UNL     1     -11.119  14.576  68.171  1.00  0.00    -0.280 A  
HETATM   11  N   UNL     1     -10.648  12.262  67.489  1.00  0.00    -0.215 NA 
HETATM   12  C   UNL     1      -9.474  12.504  66.675  1.00  0.00    -0.242 C  
HETATM   13  C   UNL     1     -11.792  15.427  69.039  1.00  0.00    -0.357 A  
HETATM   14  C   UNL     1     -12.493  14.863  70.090  1.00  0.00    -0.306 A  
HETATM   15  C   UNL     1     -12.407  13.486  70.343  1.00  0.00    -0.397 A  
ENDROOT
BRANCH  14  16
HETATM   16  O   UNL     1     -13.259  15.603  71.020  1.00  0.00    -0.508 OA 
BRANCH  16  17
HETATM   17  C   UNL     1     -13.386  15.256  72.364  1.00  0.00    -0.435 C  
HETATM   18  N   UNL     1     -12.468  15.947  73.098  1.00  0.00    -0.445 N  
HETATM   19  O   UNL     1     -14.188  14.452  72.827  1.00  0.00    -0.491 OA 
HETATM   20  H   UNL     1     -11.839  16.585  72.610  1.00  0.00     0.000 HD 
HETATM   21  C   UNL     1     -12.343  15.820  74.525  1.00  0.00    -0.621 C  
ENDBRANCH  16  17
ENDBRANCH  14  16
TORSDOF 2
ENDMDL
MODEL       15
REMARK 921   NORMALIZED FREE ENERGY PREDICTED BY IDOCK:   -6.04 KCAL/MOL
REMARK 922        TOTAL FREE ENERGY PREDICTED BY IDOCK:   -6.94 KCAL/MOL
REMARK 923 INTER-LIGAND FREE ENERGY PREDICTED BY IDOCK:   -6.86 KCAL/MOL
REMARK 924 INTRA-LIGAND FREE ENERGY PREDICTED BY IDOCK:   -0.08 KCAL/MOL
REMARK 927      BINDING AFFINITY PREDICTED BY RF-SCORE:    0.00 PKD
ROOT
HETATM    1  C   UNL     1     -10.565  10.162  68.995  1.00  0.00    -0.223 C  
HETATM    2  N   UNL     1     -10.847   8.894  69.686  1.00  0.00    -0.215 NA 
HETATM    3  C   UNL     1     -10.380   7.849  68.843  1.00  0.00    -0.213 C  
HETATM    4  C   UNL     1     -10.247   8.781  71.014  1.00  0.00    -0.237 C  
HETATM    5  C   UNL     1     -10.256   8.503  67.501  1.00  0.00    -0.307 C  
HETATM    6  C   UNL     1     -10.865   9.978  67.313  1.00  0.00    -0.284 C  
HETATM    7  C   UNL     1      -9.993   9.997  65.950  1.00  0.00    -0.339 C  
HETATM    8  C   UNL     1     -11.070  11.554  67.229  1.00  0.00    -0.351 A  
HETATM    9  C   UNL     1     -11.543  12.117  68.405  1.00  0.00    -0.327 A  
HETATM   10  C   UNL     1     -12.067  13.417  68.465  1.00  0.00    -0.283 A  
HETATM   11  N   UNL     1     -11.326  11.310  69.493  1.00  0.00    -0.273 NA 
HETATM   12  C   UNL     1     -12.262  11.260  70.597  1.00  0.00    -0.393 C  
HETATM   13  C   UNL     1     -12.049  14.246  67.350  1.00  0.00    -0.371 A  
HETATM   14  C   UNL     1     -11.444  13.775  66.199  1.00  0.00    -0.338 A  
HETATM   15  C   UNL     1     -10.988  12.449  66.128  1.00  0.00    -0.321 A  
ENDROOT
BRANCH  14  16
HETATM   16  O   UNL     1     -11.311  14.525  65.009  1.00  0.00    -0.342 OA 
BRANCH  16  17
HETATM   17  C   UNL     1     -10.804  15.824  64.968  1.00  0.00    -0.443 C  
HETATM   18  N   UNL     1      -9.726  15.915  65.798  1.00  0.00    -0.336 N  
HETATM   19  O   UNL     1     -11.252  16.750  64.301  1.00  0.00    -1.163 OA 
HETATM   20  H   UNL     1      -9.443  15.084  66.317  1.00  0.00     0.000 HD 
HETATM   21  C   UNL     1      -8.970  17.124  65.978  1.00  0.00    -0.106 C  
ENDBRANCH  16  17
ENDBRANCH  14  16
TORSDOF 2
ENDMDL
MODEL       16
REMARK 921   NORMALIZED FREE ENERGY PREDICTED BY IDOCK:   -6.03 KCAL/MOL
REMARK 922        TOTAL FREE ENERGY PREDICTED BY IDOCK:   -6.94 KCAL/MOL
REMARK 923 INTER-LIGAND FREE ENERGY PREDICTED BY IDOCK:   -6.76 KCAL/MOL
REMARK 924 INTRA-LIGAND FREE ENERGY PREDICTED BY IDOCK:   -0.18 KCAL/MOL
REMARK 927      BINDING AFFINITY PREDICTED BY RF-SCORE:    0.00 PKD
ROOT
HETATM    1  C   UNL     1     -12.468  12.618  70.082  1.00  0.00    -0.029 C  
HETATM    2  N   UNL     1     -12.477  11.537  71.080  1.00  0.00    -0.384 NA 
HETATM    3  C   UNL     1     -13.249  11.995  72.182  1.00  0.00    -0.295 C  
HETATM    4  C   UNL     1     -12.998  10.262  70.590  1.00  0.00    -0.266 C  
HETATM    5  C   UNL     1     -13.288  13.481  71.996  1.00  0.00    -0.563 C  
HETATM    6  C   UNL     1     -12.334  14.134  70.880  1.00  0.00    -0.438 C  
HETATM    7  C   UNL     1     -13.258  15.447  71.080  1.00  0.00    -0.583 C  
HETATM    8  C   UNL     1     -11.738  14.733  69.532  1.00  0.00    -0.358 A  
HETATM    9  C   UNL     1     -11.062  13.800  68.760  1.00  0.00    -0.266 A  
HETATM   10  C   UNL     1     -10.219  14.164  67.698  1.00  0.00    -0.241 A  
HETATM   11  N   UNL     1     -11.407  12.512  69.078  1.00  0.00    -0.273 NA 
HETATM   12  C   UNL     1     -10.446  11.430  69.007  1.00  0.00    -0.168 C  
HETATM   13  C   UNL     1     -10.096  15.491  67.307  1.00  0.00    -0.250 A  
HETATM   14  C   UNL     1     -10.875  16.435  67.953  1.00  0.00    -0.328 A  
HETATM   15  C   UNL     1     -11.658  16.072  69.059  1.00  0.00    -0.350 A  
ENDROOT
BRANCH  14  16
HETATM   16  O   UNL     1     -10.887  17.810  67.627  1.00  0.00    -0.363 OA 
BRANCH  16  17
HETATM   17  C   UNL     1     -10.228  18.348  66.523  1.00  0.00    -0.401 C  
HETATM   18  N   UNL     1      -9.123  19.028  66.943  1.00  0.00    -0.294 N  
HETATM   19  O   UNL     1     -10.578  18.240  65.353  1.00  0.00    -0.612 OA 
HETATM   20  H   UNL     1      -8.928  19.065  67.943  1.00  0.00     0.000 HD 
HETATM   21  C   UNL     1      -8.221  19.696  66.045  1.00  0.00    -0.295 C  
ENDBRANCH  16  17
ENDBRANCH  14  16
TORSDOF 2
ENDMDL
MODEL       17
REMARK 921   NORMALIZED FREE ENERGY PREDICTED BY IDOCK:   -6.01 KCAL/MOL
REMARK 922        TOTAL FREE ENERGY PREDICTED BY IDOCK:   -6.92 KCAL/MOL
REMARK 923 INTER-LIGAND FREE ENERGY PREDICTED BY IDOCK:   -6.68 KCAL/MOL
REMARK 924 INTRA-LIGAND FREE ENERGY PREDICTED BY IDOCK:   -0.23 KCAL/MOL
REMARK 927      BINDING AFFINITY PREDICTED BY RF-SCORE:    0.00 PKD
ROOT
HETATM    1  C   UNL     1     -11.275   8.132  70.191  1.00  0.00    -0.134 C  
HETATM    2  N   UNL     1     -10.723   6.927  70.829  1.00  0.00    -0.227 NA 
HETATM    3  C   UNL     1     -11.513   6.668  71.982  1.00  0.00    -0.291 C  
HETATM    4  C   UNL     1     -10.683   5.747  69.966  1.00  0.00    -0.330 C  
HETATM    5  C   UNL     1     -12.210   7.970  72.236  1.00  0.00    -0.366 C  
HETATM    6  C   UNL     1     -11.740   9.260  71.401  1.00  0.00    -0.431 C  
HETATM    7  C   UNL     1     -13.119   9.916  71.935  1.00  0.00    -0.559 C  
HETATM    8  C   UNL     1     -11.589  10.412  70.313  1.00  0.00    -0.410 A  
HETATM    9  C   UNL     1     -10.649  10.130  69.333  1.00  0.00    -0.237 A  
HETATM   10  C   UNL     1     -10.148  11.110  68.461  1.00  0.00    -0.208 A  
HETATM   11  N   UNL     1     -10.371   8.790  69.246  1.00  0.00    -0.212 NA 
HETATM   12  C   UNL     1      -9.047   8.312  68.905  1.00  0.00    -0.147 C  
HETATM   13  C   UNL     1     -10.650  12.405  68.480  1.00  0.00    -0.251 A  
HETATM   14  C   UNL     1     -11.698  12.685  69.338  1.00  0.00    -0.325 A  
HETATM   15  C   UNL     1     -12.141  11.720  70.255  1.00  0.00    -0.426 A  
ENDROOT
BRANCH  14  16
HETATM   16  O   UNL     1     -12.335  13.944  69.427  1.00  0.00    -0.329 OA 
BRANCH  16  17
HETATM   17  C   UNL     1     -12.491  14.647  70.621  1.00  0.00    -0.344 C  
HETATM   18  N   UNL     1     -13.818  14.866  70.847  1.00  0.00    -0.623 N  
HETATM   19  O   UNL     1     -11.586  15.023  71.358  1.00  0.00    -0.334 OA 
HETATM   20  H   UNL     1     -14.489  14.519  70.162  1.00  0.00     0.000 HD 
HETATM   21  C   UNL     1     -14.316  15.562  72.002  1.00  0.00    -0.496 C  
ENDBRANCH  16  17
ENDBRANCH  14  16
TORSDOF 2
ENDMDL
MODEL       18
REMARK 921   NORMALIZED FREE ENERGY PREDICTED BY IDOCK:   -6.01 KCAL/MOL
REMARK 922        TOTAL FREE ENERGY PREDICTED BY IDOCK:   -6.91 KCAL/MOL
REMARK 923 INTER-LIGAND FREE ENERGY PREDICTED BY IDOCK:   -6.70 KCAL/MOL
REMARK 924 INTRA-LIGAND FREE ENERGY PREDICTED BY IDOCK:   -0.21 KCAL/MOL
REMARK 927      BINDING AFFINITY PREDICTED BY RF-SCORE:    0.00 PKD
ROOT
HETATM    1  C   UNL     1     -10.739   8.776  70.030  1.00  0.00    -0.228 C  
HETATM    2  N   UNL     1     -10.639   7.491  69.321  1.00  0.00    -0.224 NA 
HETATM    3  C   UNL     1      -9.905   7.729  68.128  1.00  0.00    -0.167 C  
HETATM    4  C   UNL     1     -10.017   6.418  70.094  1.00  0.00    -0.171 C  
HETATM    5  C   UNL     1      -9.988   9.215  67.950  1.00  0.00    -0.228 C  
HETATM    6  C   UNL     1     -10.994  10.039  68.892  1.00  0.00    -0.244 C  
HETATM    7  C   UNL     1     -10.180  11.335  68.366  1.00  0.00    -0.205 C  
HETATM    8  C   UNL     1     -11.640  10.897  70.067  1.00  0.00    -0.424 A  
HETATM    9  C   UNL     1     -12.239  10.127  71.053  1.00  0.00    -0.374 A  
HETATM   10  C   UNL     1     -13.111  10.667  72.010  1.00  0.00    -0.501 A  
HETATM   11  N   UNL     1     -11.789   8.831  71.048  1.00  0.00    -0.286 NA 
HETATM   12  C   UNL     1     -12.659   7.726  71.394  1.00  0.00    -0.317 C  
HETATM   13  C   UNL     1     -13.343  12.036  72.072  1.00  0.00    -0.447 A  
HETATM   14  C   UNL     1     -12.643  12.855  71.205  1.00  0.00    -0.281 A  
HETATM   15  C   UNL     1     -11.830  12.299  70.205  1.00  0.00    -0.352 A  
ENDROOT
BRANCH  14  16
HETATM   16  O   UNL     1     -12.744  14.264  71.190  1.00  0.00    -0.319 OA 
BRANCH  16  17
HETATM   17  C   UNL     1     -13.192  15.018  72.274  1.00  0.00    -0.375 C  
HETATM   18  N   UNL     1     -12.172  15.180  73.164  1.00  0.00    -0.400 N  
HETATM   19  O   UNL     1     -14.324  15.464  72.421  1.00  0.00    -0.543 OA 
HETATM   20  H   UNL     1     -11.269  14.757  72.950  1.00  0.00     0.000 HD 
HETATM   21  C   UNL     1     -12.308  15.918  74.391  1.00  0.00    -0.619 C  
ENDBRANCH  16  17
ENDBRANCH  14  16
TORSDOF 2
ENDMDL
MODEL       19
REMARK 921   NORMALIZED FREE ENERGY PREDICTED BY IDOCK:   -5.99 KCAL/MOL
REMARK 922        TOTAL FREE ENERGY PREDICTED BY IDOCK:   -6.89 KCAL/MOL
REMARK 923 INTER-LIGAND FREE ENERGY PREDICTED BY IDOCK:   -6.71 KCAL/MOL
REMARK 924 INTRA-LIGAND FREE ENERGY PREDICTED BY IDOCK:   -0.18 KCAL/MOL
REMARK 927      BINDING AFFINITY PREDICTED BY RF-SCORE:    0.00 PKD
ROOT
HETATM    1  C   UNL     1     -10.246  15.135  67.772  1.00  0.00    -0.236 C  
HETATM    2  N   UNL     1     -10.214  16.289  66.860  1.00  0.00    -0.282 NA 
HETATM    3  C   UNL     1     -10.426  17.451  67.651  1.00  0.00    -0.368 C  
HETATM    4  C   UNL     1      -8.980  16.419  66.088  1.00  0.00    -0.332 C  
HETATM    5  C   UNL     1     -11.022  16.915  68.917  1.00  0.00    -0.207 C  
HETATM    6  C   UNL     1     -11.469  15.373  68.955  1.00  0.00    -0.354 C  
HETATM    7  C   UNL     1     -11.536  15.591  70.557  1.00  0.00    -0.368 C  
HETATM    8  C   UNL     1     -11.518  13.793  69.147  1.00  0.00    -0.346 A  
HETATM    9  C   UNL     1     -11.171  13.083  68.007  1.00  0.00    -0.278 A  
HETATM   10  C   UNL     1     -11.427  11.711  67.863  1.00  0.00    -0.381 A  
HETATM   11  N   UNL     1     -10.460  13.844  67.116  1.00  0.00    -0.268 NA 
HETATM   12  C   UNL     1     -10.596  13.661  65.685  1.00  0.00    -0.293 C  
HETATM   13  C   UNL     1     -11.961  10.971  68.911  1.00  0.00    -0.332 A  
HETATM   14  C   UNL     1     -12.175  11.612  70.118  1.00  0.00    -0.288 A  
HETATM   15  C   UNL     1     -11.986  12.998  70.229  1.00  0.00    -0.360 A  
ENDROOT
BRANCH  14  16
HETATM   16  O   UNL     1     -12.668  10.973  71.278  1.00  0.00    -0.387 OA 
BRANCH  16  17
HETATM   17  C   UNL     1     -12.430   9.633  71.581  1.00  0.00    -0.407 C  
HETATM   18  N   UNL     1     -13.527   8.893  71.253  1.00  0.00    -0.540 N  
HETATM   19  O   UNL     1     -11.403   9.178  72.074  1.00  0.00    -0.366 OA 
HETATM   20  H   UNL     1     -14.335   9.374  70.858  1.00  0.00     0.000 HD 
HETATM   21  C   UNL     1     -13.600   7.469  71.436  1.00  0.00    -0.317 C  
ENDBRANCH  16  17
ENDBRANCH  14  16
TORSDOF 2
ENDMDL
MODEL       20
REMARK 921   NORMALIZED FREE ENERGY PREDICTED BY IDOCK:   -5.93 KCAL/MOL
REMARK 922        TOTAL FREE ENERGY PREDICTED BY IDOCK:   -6.83 KCAL/MOL
REMARK 923 INTER-LIGAND FREE ENERGY PREDICTED BY IDOCK:   -6.84 KCAL/MOL
REMARK 924 INTRA-LIGAND FREE ENERGY PREDICTED BY IDOCK:    0.01 KCAL/MOL
REMARK 927      BINDING AFFINITY PREDICTED BY RF-SCORE:    0.00 PKD
ROOT
HETATM    1  C   UNL     1     -10.293  11.490  65.557  1.00  0.00    -0.273 C  
HETATM    2  N   UNL     1     -10.325  11.147  64.127  1.00  0.00    -0.336 NA 
HETATM    3  C   UNL     1     -10.944  12.234  63.451  1.00  0.00    -0.405 C  
HETATM    4  C   UNL     1      -9.016  10.865  63.540  1.00  0.00    -0.150 C  
HETATM    5  C   UNL     1     -11.658  12.970  64.543  1.00  0.00    -0.406 C  
HETATM    6  C   UNL     1     -11.757  12.279  65.990  1.00  0.00    -0.451 C  
HETATM    7  C   UNL     1     -12.200  13.751  66.493  1.00  0.00    -0.475 C  
HETATM    8  C   UNL     1     -11.499  11.820  67.492  1.00  0.00    -0.373 A  
HETATM    9  C   UNL     1     -10.778  10.640  67.597  1.00  0.00    -0.267 A  
HETATM   10  C   UNL     1     -10.693   9.909  68.792  1.00  0.00    -0.247 A  
HETATM   11  N   UNL     1     -10.080  10.352  66.453  1.00  0.00    -0.220 NA 
HETATM   12  C   UNL     1      -9.874   8.987  66.014  1.00  0.00    -0.242 C  
HETATM   13  C   UNL     1     -11.258  10.391  69.966  1.00  0.00    -0.385 A  
HETATM   14  C   UNL     1     -11.853  11.640  69.936  1.00  0.00    -0.358 A  
HETATM   15  C   UNL     1     -11.996  12.330  68.723  1.00  0.00    -0.281 A  
ENDROOT
BRANCH  14  16
HETATM   16  O   UNL     1     -12.423  12.273  71.064  1.00  0.00    -0.370 OA 
BRANCH  16  17
HETATM   17  C   UNL     1     -12.616  13.650  71.161  1.00  0.00    -0.371 C  
HETATM   18  N   UNL     1     -13.875  13.900  71.619  1.00  0.00    -0.332 N  
HETATM   19  O   UNL     1     -11.794  14.514  70.874  1.00  0.00    -0.307 OA 
HETATM   20  H   UNL     1     -14.485  13.107  71.818  1.00  0.00     0.000 HD 
HETATM   21  C   UNL     1     -14.386  15.226  71.837  1.00  0.00    -0.589 C  
ENDBRANCH  16  17
ENDBRANCH  14  16
TORSDOF 2
ENDMDL
MODEL       21
REMARK 921   NORMALIZED FREE ENERGY PREDICTED BY IDOCK:   -5.91 KCAL/MOL
REMARK 922        TOTAL FREE ENERGY PREDICTED BY IDOCK:   -6.80 KCAL/MOL
REMARK 923 INTER-LIGAND FREE ENERGY PREDICTED BY IDOCK:   -6.94 KCAL/MOL
REMARK 924 INTRA-LIGAND FREE ENERGY PREDICTED BY IDOCK:    0.14 KCAL/MOL
REMARK 927      BINDING AFFINITY PREDICTED BY RF-SCORE:    0.00 PKD
ROOT
HETATM    1  C   UNL     1     -10.814   9.575  67.701  1.00  0.00    -0.187 C  
HETATM    2  N   UNL     1     -10.094   8.727  68.664  1.00  0.00    -0.184 NA 
HETATM    3  C   UNL     1     -10.492   9.143  69.964  1.00  0.00    -0.221 C  
HETATM    4  C   UNL     1     -10.321   7.293  68.499  1.00  0.00    -0.189 C  
HETATM    5  C   UNL     1     -11.075  10.505  69.737  1.00  0.00    -0.354 C  
HETATM    6  C   UNL     1     -10.883  11.185  68.295  1.00  0.00    -0.258 C  
HETATM    7  C   UNL     1     -12.032  12.209  68.797  1.00  0.00    -0.292 C  
HETATM    8  C   UNL     1     -11.072  11.677  66.793  1.00  0.00    -0.366 A  
HETATM    9  C   UNL     1     -10.479  10.843  65.857  1.00  0.00    -0.221 A  
HETATM   10  C   UNL     1     -10.269  11.230  64.524  1.00  0.00    -0.370 A  
HETATM   11  N   UNL     1     -10.242   9.587  66.353  1.00  0.00    -0.256 NA 
HETATM   12  C   UNL     1      -9.087   8.816  65.942  1.00  0.00    -0.218 C  
HETATM   13  C   UNL     1     -10.739  12.450  64.053  1.00  0.00    -0.441 A  
HETATM   14  C   UNL     1     -11.473  13.243  64.917  1.00  0.00    -0.318 A  
HETATM   15  C   UNL     1     -11.614  12.881  66.265  1.00  0.00    -0.424 A  
ENDROOT
BRANCH  14  16
HETATM   16  O   UNL     1     -12.051  14.482  64.559  1.00  0.00    -0.455 OA 
BRANCH  16  17
HETATM   17  C   UNL     1     -11.391  15.704  64.677  1.00  0.00    -0.349 C  
HETATM   18  N   UNL     1     -10.552  15.663  65.751  1.00  0.00    -0.342 N  
HETATM   19  O   UNL     1     -11.537  16.675  63.943  1.00  0.00    -1.204 OA 
HETATM   20  H   UNL     1     -10.514  14.807  66.304  1.00  0.00     0.000 HD 
HETATM   21  C   UNL     1      -9.720  16.768  66.143  1.00  0.00    -0.291 C  
ENDBRANCH  16  17
ENDBRANCH  14  16
TORSDOF 2
ENDMDL
MODEL       22
REMARK 921   NORMALIZED FREE ENERGY PREDICTED BY IDOCK:   -5.89 KCAL/MOL
REMARK 922        TOTAL FREE ENERGY PREDICTED BY IDOCK:   -6.78 KCAL/MOL
REMARK 923 INTER-LIGAND FREE ENERGY PREDICTED BY IDOCK:   -6.56 KCAL/MOL
REMARK 924 INTRA-LIGAND FREE ENERGY PREDICTED BY IDOCK:   -0.22 KCAL/MOL
REMARK 927      BINDING AFFINITY PREDICTED BY RF-SCORE:    0.00 PKD
ROOT
HETATM    1  C   UNL     1     -12.005  14.002  70.913  1.00  0.00    -0.267 C  
HETATM    2  N   UNL     1     -12.809  14.996  71.641  1.00  0.00    -0.321 NA 
HETATM    3  C   UNL     1     -13.509  14.298  72.662  1.00  0.00    -0.525 C  
HETATM    4  C   UNL     1     -12.038  16.097  72.216  1.00  0.00    -0.531 C  
HETATM    5  C   UNL     1     -13.450  12.868  72.220  1.00  0.00    -0.631 C  
HETATM    6  C   UNL     1     -12.908  12.550  70.742  1.00  0.00    -0.099 C  
HETATM    7  C   UNL     1     -12.803  11.026  71.275  1.00  0.00    -0.528 C  
HETATM    8  C   UNL     1     -12.000  12.195  69.484  1.00  0.00    -0.338 A  
HETATM    9  C   UNL     1     -11.515  13.309  68.815  1.00  0.00    -0.306 A  
HETATM   10  C   UNL     1     -10.951  13.236  67.533  1.00  0.00    -0.281 A  
HETATM   11  N   UNL     1     -11.546  14.438  69.593  1.00  0.00    -0.277 NA 
HETATM   12  C   UNL     1     -11.803  15.744  69.023  1.00  0.00    -0.355 C  
HETATM   13  C   UNL     1     -10.763  12.011  66.904  1.00  0.00    -0.282 A  
HETATM   14  C   UNL     1     -11.090  10.864  67.604  1.00  0.00    -0.313 A  
HETATM   15  C   UNL     1     -11.721  10.951  68.855  1.00  0.00    -0.376 A  
ENDROOT
BRANCH  14  16
HETATM   16  O   UNL     1     -10.907   9.553  67.108  1.00  0.00    -0.224 OA 
BRANCH  16  17
HETATM   17  C   UNL     1      -9.664   8.930  67.014  1.00  0.00    -0.190 C  
HETATM   18  N   UNL     1      -9.426   8.589  65.715  1.00  0.00    -0.431 N  
HETATM   19  O   UNL     1      -8.897   8.710  67.945  1.00  0.00    -0.136 OA 
HETATM   20  H   UNL     1     -10.137   8.809  65.018  1.00  0.00     0.000 HD 
HETATM   21  C   UNL     1      -8.222   7.934  65.281  1.00  0.00    -0.145 C  
ENDBRANCH  16  17
ENDBRANCH  14  16
TORSDOF 2
ENDMDL
MODEL       23
REMARK 921   NORMALIZED FREE ENERGY PREDICTED BY IDOCK:   -5.85 KCAL/MOL
REMARK 922        TOTAL FREE ENERGY PREDICTED BY IDOCK:   -6.73 KCAL/MOL
REMARK 923 INTER-LIGAND FREE ENERGY PREDICTED BY IDOCK:   -6.61 KCAL/MOL
REMARK 924 INTRA-LIGAND FREE ENERGY PREDICTED BY IDOCK:   -0.12 KCAL/MOL
REMARK 927      BINDING AFFINITY PREDICTED BY RF-SCORE:    0.00 PKD
ROOT
HETATM    1  C   UNL     1     -11.479   9.256  71.061  1.00  0.00    -0.319 C  
HETATM    2  N   UNL     1     -11.552   7.825  70.729  1.00  0.00    -0.280 NA 
HETATM    3  C   UNL     1     -10.689   7.610  69.620  1.00  0.00    -0.228 C  
HETATM    4  C   UNL     1     -11.198   6.928  71.827  1.00  0.00    -0.252 C  
HETATM    5  C   UNL     1     -10.490   8.983  69.054  1.00  0.00    -0.235 C  
HETATM    6  C   UNL     1     -11.407  10.177  69.612  1.00  0.00    -0.289 C  
HETATM    7  C   UNL     1     -10.333  11.139  68.877  1.00  0.00    -0.220 C  
HETATM    8  C   UNL     1     -11.986  11.414  70.431  1.00  0.00    -0.465 A  
HETATM    9  C   UNL     1     -12.794  11.046  71.496  1.00  0.00    -0.450 A  
HETATM   10  C   UNL     1     -13.632  11.955  72.160  1.00  0.00    -0.188 A  
HETATM   11  N   UNL     1     -12.584   9.748  71.886  1.00  0.00    -0.395 NA 
HETATM   12  C   UNL     1     -13.663   8.924  72.391  1.00  0.00    -0.454 C  
HETATM   13  C   UNL     1     -13.619  13.306  71.834  1.00  0.00    -0.473 A  
HETATM   14  C   UNL     1     -12.714  13.737  70.882  1.00  0.00    -0.323 A  
HETATM   15  C   UNL     1     -11.933  12.811  70.174  1.00  0.00    -0.371 A  
ENDROOT
BRANCH  14  16
HETATM   16  O   UNL     1     -12.559  15.086  70.489  1.00  0.00    -0.339 OA 
BRANCH  16  17
HETATM   17  C   UNL     1     -11.447  15.566  69.798  1.00  0.00    -0.331 C  
HETATM   18  N   UNL     1     -11.807  15.871  68.519  1.00  0.00    -0.444 N  
HETATM   19  O   UNL     1     -10.316  15.691  70.254  1.00  0.00    -0.307 OA 
HETATM   20  H   UNL     1     -12.775  15.719  68.238  1.00  0.00     0.000 HD 
HETATM   21  C   UNL     1     -10.887  16.398  67.547  1.00  0.00    -0.249 C  
ENDBRANCH  16  17
ENDBRANCH  14  16
TORSDOF 2
ENDMDL
MODEL       24
REMARK 921   NORMALIZED FREE ENERGY PREDICTED BY IDOCK:   -5.80 KCAL/MOL
REMARK 922        TOTAL FREE ENERGY PREDICTED BY IDOCK:   -6.68 KCAL/MOL
REMARK 923 INTER-LIGAND FREE ENERGY PREDICTED BY IDOCK:   -6.46 KCAL/MOL
REMARK 924 INTRA-LIGAND FREE ENERGY PREDICTED BY IDOCK:   -0.22 KCAL/MOL
REMARK 927      BINDING AFFINITY PREDICTED BY RF-SCORE:    0.00 PKD
ROOT
HETATM    1  C   UNL     1     -10.976  13.719  66.920  1.00  0.00    -0.290 C  
HETATM    2  N   UNL     1     -11.838  12.531  66.823  1.00  0.00    -0.522 NA 
HETATM    3  C   UNL     1     -12.154  12.357  65.448  1.00  0.00    -0.365 C  
HETATM    4  C   UNL     1     -11.251  11.309  67.367  1.00  0.00    -0.303 C  
HETATM    5  C   UNL     1     -11.847  13.692  64.841  1.00  0.00    -0.398 C  
HETATM    6  C   UNL     1     -11.532  14.922  65.825  1.00  0.00    -0.281 C  
HETATM    7  C   UNL     1     -10.978  15.648  64.490  1.00  0.00    -0.220 C  
HETATM    8  C   UNL     1     -10.817  16.011  66.739  1.00  0.00    -0.195 A  
HETATM    9  C   UNL     1     -10.739  15.650  68.076  1.00  0.00    -0.287 A  
HETATM   10  C   UNL     1     -10.422  16.567  69.090  1.00  0.00    -0.317 A  
HETATM   11  N   UNL     1     -10.885  14.299  68.261  1.00  0.00    -0.241 NA 
HETATM   12  C   UNL     1     -11.541  13.762  69.436  1.00  0.00    -0.310 C  
HETATM   13  C   UNL     1     -10.075  17.877  68.785  1.00  0.00    -0.384 A  
HETATM   14  C   UNL     1      -9.991  18.234  67.451  1.00  0.00    -0.334 A  
HETATM   15  C   UNL     1     -10.379  17.332  66.449  1.00  0.00    -0.316 A  
ENDROOT
BRANCH  14  16
HETATM   16  O   UNL     1      -9.604  19.515  66.997  1.00  0.00    -0.310 OA 
BRANCH  16  17
HETATM   17  C   UNL     1      -8.297  19.846  66.642  1.00  0.00    -0.330 C  
HETATM   18  N   UNL     1      -7.706  20.520  67.670  1.00  0.00    -0.286 N  
HETATM   19  O   UNL     1      -7.753  19.586  65.575  1.00  0.00    -0.419 OA 
HETATM   20  H   UNL     1      -8.254  20.694  68.513  1.00  0.00     0.000 HD 
HETATM   21  C   UNL     1      -6.351  20.997  67.624  1.00  0.00    -0.351 C  
ENDBRANCH  16  17
ENDBRANCH  14  16
TORSDOF 2
ENDMDL
MODEL       25
REMARK 921   NORMALIZED FREE ENERGY PREDICTED BY IDOCK:   -5.76 KCAL/MOL
REMARK 922        TOTAL FREE ENERGY PREDICTED BY IDOCK:   -6.63 KCAL/MOL
REMARK 923 INTER-LIGAND FREE ENERGY PREDICTED BY IDOCK:   -6.52 KCAL/MOL
REMARK 924 INTRA-LIGAND FREE ENERGY PREDICTED BY IDOCK:   -0.11 KCAL/MOL
REMARK 927      BINDING AFFINITY PREDICTED BY RF-SCORE:    0.00 PKD
ROOT
HETATM    1  C   UNL     1     -11.066   7.768  70.568  1.00  0.00    -0.257 C  
HETATM    2  N   UNL     1     -10.464   6.986  71.659  1.00  0.00    -0.200 NA 
HETATM    3  C   UNL     1     -11.144   7.347  72.854  1.00  0.00    -0.349 C  
HETATM    4  C   UNL     1     -10.512   5.538  71.466  1.00  0.00    -0.235 C  
HETATM    5  C   UNL     1     -11.806   8.646  72.508  1.00  0.00    -0.342 C  
HETATM    6  C   UNL     1     -11.409   9.357  71.124  1.00  0.00    -0.422 C  
HETATM    7  C   UNL     1     -12.729  10.256  71.386  1.00  0.00    -0.547 C  
HETATM    8  C   UNL     1     -11.354   9.843  69.609  1.00  0.00    -0.212 A  
HETATM    9  C   UNL     1     -10.511   9.083  68.812  1.00  0.00    -0.206 A  
HETATM   10  C   UNL     1     -10.089   9.503  67.541  1.00  0.00    -0.257 A  
HETATM   11  N   UNL     1     -10.250   7.851  69.355  1.00  0.00    -0.201 NA 
HETATM   12  C   UNL     1      -8.967   7.203  69.181  1.00  0.00    -0.138 C  
HETATM   13  C   UNL     1     -10.578  10.674  66.977  1.00  0.00    -0.317 A  
HETATM   14  C   UNL     1     -11.540  11.381  67.677  1.00  0.00    -0.238 A  
HETATM   15  C   UNL     1     -11.901  10.993  68.976  1.00  0.00    -0.399 A  
ENDROOT
BRANCH  14  16
HETATM   16  O   UNL     1     -12.158  12.560  67.203  1.00  0.00    -0.504 OA 
BRANCH  16  17
HETATM   17  C   UNL     1     -11.797  13.198  66.018  1.00  0.00    -0.407 C  
HETATM   18  N   UNL     1     -12.438  12.605  64.971  1.00  0.00    -0.509 N  
HETATM   19  O   UNL     1     -11.020  14.141  65.916  1.00  0.00    -0.291 OA 
HETATM   20  H   UNL     1     -13.057  11.817  65.165  1.00  0.00     0.000 HD 
HETATM   21  C   UNL     1     -12.284  13.034  63.607  1.00  0.00    -0.491 C  
ENDBRANCH  16  17
ENDBRANCH  14  16
TORSDOF 2
ENDMDL
MODEL       26
REMARK 921   NORMALIZED FREE ENERGY PREDICTED BY IDOCK:   -5.76 KCAL/MOL
REMARK 922        TOTAL FREE ENERGY PREDICTED BY IDOCK:   -6.63 KCAL/MOL
REMARK 923 INTER-LIGAND FREE ENERGY PREDICTED BY IDOCK:   -6.43 KCAL/MOL
REMARK 924 INTRA-LIGAND FREE ENERGY PREDICTED BY IDOCK:   -0.20 KCAL/MOL
REMARK 927      BINDING AFFINITY PREDICTED BY RF-SCORE:    0.00 PKD
ROOT
HETATM    1  C   UNL     1     -10.568  14.101  67.639  1.00  0.00    -0.253 C  
HETATM    2  N   UNL     1     -11.143  15.452  67.731  1.00  0.00    -0.312 NA 
HETATM    3  C   UNL     1     -11.854  15.519  68.960  1.00  0.00    -0.354 C  
HETATM    4  C   UNL     1     -10.165  16.535  67.650  1.00  0.00    -0.279 C  
HETATM    5  C   UNL     1     -12.055  14.082  69.334  1.00  0.00    -0.386 C  
HETATM    6  C   UNL     1     -11.696  12.956  68.247  1.00  0.00    -0.390 C  
HETATM    7  C   UNL     1     -11.784  11.937  69.501  1.00  0.00    -0.410 C  
HETATM    8  C   UNL     1     -10.963  11.847  67.370  1.00  0.00    -0.315 A  
HETATM    9  C   UNL     1     -10.371  12.348  66.221  1.00  0.00    -0.244 A  
HETATM   10  C   UNL     1      -9.935  11.524  65.172  1.00  0.00    -0.304 A  
HETATM   11  N   UNL     1     -10.160  13.702  66.291  1.00  0.00    -0.292 NA 
HETATM   12  C   UNL     1     -10.259  14.545  65.118  1.00  0.00    -0.389 C  
HETATM   13  C   UNL     1      -9.993  10.140  65.282  1.00  0.00    -0.381 A  
HETATM   14  C   UNL     1     -10.434   9.599  66.476  1.00  0.00    -0.143 A  
HETATM   15  C   UNL     1     -10.935  10.430  67.489  1.00  0.00    -0.358 A  
ENDROOT
BRANCH  14  16
HETATM   16  O   UNL     1     -10.499   8.213  66.742  1.00  0.00    -0.326 OA 
BRANCH  16  17
HETATM   17  C   UNL     1     -10.188   7.649  67.979  1.00  0.00    -0.202 C  
HETATM   18  N   UNL     1     -11.261   6.943  68.437  1.00  0.00    -0.523 N  
HETATM   19  O   UNL     1      -9.125   7.768  68.577  1.00  0.00    -0.133 OA 
HETATM   20  H   UNL     1     -12.105   6.917  67.864  1.00  0.00     0.000 HD 
HETATM   21  C   UNL     1     -11.262   6.233  69.687  1.00  0.00    -0.437 C  
ENDBRANCH  16  17
ENDBRANCH  14  16
TORSDOF 2
ENDMDL
MODEL       27
REMARK 921   NORMALIZED FREE ENERGY PREDICTED BY IDOCK:   -5.75 KCAL/MOL
REMARK 922        TOTAL FREE ENERGY PREDICTED BY IDOCK:   -6.62 KCAL/MOL
REMARK 923 INTER-LIGAND FREE ENERGY PREDICTED BY IDOCK:   -6.37 KCAL/MOL
REMARK 924 INTRA-LIGAND FREE ENERGY PREDICTED BY IDOCK:   -0.25 KCAL/MOL
REMARK 927      BINDING AFFINITY PREDICTED BY RF-SCORE:    0.00 PKD
ROOT
HETATM    1  C   UNL     1      -8.331  17.910  66.849  1.00  0.00    -0.242 C  
HETATM    2  N   UNL     1      -8.173  19.121  67.667  1.00  0.00    -0.280 NA 
HETATM    3  C   UNL     1      -7.264  18.802  68.713  1.00  0.00    -0.308 C  
HETATM    4  C   UNL     1      -7.707  20.295  66.931  1.00  0.00    -0.312 C  
HETATM    5  C   UNL     1      -7.269  17.304  68.743  1.00  0.00    -0.245 C  
HETATM    6  C   UNL     1      -8.373  16.529  67.871  1.00  0.00    -0.175 C  
HETATM    7  C   UNL     1      -7.447  15.229  68.137  1.00  0.00    -0.117 C  
HETATM    8  C   UNL     1      -9.154  15.761  66.715  1.00  0.00    -0.276 A  
HETATM    9  C   UNL     1      -9.917  16.595  65.911  1.00  0.00    -0.295 A  
HETATM   10  C   UNL     1     -10.900  16.110  65.035  1.00  0.00    -0.380 A  
HETATM   11  N   UNL     1      -9.516  17.904  65.989  1.00  0.00    -0.525 NA 
HETATM   12  C   UNL     1     -10.464  18.995  65.889  1.00  0.00    -0.399 C  
HETATM   13  C   UNL     1     -11.091  14.745  64.863  1.00  0.00    -0.416 A  
HETATM   14  C   UNL     1     -10.244  13.879  65.531  1.00  0.00    -0.331 A  
HETATM   15  C   UNL     1      -9.314  14.372  66.459  1.00  0.00    -0.300 A  
ENDROOT
BRANCH  14  16
HETATM   16  O   UNL     1     -10.293  12.472  65.412  1.00  0.00    -0.272 OA 
BRANCH  16  17
HETATM   17  C   UNL     1     -10.355  11.803  64.190  1.00  0.00    -0.331 C  
HETATM   18  N   UNL     1      -9.095  11.661  63.688  1.00  0.00    -0.466 N  
HETATM   19  O   UNL     1     -11.375  11.406  63.637  1.00  0.00    -0.386 OA 
HETATM   20  H   UNL     1      -8.314  12.038  64.225  1.00  0.00     0.000 HD 
HETATM   21  C   UNL     1      -8.813  11.005  62.440  1.00  0.00    -0.307 C  
ENDBRANCH  16  17
ENDBRANCH  14  16
TORSDOF 2
ENDMDL
MODEL       28
REMARK 921   NORMALIZED FREE ENERGY PREDICTED BY IDOCK:   -5.75 KCAL/MOL
REMARK 922        TOTAL FREE ENERGY PREDICTED BY IDOCK:   -6.62 KCAL/MOL
REMARK 923 INTER-LIGAND FREE ENERGY PREDICTED BY IDOCK:   -6.36 KCAL/MOL
REMARK 924 INTRA-LIGAND FREE ENERGY PREDICTED BY IDOCK:   -0.26 KCAL/MOL
REMARK 927      BINDING AFFINITY PREDICTED BY RF-SCORE:    0.00 PKD
ROOT
HETATM    1  C   UNL     1     -11.934  14.039  70.950  1.00  0.00    -0.267 C  
HETATM    2  N   UNL     1     -12.742  15.093  71.582  1.00  0.00    -0.329 NA 
HETATM    3  C   UNL     1     -13.521  14.470  72.594  1.00  0.00    -0.493 C  
HETATM    4  C   UNL     1     -11.967  16.197  72.145  1.00  0.00    -0.537 C  
HETATM    5  C   UNL     1     -13.486  13.018  72.226  1.00  0.00    -0.645 C  
HETATM    6  C   UNL     1     -12.875  12.609  70.799  1.00  0.00    -0.102 C  
HETATM    7  C   UNL     1     -12.852  11.111  71.411  1.00  0.00    -0.544 C  
HETATM    8  C   UNL     1     -11.910  12.161  69.614  1.00  0.00    -0.391 A  
HETATM    9  C   UNL     1     -11.352  13.224  68.920  1.00  0.00    -0.288 A  
HETATM   10  C   UNL     1     -10.720  13.068  67.677  1.00  0.00    -0.239 A  
HETATM   11  N   UNL     1     -11.387  14.392  69.639  1.00  0.00    -0.263 NA 
HETATM   12  C   UNL     1     -11.567  15.675  68.991  1.00  0.00    -0.386 C  
HETATM   13  C   UNL     1     -10.540  11.808  67.121  1.00  0.00    -0.267 A  
HETATM   14  C   UNL     1     -10.945  10.708  67.856  1.00  0.00    -0.295 A  
HETATM   15  C   UNL     1     -11.640  10.879  69.063  1.00  0.00    -0.387 A  
ENDROOT
BRANCH  14  16
HETATM   16  O   UNL     1     -10.779   9.369  67.436  1.00  0.00    -0.280 OA 
BRANCH  16  17
HETATM   17  C   UNL     1     -10.190   8.381  68.223  1.00  0.00    -0.205 C  
HETATM   18  N   UNL     1      -8.882   8.697  68.442  1.00  0.00    -0.142 N  
HETATM   19  O   UNL     1     -10.746   7.375  68.651  1.00  0.00    -0.183 OA 
HETATM   20  H   UNL     1      -8.515   9.555  68.030  1.00  0.00     0.000 HD 
HETATM   21  C   UNL     1      -7.995   7.881  69.226  1.00  0.00    -0.117 C  
ENDBRANCH  16  17
ENDBRANCH  14  16
TORSDOF 2
ENDMDL
MODEL       29
REMARK 921   NORMALIZED FREE ENERGY PREDICTED BY IDOCK:   -5.70 KCAL/MOL
REMARK 922        TOTAL FREE ENERGY PREDICTED BY IDOCK:   -6.57 KCAL/MOL
REMARK 923 INTER-LIGAND FREE ENERGY PREDICTED BY IDOCK:   -6.46 KCAL/MOL
REMARK 924 INTRA-LIGAND FREE ENERGY PREDICTED BY IDOCK:   -0.11 KCAL/MOL
REMARK 927      BINDING AFFINITY PREDICTED BY RF-SCORE:    0.00 PKD
ROOT
HETATM    1  C   UNL     1     -11.428  11.845  65.855  1.00  0.00    -0.278 C  
HETATM    2  N   UNL     1     -11.126  12.901  64.877  1.00  0.00    -0.288 NA 
HETATM    3  C   UNL     1     -10.339  12.306  63.852  1.00  0.00    -0.429 C  
HETATM    4  C   UNL     1     -12.302  13.549  64.301  1.00  0.00    -0.335 C  
HETATM    5  C   UNL     1      -9.827  11.047  64.484  1.00  0.00    -0.343 C  
HETATM    6  C   UNL     1     -10.048  10.842  66.061  1.00  0.00    -0.303 C  
HETATM    7  C   UNL     1      -9.652   9.302  65.760  1.00  0.00    -0.341 C  
HETATM    8  C   UNL     1     -10.618  10.438  67.491  1.00  0.00    -0.312 A  
HETATM    9  C   UNL     1     -11.395  11.425  68.079  1.00  0.00    -0.303 A  
HETATM   10  C   UNL     1     -11.747  11.402  69.437  1.00  0.00    -0.406 A  
HETATM   11  N   UNL     1     -11.863  12.334  67.165  1.00  0.00    -0.566 NA 
HETATM   12  C   UNL     1     -12.034  13.731  67.506  1.00  0.00    -0.376 C  
HETATM   13  C   UNL     1     -11.407  10.324  70.245  1.00  0.00    -0.398 A  
HETATM   14  C   UNL     1     -10.767   9.247  69.657  1.00  0.00    -0.230 A  
HETATM   15  C   UNL     1     -10.355   9.311  68.317  1.00  0.00    -0.257 A  
ENDROOT
BRANCH  14  16
HETATM   16  O   UNL     1     -10.406   8.067  70.346  1.00  0.00    -0.200 OA 
BRANCH  16  17
HETATM   17  C   UNL     1     -11.310   7.287  71.067  1.00  0.00    -0.274 C  
HETATM   18  N   UNL     1     -10.625   6.478  71.924  1.00  0.00    -0.207 N  
HETATM   19  O   UNL     1     -12.530   7.309  70.952  1.00  0.00    -0.308 OA 
HETATM   20  H   UNL     1      -9.607   6.531  71.932  1.00  0.00     0.000 HD 
HETATM   21  C   UNL     1     -11.269   5.553  72.817  1.00  0.00    -0.305 C  
ENDBRANCH  16  17
ENDBRANCH  14  16
TORSDOF 2
ENDMDL
MODEL       30
REMARK 921   NORMALIZED FREE ENERGY PREDICTED BY IDOCK:   -5.70 KCAL/MOL
REMARK 922        TOTAL FREE ENERGY PREDICTED BY IDOCK:   -6.56 KCAL/MOL
REMARK 923 INTER-LIGAND FREE ENERGY PREDICTED BY IDOCK:   -6.44 KCAL/MOL
REMARK 924 INTRA-LIGAND FREE ENERGY PREDICTED BY IDOCK:   -0.12 KCAL/MOL
REMARK 927      BINDING AFFINITY PREDICTED BY RF-SCORE:    0.00 PKD
ROOT
HETATM    1  C   UNL     1     -11.279  10.919  67.058  1.00  0.00    -0.137 C  
HETATM    2  N   UNL     1     -10.509  11.515  65.956  1.00  0.00    -0.244 NA 
HETATM    3  C   UNL     1      -9.671  10.493  65.433  1.00  0.00    -0.257 C  
HETATM    4  C   UNL     1     -11.323  12.098  64.891  1.00  0.00    -0.326 C  
HETATM    5  C   UNL     1      -9.642   9.465  66.523  1.00  0.00    -0.267 C  
HETATM    6  C   UNL     1     -10.271   9.850  67.949  1.00  0.00    -0.234 C  
HETATM    7  C   UNL     1     -10.200   8.260  68.237  1.00  0.00    -0.246 C  
HETATM    8  C   UNL     1     -11.243  10.053  69.194  1.00  0.00    -0.197 A  
HETATM    9  C   UNL     1     -11.874  11.288  69.210  1.00  0.00    -0.354 A  
HETATM   10  C   UNL     1     -12.531  11.787  70.346  1.00  0.00    -0.280 A  
HETATM   11  N   UNL     1     -11.878  11.888  67.977  1.00  0.00    -0.526 NA 
HETATM   12  C   UNL     1     -11.782  13.326  67.834  1.00  0.00    -0.357 C  
HETATM   13  C   UNL     1     -12.662  11.013  71.492  1.00  0.00    -0.521 A  
HETATM   14  C   UNL     1     -12.181   9.716  71.460  1.00  0.00    -0.399 A  
HETATM   15  C   UNL     1     -11.462   9.253  70.348  1.00  0.00    -0.255 A  
ENDROOT
BRANCH  14  16
HETATM   16  O   UNL     1     -12.289   8.804  72.535  1.00  0.00    -0.372 OA 
BRANCH  16  17
HETATM   17  C   UNL     1     -11.381   7.772  72.765  1.00  0.00    -0.389 C  
HETATM   18  N   UNL     1     -12.020   6.573  72.650  1.00  0.00    -0.509 N  
HETATM   19  O   UNL     1     -10.193   7.906  73.037  1.00  0.00    -0.298 OA 
HETATM   20  H   UNL     1     -13.016   6.574  72.429  1.00  0.00     0.000 HD 
HETATM   21  C   UNL     1     -11.359   5.308  72.823  1.00  0.00    -0.276 C  
ENDBRANCH  16  17
ENDBRANCH  14  16
TORSDOF 2
ENDMDL
MODEL       31
REMARK 921   NORMALIZED FREE ENERGY PREDICTED BY IDOCK:   -5.67 KCAL/MOL
REMARK 922        TOTAL FREE ENERGY PREDICTED BY IDOCK:   -6.53 KCAL/MOL
REMARK 923 INTER-LIGAND FREE ENERGY PREDICTED BY IDOCK:   -6.32 KCAL/MOL
REMARK 924 INTRA-LIGAND FREE ENERGY PREDICTED BY IDOCK:   -0.21 KCAL/MOL
REMARK 927      BINDING AFFINITY PREDICTED BY RF-SCORE:    0.00 PKD
ROOT
HETATM    1  C   UNL     1     -10.639  13.889  68.805  1.00  0.00    -0.246 C  
HETATM    2  N   UNL     1     -10.682  14.998  67.840  1.00  0.00    -0.262 NA 
HETATM    3  C   UNL     1     -11.396  16.061  68.458  1.00  0.00    -0.382 C  
HETATM    4  C   UNL     1      -9.371  15.463  67.390  1.00  0.00    -0.201 C  
HETATM    5  C   UNL     1     -12.135  15.389  69.575  1.00  0.00    -0.332 C  
HETATM    6  C   UNL     1     -12.146  13.784  69.625  1.00  0.00    -0.392 C  
HETATM    7  C   UNL     1     -12.683  13.988  71.137  1.00  0.00    -0.436 C  
HETATM    8  C   UNL     1     -11.817  12.256  69.925  1.00  0.00    -0.383 A  
HETATM    9  C   UNL     1     -11.008  11.662  68.968  1.00  0.00    -0.233 A  
HETATM   10  C   UNL     1     -10.839  10.272  68.876  1.00  0.00    -0.263 A  
HETATM   11  N   UNL     1     -10.320  12.585  68.222  1.00  0.00    -0.231 NA 
HETATM   12  C   UNL     1     -10.025  12.359  66.822  1.00  0.00    -0.225 C  
HETATM   13  C   UNL     1     -11.409   9.420  69.814  1.00  0.00    -0.071 A  
HETATM   14  C   UNL     1     -12.095   9.985  70.874  1.00  0.00    -0.355 A  
HETATM   15  C   UNL     1     -12.319  11.370  70.917  1.00  0.00    -0.483 A  
ENDROOT
BRANCH  14  16
HETATM   16  O   UNL     1     -12.682   9.243  71.924  1.00  0.00    -0.340 OA 
BRANCH  16  17
HETATM   17  C   UNL     1     -12.391   7.904  72.179  1.00  0.00    -0.291 C  
HETATM   18  N   UNL     1     -11.288   7.824  72.976  1.00  0.00    -0.567 N  
HETATM   19  O   UNL     1     -13.016   6.939  71.754  1.00  0.00    -0.363 OA 
HETATM   20  H   UNL     1     -10.836   8.691  73.266  1.00  0.00     0.000 HD 
HETATM   21  C   UNL     1     -10.731   6.578  73.428  1.00  0.00    -0.270 C  
ENDBRANCH  16  17
ENDBRANCH  14  16
TORSDOF 2
ENDMDL
MODEL       32
REMARK 921   NORMALIZED FREE ENERGY PREDICTED BY IDOCK:   -5.66 KCAL/MOL
REMARK 922        TOTAL FREE ENERGY PREDICTED BY IDOCK:   -6.52 KCAL/MOL
REMARK 923 INTER-LIGAND FREE ENERGY PREDICTED BY IDOCK:   -6.29 KCAL/MOL
REMARK 924 INTRA-LIGAND FREE ENERGY PREDICTED BY IDOCK:   -0.23 KCAL/MOL
REMARK 927      BINDING AFFINITY PREDICTED BY RF-SCORE:    0.00 PKD
ROOT
HETATM    1  C   UNL     1     -10.096  16.445  67.317  1.00  0.00    -0.270 C  
HETATM    2  N   UNL     1     -10.148  17.911  67.201  1.00  0.00    -0.326 NA 
HETATM    3  C   UNL     1     -10.119  18.434  68.522  1.00  0.00    -0.384 C  
HETATM    4  C   UNL     1      -9.073  18.495  66.400  1.00  0.00    -0.269 C  
HETATM    5  C   UNL     1     -10.507  17.266  69.376  1.00  0.00    -0.142 C  
HETATM    6  C   UNL     1     -11.055  15.942  68.651  1.00  0.00    -0.337 C  
HETATM    7  C   UNL     1     -10.804  15.238  70.086  1.00  0.00    -0.302 C  
HETATM    8  C   UNL     1     -11.187  14.517  67.952  1.00  0.00    -0.310 A  
HETATM    9  C   UNL     1     -11.115  14.568  66.568  1.00  0.00    -0.332 A  
HETATM   10  C   UNL     1     -11.497  13.494  65.750  1.00  0.00    -0.331 A  
HETATM   11  N   UNL     1     -10.527  15.723  66.119  1.00  0.00    -0.305 NA 
HETATM   12  C   UNL     1     -10.942  16.353  64.883  1.00  0.00    -0.263 C  
HETATM   13  C   UNL     1     -11.881  12.278  66.302  1.00  0.00    -0.387 A  
HETATM   14  C   UNL     1     -11.816  12.138  67.677  1.00  0.00    -0.246 A  
HETATM   15  C   UNL     1     -11.504  13.239  68.489  1.00  0.00    -0.347 A  
ENDROOT
BRANCH  14  16
HETATM   16  O   UNL     1     -12.130  10.946  68.368  1.00  0.00    -0.559 OA 
BRANCH  16  17
HETATM   17  C   UNL     1     -11.258  10.315  69.254  1.00  0.00    -0.228 C  
HETATM   18  N   UNL     1     -11.930   9.986  70.394  1.00  0.00    -0.384 N  
HETATM   19  O   UNL     1     -10.069  10.091  69.056  1.00  0.00    -0.180 OA 
HETATM   20  H   UNL     1     -12.918  10.228  70.460  1.00  0.00     0.000 HD 
HETATM   21  C   UNL     1     -11.313   9.315  71.506  1.00  0.00    -0.385 C  
ENDBRANCH  16  17
ENDBRANCH  14  16
TORSDOF 2
ENDMDL
MODEL       33
REMARK 921   NORMALIZED FREE ENERGY PREDICTED BY IDOCK:   -5.65 KCAL/MOL
REMARK 922        TOTAL FREE ENERGY PREDICTED BY IDOCK:   -6.52 KCAL/MOL
REMARK 923 INTER-LIGAND FREE ENERGY PREDICTED BY IDOCK:   -6.54 KCAL/MOL
REMARK 924 INTRA-LIGAND FREE ENERGY PREDICTED BY IDOCK:    0.02 KCAL/MOL
REMARK 927      BINDING AFFINITY PREDICTED BY RF-SCORE:    0.00 PKD
ROOT
HETATM    1  C   UNL     1     -10.218   8.756  69.595  1.00  0.00    -0.210 C  
HETATM    2  N   UNL     1     -10.357   7.356  70.025  1.00  0.00    -0.214 NA 
HETATM    3  C   UNL     1     -10.008   6.542  68.912  1.00  0.00    -0.151 C  
HETATM    4  C   UNL     1      -9.550   6.995  71.189  1.00  0.00    -0.165 C  
HETATM    5  C   UNL     1     -10.114   7.474  67.744  1.00  0.00    -0.235 C  
HETATM    6  C   UNL     1     -10.778   8.918  67.979  1.00  0.00    -0.168 C  
HETATM    7  C   UNL     1     -10.135   9.277  66.538  1.00  0.00    -0.343 C  
HETATM    8  C   UNL     1     -11.029  10.461  68.275  1.00  0.00    -0.321 A  
HETATM    9  C   UNL     1     -11.320  10.732  69.604  1.00  0.00    -0.294 A  
HETATM   10  C   UNL     1     -11.857  11.958  70.026  1.00  0.00    -0.407 A  
HETATM   11  N   UNL     1     -10.915   9.725  70.442  1.00  0.00    -0.287 NA 
HETATM   12  C   UNL     1     -11.661   9.388  71.637  1.00  0.00    -0.396 C  
HETATM   13  C   UNL     1     -12.035  13.005  69.131  1.00  0.00    -0.320 A  
HETATM   14  C   UNL     1     -11.611  12.826  67.827  1.00  0.00    -0.353 A  
HETATM   15  C   UNL     1     -11.144  11.574  67.398  1.00  0.00    -0.339 A  
ENDROOT
BRANCH  14  16
HETATM   16  O   UNL     1     -11.687  13.820  66.825  1.00  0.00    -0.349 OA 
BRANCH  16  17
HETATM   17  C   UNL     1     -12.347  13.642  65.609  1.00  0.00    -0.478 C  
HETATM   18  N   UNL     1     -11.475  13.132  64.692  1.00  0.00    -0.319 N  
HETATM   19  O   UNL     1     -13.523  13.905  65.383  1.00  0.00    -0.672 OA 
HETATM   20  H   UNL     1     -10.513  12.960  64.982  1.00  0.00     0.000 HD 
HETATM   21  C   UNL     1     -11.847  12.827  63.337  1.00  0.00    -0.518 C  
ENDBRANCH  16  17
ENDBRANCH  14  16
TORSDOF 2
ENDMDL
MODEL       34
REMARK 921   NORMALIZED FREE ENERGY PREDICTED BY IDOCK:   -5.64 KCAL/MOL
REMARK 922        TOTAL FREE ENERGY PREDICTED BY IDOCK:   -6.49 KCAL/MOL
REMARK 923 INTER-LIGAND FREE ENERGY PREDICTED BY IDOCK:   -6.30 KCAL/MOL
REMARK 924 INTRA-LIGAND FREE ENERGY PREDICTED BY IDOCK:   -0.20 KCAL/MOL
REMARK 927      BINDING AFFINITY PREDICTED BY RF-SCORE:    0.00 PKD
ROOT
HETATM    1  C   UNL     1     -10.296  12.464  65.041  1.00  0.00    -0.293 C  
HETATM    2  N   UNL     1     -10.734  11.223  64.384  1.00  0.00    -0.348 NA 
HETATM    3  C   UNL     1     -11.638  11.595  63.352  1.00  0.00    -0.237 C  
HETATM    4  C   UNL     1      -9.649  10.408  63.839  1.00  0.00    -0.312 C  
HETATM    5  C   UNL     1     -12.049  12.987  63.725  1.00  0.00    -0.574 C  
HETATM    6  C   UNL     1     -11.625  13.544  65.170  1.00  0.00    -0.333 C  
HETATM    7  C   UNL     1     -12.037  14.987  64.564  1.00  0.00    -0.373 C  
HETATM    8  C   UNL     1     -10.871  14.246  66.383  1.00  0.00    -0.307 A  
HETATM    9  C   UNL     1     -10.037  13.391  67.089  1.00  0.00    -0.240 A  
HETATM   10  C   UNL     1      -9.513  13.715  68.350  1.00  0.00    -0.190 A  
HETATM   11  N   UNL     1      -9.702  12.275  66.366  1.00  0.00    -0.230 NA 
HETATM   12  C   UNL     1      -9.506  10.990  67.004  1.00  0.00    -0.173 C  
HETATM   13  C   UNL     1      -9.733  14.965  68.914  1.00  0.00    -0.223 A  
HETATM   14  C   UNL     1     -10.430  15.901  68.172  1.00  0.00    -0.270 A  
HETATM   15  C   UNL     1     -11.011  15.545  66.945  1.00  0.00    -0.268 A  
ENDROOT
BRANCH  14  16
HETATM   16  O   UNL     1     -10.685  17.224  68.601  1.00  0.00    -0.340 OA 
BRANCH  16  17
HETATM   17  C   UNL     1      -9.905  18.319  68.231  1.00  0.00    -0.350 C  
HETATM   18  N   UNL     1     -10.541  19.015  67.246  1.00  0.00    -0.450 N  
HETATM   19  O   UNL     1      -8.813  18.616  68.702  1.00  0.00    -0.323 OA 
HETATM   20  H   UNL     1     -11.444  18.674  66.917  1.00  0.00     0.000 HD 
HETATM   21  C   UNL     1     -10.001  20.206  66.649  1.00  0.00    -0.463 C  
ENDBRANCH  16  17
ENDBRANCH  14  16
TORSDOF 2
ENDMDL
MODEL       35
REMARK 921   NORMALIZED FREE ENERGY PREDICTED BY IDOCK:   -5.56 KCAL/MOL
REMARK 922        TOTAL FREE ENERGY PREDICTED BY IDOCK:   -6.40 KCAL/MOL
REMARK 923 INTER-LIGAND FREE ENERGY PREDICTED BY IDOCK:   -6.23 KCAL/MOL
REMARK 924 INTRA-LIGAND FREE ENERGY PREDICTED BY IDOCK:   -0.17 KCAL/MOL
REMARK 927      BINDING AFFINITY PREDICTED BY RF-SCORE:    0.00 PKD
ROOT
HETATM    1  C   UNL     1     -11.359   8.545  71.010  1.00  0.00    -0.271 C  
HETATM    2  N   UNL     1     -11.686   7.111  71.052  1.00  0.00    -0.305 NA 
HETATM    3  C   UNL     1     -10.977   6.492  69.986  1.00  0.00    -0.332 C  
HETATM    4  C   UNL     1     -11.372   6.454  72.319  1.00  0.00    -0.290 C  
HETATM    5  C   UNL     1     -10.622   7.634  69.084  1.00  0.00    -0.195 C  
HETATM    6  C   UNL     1     -11.284   9.068  69.375  1.00  0.00     0.102 C  
HETATM    7  C   UNL     1     -10.149   9.625  68.365  1.00  0.00    -0.199 C  
HETATM    8  C   UNL     1     -11.582  10.545  69.888  1.00  0.00    -0.384 A  
HETATM    9  C   UNL     1     -12.331  10.588  71.054  1.00  0.00    -0.399 A  
HETATM   10  C   UNL     1     -12.949  11.761  71.513  1.00  0.00    -0.446 A  
HETATM   11  N   UNL     1     -12.289   9.404  71.744  1.00  0.00    -0.374 NA 
HETATM   12  C   UNL     1     -13.430   8.926  72.498  1.00  0.00    -0.412 C  
HETATM   13  C   UNL     1     -12.758  12.972  70.859  1.00  0.00    -0.299 A  
HETATM   14  C   UNL     1     -11.891  13.000  69.781  1.00  0.00    -0.311 A  
HETATM   15  C   UNL     1     -11.336  11.810  69.286  1.00  0.00    -0.348 A  
ENDROOT
BRANCH  14  16
HETATM   16  O   UNL     1     -11.567  14.168  69.055  1.00  0.00    -0.262 OA 
BRANCH  16  17
HETATM   17  C   UNL     1     -11.361  14.187  67.676  1.00  0.00    -0.319 C  
HETATM   18  N   UNL     1     -12.558  14.056  67.038  1.00  0.00    -0.455 N  
HETATM   19  O   UNL     1     -10.278  14.296  67.112  1.00  0.00    -0.251 OA 
HETATM   20  H   UNL     1     -13.401  13.961  67.604  1.00  0.00     0.000 HD 
HETATM   21  C   UNL     1     -12.691  14.045  65.606  1.00  0.00    -0.481 C  
ENDBRANCH  16  17
ENDBRANCH  14  16
TORSDOF 2
ENDMDL
MODEL       36
REMARK 921   NORMALIZED FREE ENERGY PREDICTED BY IDOCK:   -5.54 KCAL/MOL
REMARK 922        TOTAL FREE ENERGY PREDICTED BY IDOCK:   -6.38 KCAL/MOL
REMARK 923 INTER-LIGAND FREE ENERGY PREDICTED BY IDOCK:   -6.30 KCAL/MOL
REMARK 924 INTRA-LIGAND FREE ENERGY PREDICTED BY IDOCK:   -0.08 KCAL/MOL
REMARK 927      BINDING AFFINITY PREDICTED BY RF-SCORE:    0.00 PKD
ROOT
HETATM    1  C   UNL     1     -10.532  13.177  66.468  1.00  0.00    -0.279 C  
HETATM    2  N   UNL     1     -11.140  14.403  65.928  1.00  0.00    -0.313 NA 
HETATM    3  C   UNL     1     -11.842  15.025  66.996  1.00  0.00    -0.109 C  
HETATM    4  C   UNL     1     -10.190  15.340  65.332  1.00  0.00    -0.383 C  
HETATM    5  C   UNL     1     -12.004  13.926  68.002  1.00  0.00    -0.390 C  
HETATM    6  C   UNL     1     -11.626  12.428  67.562  1.00  0.00    -0.431 C  
HETATM    7  C   UNL     1     -11.678  12.113  69.148  1.00  0.00    -0.384 C  
HETATM    8  C   UNL     1     -10.873  11.052  67.292  1.00  0.00    -0.335 A  
HETATM    9  C   UNL     1     -10.303  10.968  66.030  1.00  0.00    -0.254 A  
HETATM   10  C   UNL     1      -9.856   9.757  65.481  1.00  0.00    -0.378 A  
HETATM   11  N   UNL     1     -10.126  12.200  65.455  1.00  0.00    -0.246 NA 
HETATM   12  C   UNL     1     -10.255  12.395  64.026  1.00  0.00    -0.375 C  
HETATM   13  C   UNL     1      -9.878   8.584  66.225  1.00  0.00    -0.285 A  
HETATM   14  C   UNL     1     -10.296   8.657  67.542  1.00  0.00    -0.269 A  
HETATM   15  C   UNL     1     -10.809   9.857  68.059  1.00  0.00    -0.294 A  
ENDROOT
BRANCH  14  16
HETATM   16  O   UNL     1     -10.324   7.555  68.427  1.00  0.00    -0.189 OA 
BRANCH  16  17
HETATM   17  C   UNL     1     -10.660   7.658  69.776  1.00  0.00    -0.244 C  
HETATM   18  N   UNL     1     -11.912   7.154  69.969  1.00  0.00    -0.574 N  
HETATM   19  O   UNL     1      -9.955   8.131  70.660  1.00  0.00    -0.187 OA 
HETATM   20  H   UNL     1     -12.420   6.793  69.161  1.00  0.00     0.000 HD 
HETATM   21  C   UNL     1     -12.553   7.106  71.256  1.00  0.00    -0.380 C  
ENDBRANCH  16  17
ENDBRANCH  14  16
TORSDOF 2
ENDMDL
MODEL       37
REMARK 921   NORMALIZED FREE ENERGY PREDICTED BY IDOCK:   -5.54 KCAL/MOL
REMARK 922        TOTAL FREE ENERGY PREDICTED BY IDOCK:   -6.38 KCAL/MOL
REMARK 923 INTER-LIGAND FREE ENERGY PREDICTED BY IDOCK:   -6.18 KCAL/MOL
REMARK 924 INTRA-LIGAND FREE ENERGY PREDICTED BY IDOCK:   -0.21 KCAL/MOL
REMARK 927      BINDING AFFINITY PREDICTED BY RF-SCORE:    0.00 PKD
ROOT
HETATM    1  C   UNL     1     -11.219  14.916  67.450  1.00  0.00    -0.338 C  
HETATM    2  N   UNL     1     -10.294  15.886  66.845  1.00  0.00    -0.286 NA 
HETATM    3  C   UNL     1      -9.712  15.255  65.711  1.00  0.00    -0.350 C  
HETATM    4  C   UNL     1     -10.910  17.154  66.459  1.00  0.00     0.057 C  
HETATM    5  C   UNL     1      -9.967  13.797  65.947  1.00  0.00    -0.308 C  
HETATM    6  C   UNL     1     -10.528  13.344  67.382  1.00  0.00    -0.243 C  
HETATM    7  C   UNL     1     -10.853  11.943  66.641  1.00  0.00    -0.315 C  
HETATM    8  C   UNL     1     -11.460  12.937  68.607  1.00  0.00    -0.346 A  
HETATM    9  C   UNL     1     -11.773  13.998  69.443  1.00  0.00    -0.315 A  
HETATM   10  C   UNL     1     -12.325  13.817  70.721  1.00  0.00    -0.451 A  
HETATM   11  N   UNL     1     -11.595  15.213  68.834  1.00  0.00    -0.323 NA 
HETATM   12  C   UNL     1     -11.149  16.375  69.576  1.00  0.00    -0.293 C  
HETATM   13  C   UNL     1     -12.674  12.551  71.174  1.00  0.00    -0.340 A  
HETATM   14  C   UNL     1     -12.521  11.484  70.307  1.00  0.00    -0.205 A  
HETATM   15  C   UNL     1     -11.902  11.665  69.061  1.00  0.00    -0.391 A  
ENDROOT
BRANCH  14  16
HETATM   16  O   UNL     1     -12.880  10.152  70.618  1.00  0.00    -0.309 OA 
BRANCH  16  17
HETATM   17  C   UNL     1     -12.300   9.418  71.651  1.00  0.00    -0.385 C  
HETATM   18  N   UNL     1     -10.974   9.241  71.391  1.00  0.00    -0.335 N  
HETATM   19  O   UNL     1     -12.881   8.985  72.640  1.00  0.00    -0.381 OA 
HETATM   20  H   UNL     1     -10.591   9.634  70.531  1.00  0.00     0.000 HD 
HETATM   21  C   UNL     1     -10.087   8.527  72.270  1.00  0.00    -0.316 C  
ENDBRANCH  16  17
ENDBRANCH  14  16
TORSDOF 2
ENDMDL
MODEL       38
REMARK 921   NORMALIZED FREE ENERGY PREDICTED BY IDOCK:   -5.50 KCAL/MOL
REMARK 922        TOTAL FREE ENERGY PREDICTED BY IDOCK:   -6.34 KCAL/MOL
REMARK 923 INTER-LIGAND FREE ENERGY PREDICTED BY IDOCK:   -6.34 KCAL/MOL
REMARK 924 INTRA-LIGAND FREE ENERGY PREDICTED BY IDOCK:   -0.01 KCAL/MOL
REMARK 927      BINDING AFFINITY PREDICTED BY RF-SCORE:    0.00 PKD
ROOT
HETATM    1  C   UNL     1      -7.656  18.799  68.215  1.00  0.00    -0.281 C  
HETATM    2  N   UNL     1      -6.696  19.440  67.303  1.00  0.00    -0.197 NA 
HETATM    3  C   UNL     1      -7.375  20.520  66.677  1.00  0.00    -0.233 C  
HETATM    4  C   UNL     1      -5.472  19.915  67.946  1.00  0.00    -0.193 C  
HETATM    5  C   UNL     1      -8.823  20.204  66.894  1.00  0.00    -0.426 C  
HETATM    6  C   UNL     1      -9.207  18.757  67.477  1.00  0.00    -0.306 C  
HETATM    7  C   UNL     1     -10.659  19.420  67.744  1.00  0.00    -0.538 C  
HETATM    8  C   UNL     1      -9.569  17.532  68.426  1.00  0.00    -0.303 A  
HETATM    9  C   UNL     1      -8.470  16.767  68.791  1.00  0.00    -0.253 A  
HETATM   10  C   UNL     1      -8.592  15.494  69.368  1.00  0.00    -0.259 A  
HETATM   11  N   UNL     1      -7.289  17.444  68.632  1.00  0.00    -0.234 NA 
HETATM   12  C   UNL     1      -6.072  16.763  68.238  1.00  0.00    -0.132 C  
HETATM   13  C   UNL     1      -9.839  14.974  69.692  1.00  0.00    -0.095 A  
HETATM   14  C   UNL     1     -10.951  15.771  69.487  1.00  0.00    -0.295 A  
HETATM   15  C   UNL     1     -10.825  17.012  68.843  1.00  0.00    -0.228 A  
ENDROOT
BRANCH  14  16
HETATM   16  O   UNL     1     -12.272  15.390  69.815  1.00  0.00    -0.337 OA 
BRANCH  16  17
HETATM   17  C   UNL     1     -12.867  15.652  71.048  1.00  0.00    -0.463 C  
HETATM   18  N   UNL     1     -11.897  15.861  71.983  1.00  0.00    -0.471 N  
HETATM   19  O   UNL     1     -14.072  15.684  71.272  1.00  0.00    -0.560 OA 
HETATM   20  H   UNL     1     -10.922  15.800  71.691  1.00  0.00     0.000 HD 
HETATM   21  C   UNL     1     -12.182  16.163  73.359  1.00  0.00    -0.533 C  
ENDBRANCH  16  17
ENDBRANCH  14  16
TORSDOF 2
ENDMDL
MODEL       39
REMARK 921   NORMALIZED FREE ENERGY PREDICTED BY IDOCK:   -5.50 KCAL/MOL
REMARK 922        TOTAL FREE ENERGY PREDICTED BY IDOCK:   -6.34 KCAL/MOL
REMARK 923 INTER-LIGAND FREE ENERGY PREDICTED BY IDOCK:   -6.12 KCAL/MOL
REMARK 924 INTRA-LIGAND FREE ENERGY PREDICTED BY IDOCK:   -0.22 KCAL/MOL
REMARK 927      BINDING AFFINITY PREDICTED BY RF-SCORE:    0.00 PKD
ROOT
HETATM    1  C   UNL     1     -11.141   9.173  70.839  1.00  0.00    -0.291 C  
HETATM    2  N   UNL     1     -11.598   7.801  71.104  1.00  0.00    -0.278 NA 
HETATM    3  C   UNL     1     -10.913   6.950  70.195  1.00  0.00    -0.281 C  
HETATM    4  C   UNL     1     -11.390   7.347  72.478  1.00  0.00    -0.313 C  
HETATM    5  C   UNL     1     -10.423   7.887  69.133  1.00  0.00    -0.218 C  
HETATM    6  C   UNL     1     -10.961   9.400  69.145  1.00  0.00    -0.114 C  
HETATM    7  C   UNL     1      -9.746   9.677  68.114  1.00  0.00    -0.164 C  
HETATM    8  C   UNL     1     -11.141  10.963  69.387  1.00  0.00    -0.317 A  
HETATM    9  C   UNL     1     -11.923  11.268  70.490  1.00  0.00    -0.371 A  
HETATM   10  C   UNL     1     -12.448  12.550  70.714  1.00  0.00    -0.357 A  
HETATM   11  N   UNL     1     -12.014  10.221  71.371  1.00  0.00    -0.359 NA 
HETATM   12  C   UNL     1     -13.219   9.977  72.136  1.00  0.00    -0.390 C  
HETATM   13  C   UNL     1     -12.124  13.611  69.877  1.00  0.00    -0.406 A  
HETATM   14  C   UNL     1     -11.222  13.380  68.854  1.00  0.00    -0.276 A  
HETATM   15  C   UNL     1     -10.760  12.081  68.595  1.00  0.00    -0.266 A  
ENDROOT
BRANCH  14  16
HETATM   16  O   UNL     1     -10.767  14.375  67.959  1.00  0.00    -0.237 OA 
BRANCH  16  17
HETATM   17  C   UNL     1     -11.381  14.654  66.739  1.00  0.00    -0.356 C  
HETATM   18  N   UNL     1     -10.606  15.524  66.031  1.00  0.00    -0.314 N  
HETATM   19  O   UNL     1     -12.453  14.201  66.353  1.00  0.00    -0.461 OA 
HETATM   20  H   UNL     1      -9.734  15.848  66.451  1.00  0.00     0.000 HD 
HETATM   21  C   UNL     1     -10.956  16.007  64.723  1.00  0.00    -0.356 C  
ENDBRANCH  16  17
ENDBRANCH  14  16
TORSDOF 2
ENDMDL
MODEL       40
REMARK 921   NORMALIZED FREE ENERGY PREDICTED BY IDOCK:   -5.45 KCAL/MOL
REMARK 922        TOTAL FREE ENERGY PREDICTED BY IDOCK:   -6.28 KCAL/MOL
REMARK 923 INTER-LIGAND FREE ENERGY PREDICTED BY IDOCK:   -6.04 KCAL/MOL
REMARK 924 INTRA-LIGAND FREE ENERGY PREDICTED BY IDOCK:   -0.25 KCAL/MOL
REMARK 927      BINDING AFFINITY PREDICTED BY RF-SCORE:    0.00 PKD
ROOT
HETATM    1  C   UNL     1     -10.978   8.407  69.773  1.00  0.00    -0.127 C  
HETATM    2  N   UNL     1     -10.441   7.739  70.968  1.00  0.00    -0.203 NA 
HETATM    3  C   UNL     1     -10.968   8.422  72.099  1.00  0.00    -0.341 C  
HETATM    4  C   UNL     1     -10.741   6.311  71.053  1.00  0.00    -0.259 C  
HETATM    5  C   UNL     1     -11.427   9.734  71.539  1.00  0.00    -0.393 C  
HETATM    6  C   UNL     1     -11.013  10.105  70.032  1.00  0.00    -0.364 C  
HETATM    7  C   UNL     1     -12.144  11.255  70.169  1.00  0.00    -0.448 C  
HETATM    8  C   UNL     1     -10.981  10.295  68.452  1.00  0.00    -0.308 A  
HETATM    9  C   UNL     1     -10.334   9.268  67.781  1.00  0.00    -0.237 A  
HETATM   10  C   UNL     1      -9.935   9.373  66.440  1.00  0.00    -0.346 A  
HETATM   11  N   UNL     1     -10.244   8.127  68.537  1.00  0.00    -0.204 NA 
HETATM   12  C   UNL     1      -9.101   7.243  68.441  1.00  0.00    -0.135 C  
HETATM   13  C   UNL     1     -10.261  10.493  65.684  1.00  0.00    -0.315 A  
HETATM   14  C   UNL     1     -11.041  11.471  66.273  1.00  0.00    -0.263 A  
HETATM   15  C   UNL     1     -11.372  11.391  67.635  1.00  0.00    -0.359 A  
ENDROOT
BRANCH  14  16
HETATM   16  O   UNL     1     -11.487  12.637  65.609  1.00  0.00    -0.317 OA 
BRANCH  16  17
HETATM   17  C   UNL     1     -11.159  13.929  66.016  1.00  0.00    -0.289 C  
HETATM   18  N   UNL     1      -9.898  14.230  65.594  1.00  0.00    -0.481 N  
HETATM   19  O   UNL     1     -11.878  14.685  66.659  1.00  0.00    -0.375 OA 
HETATM   20  H   UNL     1      -9.379  13.523  65.073  1.00  0.00     0.000 HD 
HETATM   21  C   UNL     1      -9.263  15.495  65.848  1.00  0.00    -0.270 C  
ENDBRANCH  16  17
ENDBRANCH  14  16
TORSDOF 2
ENDMDL
MODEL       41
REMARK 921   NORMALIZED FREE ENERGY PREDICTED BY IDOCK:   -5.42 KCAL/MOL
REMARK 922        TOTAL FREE ENERGY PREDICTED BY IDOCK:   -6.25 KCAL/MOL
REMARK 923 INTER-LIGAND FREE ENERGY PREDICTED BY IDOCK:   -6.06 KCAL/MOL
REMARK 924 INTRA-LIGAND FREE ENERGY PREDICTED BY IDOCK:   -0.19 KCAL/MOL
REMARK 927      BINDING AFFINITY PREDICTED BY RF-SCORE:    0.00 PKD
ROOT
HETATM    1  C   UNL     1     -10.795  11.069  68.957  1.00  0.00    -0.229 C  
HETATM    2  N   UNL     1     -11.099   9.643  68.760  1.00  0.00    -0.112 NA 
HETATM    3  C   UNL     1     -10.636   9.295  67.461  1.00  0.00    -0.262 C  
HETATM    4  C   UNL     1     -10.515   8.754  69.762  1.00  0.00    -0.219 C  
HETATM    5  C   UNL     1     -10.489  10.616  66.770  1.00  0.00    -0.303 C  
HETATM    6  C   UNL     1     -11.079  11.924  67.494  1.00  0.00    -0.332 C  
HETATM    7  C   UNL     1     -10.192  12.734  66.410  1.00  0.00    -0.263 C  
HETATM    8  C   UNL     1     -11.264  13.245  68.361  1.00  0.00    -0.314 A  
HETATM    9  C   UNL     1     -11.743  13.007  69.641  1.00  0.00    -0.297 A  
HETATM   10  C   UNL     1     -12.252  14.026  70.461  1.00  0.00    -0.435 A  
HETATM   11  N   UNL     1     -11.547  11.709  70.038  1.00  0.00    -0.285 NA 
HETATM   12  C   UNL     1     -12.495  11.028  70.895  1.00  0.00    -0.410 C  
HETATM   13  C   UNL     1     -12.212  15.355  70.055  1.00  0.00    -0.392 A  
HETATM   14  C   UNL     1     -11.600  15.649  68.850  1.00  0.00    -0.383 A  
HETATM   15  C   UNL     1     -11.160  14.618  68.007  1.00  0.00    -0.291 A  
ENDROOT
BRANCH  14  16
HETATM   16  O   UNL     1     -11.446  16.958  68.339  1.00  0.00    -0.136 OA 
BRANCH  16  17
HETATM   17  C   UNL     1     -10.274  17.702  68.463  1.00  0.00    -0.386 C  
HETATM   18  N   UNL     1     -10.474  18.950  67.952  1.00  0.00    -0.398 N  
HETATM   19  O   UNL     1      -9.219  17.307  68.947  1.00  0.00    -0.256 OA 
HETATM   20  H   UNL     1     -11.390  19.173  67.563  1.00  0.00     0.000 HD 
HETATM   21  C   UNL     1      -9.457  19.967  67.936  1.00  0.00    -0.359 C  
ENDBRANCH  16  17
ENDBRANCH  14  16
TORSDOF 2
ENDMDL
MODEL       42
REMARK 921   NORMALIZED FREE ENERGY PREDICTED BY IDOCK:   -5.40 KCAL/MOL
REMARK 922        TOTAL FREE ENERGY PREDICTED BY IDOCK:   -6.24 KCAL/MOL
REMARK 923 INTER-LIGAND FREE ENERGY PREDICTED BY IDOCK:   -6.00 KCAL/MOL
REMARK 924 INTRA-LIGAND FREE ENERGY PREDICTED BY IDOCK:   -0.24 KCAL/MOL
REMARK 927      BINDING AFFINITY PREDICTED BY RF-SCORE:    0.00 PKD
ROOT
HETATM    1  C   UNL     1     -10.425  13.202  65.557  1.00  0.00    -0.288 C  
HETATM    2  N   UNL     1     -11.148  11.997  65.121  1.00  0.00    -0.311 NA 
HETATM    3  C   UNL     1     -11.937  12.368  63.998  1.00  0.00    -0.460 C  
HETATM    4  C   UNL     1     -10.291  10.862  64.786  1.00  0.00    -0.323 C  
HETATM    5  C   UNL     1     -12.002  13.863  64.088  1.00  0.00    -0.464 C  
HETATM    6  C   UNL     1     -11.456  14.570  65.423  1.00  0.00    -0.348 C  
HETATM    7  C   UNL     1     -11.509  15.926  64.542  1.00  0.00    -0.287 C  
HETATM    8  C   UNL     1     -10.554  15.292  66.518  1.00  0.00    -0.304 A  
HETATM    9  C   UNL     1      -9.951  14.415  67.407  1.00  0.00    -0.242 A  
HETATM   10  C   UNL     1      -9.364  14.841  68.609  1.00  0.00    -0.198 A  
HETATM   11  N   UNL     1      -9.894  13.135  66.919  1.00  0.00    -0.243 NA 
HETATM   12  C   UNL     1     -10.012  11.985  67.793  1.00  0.00    -0.195 C  
HETATM   13  C   UNL     1      -9.277  16.192  68.921  1.00  0.00    -0.234 A  
HETATM   14  C   UNL     1      -9.729  17.106  67.987  1.00  0.00    -0.274 A  
HETATM   15  C   UNL     1     -10.379  16.669  66.823  1.00  0.00    -0.295 A  
ENDROOT
BRANCH  14  16
HETATM   16  O   UNL     1      -9.658  18.508  68.152  1.00  0.00    -0.300 OA 
BRANCH  16  17
HETATM   17  C   UNL     1      -8.471  19.235  68.081  1.00  0.00    -0.327 C  
HETATM   18  N   UNL     1      -8.225  19.575  66.784  1.00  0.00    -0.282 N  
HETATM   19  O   UNL     1      -7.746  19.523  69.027  1.00  0.00    -0.362 OA 
HETATM   20  H   UNL     1      -8.889  19.275  66.070  1.00  0.00     0.000 HD 
HETATM   21  C   UNL     1      -7.077  20.337  66.373  1.00  0.00    -0.262 C  
ENDBRANCH  16  17
ENDBRANCH  14  16
TORSDOF 2
ENDMDL
MODEL       43
REMARK 921   NORMALIZED FREE ENERGY PREDICTED BY IDOCK:   -5.39 KCAL/MOL
REMARK 922        TOTAL FREE ENERGY PREDICTED BY IDOCK:   -6.22 KCAL/MOL
REMARK 923 INTER-LIGAND FREE ENERGY PREDICTED BY IDOCK:   -6.00 KCAL/MOL
REMARK 924 INTRA-LIGAND FREE ENERGY PREDICTED BY IDOCK:   -0.22 KCAL/MOL
REMARK 927      BINDING AFFINITY PREDICTED BY RF-SCORE:    0.00 PKD
ROOT
HETATM    1  C   UNL     1     -10.622  15.130  66.220  1.00  0.00    -0.310 C  
HETATM    2  N   UNL     1     -10.347  16.297  65.367  1.00  0.00    -0.567 NA 
HETATM    3  C   UNL     1     -11.354  16.324  64.363  1.00  0.00    -0.129 C  
HETATM    4  C   UNL     1     -10.305  17.573  66.078  1.00  0.00    -0.306 C  
HETATM    5  C   UNL     1     -11.915  14.935  64.384  1.00  0.00    -0.408 C  
HETATM    6  C   UNL     1     -11.147  13.817  65.244  1.00  0.00    -0.315 C  
HETATM    7  C   UNL     1     -12.505  12.958  65.053  1.00  0.00    -0.553 C  
HETATM    8  C   UNL     1     -10.663  12.833  66.398  1.00  0.00    -0.282 A  
HETATM    9  C   UNL     1      -9.608  13.332  67.148  1.00  0.00    -0.240 A  
HETATM   10  C   UNL     1      -8.843  12.528  68.007  1.00  0.00    -0.187 A  
HETATM   11  N   UNL     1      -9.490  14.694  67.040  1.00  0.00    -0.231 NA 
HETATM   12  C   UNL     1      -8.198  15.347  67.072  1.00  0.00    -0.236 C  
HETATM   13  C   UNL     1      -9.173  11.195  68.219  1.00  0.00    -0.169 A  
HETATM   14  C   UNL     1     -10.312  10.702  67.609  1.00  0.00    -0.209 A  
HETATM   15  C   UNL     1     -11.028  11.492  66.696  1.00  0.00    -0.349 A  
ENDROOT
BRANCH  14  16
HETATM   16  O   UNL     1     -10.791   9.382  67.774  1.00  0.00    -0.252 OA 
BRANCH  16  17
HETATM   17  C   UNL     1     -10.359   8.302  67.006  1.00  0.00    -0.323 C  
HETATM   18  N   UNL     1     -11.146   7.220  67.263  1.00  0.00    -0.583 N  
HETATM   19  O   UNL     1      -9.415   8.308  66.224  1.00  0.00    -0.206 OA 
HETATM   20  H   UNL     1     -11.901   7.320  67.942  1.00  0.00     0.000 HD 
HETATM   21  C   UNL     1     -10.966   5.944  66.625  1.00  0.00    -0.148 C  
ENDBRANCH  16  17
ENDBRANCH  14  16
TORSDOF 2
ENDMDL
MODEL       44
REMARK 921   NORMALIZED FREE ENERGY PREDICTED BY IDOCK:   -5.38 KCAL/MOL
REMARK 922        TOTAL FREE ENERGY PREDICTED BY IDOCK:   -6.20 KCAL/MOL
REMARK 923 INTER-LIGAND FREE ENERGY PREDICTED BY IDOCK:   -5.95 KCAL/MOL
REMARK 924 INTRA-LIGAND FREE ENERGY PREDICTED BY IDOCK:   -0.25 KCAL/MOL
REMARK 927      BINDING AFFINITY PREDICTED BY RF-SCORE:    0.00 PKD
ROOT
HETATM    1  C   UNL     1     -12.141  11.446  69.485  1.00  0.00    -0.302 C  
HETATM    2  N   UNL     1     -12.179  11.985  70.853  1.00  0.00    -0.311 NA 
HETATM    3  C   UNL     1     -12.465  13.373  70.746  1.00  0.00    -0.341 C  
HETATM    4  C   UNL     1     -13.145  11.335  71.737  1.00  0.00    -0.422 C  
HETATM    5  C   UNL     1     -12.140  13.694  69.319  1.00  0.00    -0.360 C  
HETATM    6  C   UNL     1     -11.383  12.581  68.442  1.00  0.00    -0.333 C  
HETATM    7  C   UNL     1     -11.817  13.500  67.183  1.00  0.00    -0.430 C  
HETATM    8  C   UNL     1     -11.033  11.373  67.467  1.00  0.00    -0.312 A  
HETATM    9  C   UNL     1     -10.877  10.159  68.119  1.00  0.00    -0.262 A  
HETATM   10  C   UNL     1     -10.287   9.042  67.508  1.00  0.00    -0.328 A  
HETATM   11  N   UNL     1     -11.465  10.153  69.357  1.00  0.00    -0.186 NA 
HETATM   12  C   UNL     1     -10.898   9.409  70.463  1.00  0.00    -0.277 C  
HETATM   13  C   UNL     1      -9.912   9.075  66.171  1.00  0.00    -0.311 A  
HETATM   14  C   UNL     1     -10.194  10.217  65.443  1.00  0.00    -0.242 A  
HETATM   15  C   UNL     1     -10.717  11.353  66.080  1.00  0.00    -0.320 A  
ENDROOT
BRANCH  14  16
HETATM   16  O   UNL     1      -9.913  10.370  64.067  1.00  0.00    -0.323 OA 
BRANCH  16  17
HETATM   17  C   UNL     1      -8.798   9.815  63.440  1.00  0.00    -0.241 C  
HETATM   18  N   UNL     1      -7.722  10.632  63.626  1.00  0.00    -0.352 N  
HETATM   19  O   UNL     1      -8.776   8.764  62.811  1.00  0.00    -0.173 OA 
HETATM   20  H   UNL     1      -7.853  11.492  64.158  1.00  0.00     0.000 HD 
HETATM   21  C   UNL     1      -6.413  10.340  63.108  1.00  0.00    -0.127 C  
ENDBRANCH  16  17
ENDBRANCH  14  16
TORSDOF 2
ENDMDL
MODEL       45
REMARK 921   NORMALIZED FREE ENERGY PREDICTED BY IDOCK:   -5.34 KCAL/MOL
REMARK 922        TOTAL FREE ENERGY PREDICTED BY IDOCK:   -6.16 KCAL/MOL
REMARK 923 INTER-LIGAND FREE ENERGY PREDICTED BY IDOCK:   -6.02 KCAL/MOL
REMARK 924 INTRA-LIGAND FREE ENERGY PREDICTED BY IDOCK:   -0.14 KCAL/MOL
REMARK 927      BINDING AFFINITY PREDICTED BY RF-SCORE:    0.00 PKD
ROOT
HETATM    1  C   UNL     1      -9.472  10.454  65.028  1.00  0.00    -0.253 C  
HETATM    2  N   UNL     1      -9.262   9.477  63.949  1.00  0.00    -0.145 NA 
HETATM    3  C   UNL     1      -9.329  10.191  62.722  1.00  0.00    -0.295 C  
HETATM    4  C   UNL     1      -8.005   8.736  64.037  1.00  0.00    -0.156 C  
HETATM    5  C   UNL     1     -10.022  11.467  63.091  1.00  0.00    -0.404 C  
HETATM    6  C   UNL     1     -10.678  11.583  64.552  1.00  0.00    -0.390 C  
HETATM    7  C   UNL     1     -10.749  13.166  64.227  1.00  0.00    -0.431 C  
HETATM    8  C   UNL     1     -10.948  11.867  66.095  1.00  0.00    -0.352 A  
HETATM    9  C   UNL     1     -10.678  10.782  66.916  1.00  0.00    -0.252 A  
HETATM   10  C   UNL     1     -11.116  10.712  68.247  1.00  0.00    -0.334 A  
HETATM   11  N   UNL     1      -9.848   9.869  66.317  1.00  0.00    -0.228 NA 
HETATM   12  C   UNL     1      -9.977   8.449  66.569  1.00  0.00    -0.265 C  
HETATM   13  C   UNL     1     -11.771  11.785  68.840  1.00  0.00    -0.384 A  
HETATM   14  C   UNL     1     -11.921  12.944  68.101  1.00  0.00    -0.261 A  
HETATM   15  C   UNL     1     -11.545  12.979  66.750  1.00  0.00    -0.420 A  
ENDROOT
BRANCH  14  16
HETATM   16  O   UNL     1     -12.522  14.125  68.593  1.00  0.00    -0.145 OA 
BRANCH  16  17
HETATM   17  C   UNL     1     -11.816  15.141  69.235  1.00  0.00    -0.320 C  
HETATM   18  N   UNL     1     -11.282  15.980  68.302  1.00  0.00    -0.356 N  
HETATM   19  O   UNL     1     -11.680  15.268  70.446  1.00  0.00    -0.262 OA 
HETATM   20  H   UNL     1     -11.447  15.776  67.316  1.00  0.00     0.000 HD 
HETATM   21  C   UNL     1     -10.499  17.137  68.639  1.00  0.00    -0.366 C  
ENDBRANCH  16  17
ENDBRANCH  14  16
TORSDOF 2
ENDMDL
MODEL       46
REMARK 921   NORMALIZED FREE ENERGY PREDICTED BY IDOCK:   -5.33 KCAL/MOL
REMARK 922        TOTAL FREE ENERGY PREDICTED BY IDOCK:   -6.16 KCAL/MOL
REMARK 923 INTER-LIGAND FREE ENERGY PREDICTED BY IDOCK:   -5.94 KCAL/MOL
REMARK 924 INTRA-LIGAND FREE ENERGY PREDICTED BY IDOCK:   -0.22 KCAL/MOL
REMARK 927      BINDING AFFINITY PREDICTED BY RF-SCORE:    0.00 PKD
ROOT
HETATM    1  C   UNL     1     -11.045  12.476  67.768  1.00  0.00    -0.249 C  
HETATM    2  N   UNL     1     -11.949  12.834  68.871  1.00  0.00    -0.286 NA 
HETATM    3  C   UNL     1     -11.905  11.767  69.810  1.00  0.00    -0.349 C  
HETATM    4  C   UNL     1     -11.632  14.101  69.529  1.00  0.00    -0.295 C  
HETATM    5  C   UNL     1     -11.337  10.626  69.023  1.00  0.00    -0.340 C  
HETATM    6  C   UNL     1     -11.188  10.796  67.433  1.00  0.00    -0.315 C  
HETATM    7  C   UNL     1     -10.242   9.488  67.536  1.00  0.00    -0.283 C  
HETATM    8  C   UNL     1     -10.648  11.096  65.965  1.00  0.00    -0.298 A  
HETATM    9  C   UNL     1     -10.956  12.369  65.509  1.00  0.00    -0.293 A  
HETATM   10  C   UNL     1     -10.841  12.738  64.160  1.00  0.00    -0.437 A  
HETATM   11  N   UNL     1     -11.261  13.230  66.532  1.00  0.00    -0.298 NA 
HETATM   12  C   UNL     1     -12.246  14.280  66.371  1.00  0.00    -0.401 C  
HETATM   13  C   UNL     1     -10.315  11.859  63.222  1.00  0.00    -0.432 A  
HETATM   14  C   UNL     1      -9.852  10.633  63.667  1.00  0.00    -0.333 A  
HETATM   15  C   UNL     1     -10.038  10.246  65.003  1.00  0.00    -0.353 A  
ENDROOT
BRANCH  14  16
HETATM   16  O   UNL     1      -9.251   9.663  62.833  1.00  0.00    -0.266 OA 
BRANCH  16  17
HETATM   17  C   UNL     1      -8.109   8.944  63.185  1.00  0.00    -0.173 C  
HETATM   18  N   UNL     1      -8.373   7.609  63.103  1.00  0.00    -0.372 N  
HETATM   19  O   UNL     1      -7.033   9.423  63.524  1.00  0.00    -0.094 OA 
HETATM   20  H   UNL     1      -9.308   7.316  62.820  1.00  0.00     0.000 HD 
HETATM   21  C   UNL     1      -7.398   6.594  63.396  1.00  0.00    -0.072 C  
ENDBRANCH  16  17
ENDBRANCH  14  16
TORSDOF 2
ENDMDL
MODEL       47
REMARK 921   NORMALIZED FREE ENERGY PREDICTED BY IDOCK:   -5.33 KCAL/MOL
REMARK 922        TOTAL FREE ENERGY PREDICTED BY IDOCK:   -6.15 KCAL/MOL
REMARK 923 INTER-LIGAND FREE ENERGY PREDICTED BY IDOCK:   -5.93 KCAL/MOL
REMARK 924 INTRA-LIGAND FREE ENERGY PREDICTED BY IDOCK:   -0.22 KCAL/MOL
REMARK 927      BINDING AFFINITY PREDICTED BY RF-SCORE:    0.00 PKD
ROOT
HETATM    1  C   UNL     1     -10.971  12.750  68.638  1.00  0.00    -0.260 C  
HETATM    2  N   UNL     1     -11.731  11.529  68.946  1.00  0.00    -0.312 NA 
HETATM    3  C   UNL     1     -11.530  10.629  67.864  1.00  0.00    -0.181 C  
HETATM    4  C   UNL     1     -11.369  10.890  70.210  1.00  0.00    -0.256 C  
HETATM    5  C   UNL     1     -11.036  11.510  66.757  1.00  0.00    -0.347 C  
HETATM    6  C   UNL     1     -11.105  13.102  66.962  1.00  0.00    -0.305 C  
HETATM    7  C   UNL     1     -10.114  13.154  65.684  1.00  0.00    -0.279 C  
HETATM    8  C   UNL     1     -10.775  14.620  67.307  1.00  0.00    -0.290 A  
HETATM    9  C   UNL     1     -11.180  15.003  68.577  1.00  0.00    -0.287 A  
HETATM   10  C   UNL     1     -11.256  16.346  68.975  1.00  0.00    -0.291 A  
HETATM   11  N   UNL     1     -11.373  13.929  69.408  1.00  0.00    -0.263 NA 
HETATM   12  C   UNL     1     -12.402  13.935  70.427  1.00  0.00    -0.363 C  
HETATM   13  C   UNL     1     -10.833  17.365  68.131  1.00  0.00    -0.273 A  
HETATM   14  C   UNL     1     -10.277  17.014  66.914  1.00  0.00    -0.305 A  
HETATM   15  C   UNL     1     -10.272  15.675  66.496  1.00  0.00    -0.291 A  
ENDROOT
BRANCH  14  16
HETATM   16  O   UNL     1      -9.762  17.942  65.980  1.00  0.00    -0.505 OA 
BRANCH  16  17
HETATM   17  C   UNL     1      -8.452  18.416  66.005  1.00  0.00    -0.008 C  
HETATM   18  N   UNL     1      -8.418  19.619  66.645  1.00  0.00    -0.308 N  
HETATM   19  O   UNL     1      -7.474  17.854  65.524  1.00  0.00    -0.524 OA 
HETATM   20  H   UNL     1      -9.294  20.004  66.999  1.00  0.00     0.000 HD 
HETATM   21  C   UNL     1      -7.210  20.372  66.845  1.00  0.00    -0.283 C  
ENDBRANCH  16  17
ENDBRANCH  14  16
TORSDOF 2
ENDMDL
MODEL       48
REMARK 921   NORMALIZED FREE ENERGY PREDICTED BY IDOCK:   -5.33 KCAL/MOL
REMARK 922        TOTAL FREE ENERGY PREDICTED BY IDOCK:   -6.15 KCAL/MOL
REMARK 923 INTER-LIGAND FREE ENERGY PREDICTED BY IDOCK:   -5.92 KCAL/MOL
REMARK 924 INTRA-LIGAND FREE ENERGY PREDICTED BY IDOCK:   -0.23 KCAL/MOL
REMARK 927      BINDING AFFINITY PREDICTED BY RF-SCORE:    0.00 PKD
ROOT
HETATM    1  C   UNL     1     -10.974  14.370  68.856  1.00  0.00    -0.255 C  
HETATM    2  N   UNL     1     -11.619  15.668  69.106  1.00  0.00    -0.361 NA 
HETATM    3  C   UNL     1     -12.314  15.557  70.341  1.00  0.00    -0.413 C  
HETATM    4  C   UNL     1     -10.701  16.805  69.141  1.00  0.00    -0.329 C  
HETATM    5  C   UNL     1     -12.432  14.078  70.550  1.00  0.00    -0.429 C  
HETATM    6  C   UNL     1     -12.031  13.103  69.338  1.00  0.00    -0.347 C  
HETATM    7  C   UNL     1     -12.045  11.945  70.468  1.00  0.00    -0.422 C  
HETATM    8  C   UNL     1     -11.254  12.143  68.334  1.00  0.00    -0.314 A  
HETATM    9  C   UNL     1     -10.706  12.803  67.245  1.00  0.00    -0.237 A  
HETATM   10  C   UNL     1     -10.244  12.128  66.105  1.00  0.00    -0.254 A  
HETATM   11  N   UNL     1     -10.567  14.149  67.467  1.00  0.00    -0.256 NA 
HETATM   12  C   UNL     1     -10.728  15.114  66.399  1.00  0.00    -0.317 C  
HETATM   13  C   UNL     1     -10.227  10.740  66.056  1.00  0.00    -0.310 A  
HETATM   14  C   UNL     1     -10.620  10.043  67.184  1.00  0.00    -0.232 A  
HETATM   15  C   UNL     1     -11.149  10.726  68.291  1.00  0.00    -0.327 A  
ENDROOT
BRANCH  14  16
HETATM   16  O   UNL     1     -10.607   8.634  67.291  1.00  0.00    -0.291 OA 
BRANCH  16  17
HETATM   17  C   UNL     1      -9.454   7.861  67.164  1.00  0.00    -0.159 C  
HETATM   18  N   UNL     1      -9.570   7.052  66.073  1.00  0.00    -0.402 N  
HETATM   19  O   UNL     1      -8.484   7.888  67.914  1.00  0.00    -0.125 OA 
HETATM   20  H   UNL     1     -10.426   7.101  65.522  1.00  0.00     0.000 HD 
HETATM   21  C   UNL     1      -8.543   6.133  65.662  1.00  0.00    -0.145 C  
ENDBRANCH  16  17
ENDBRANCH  14  16
TORSDOF 2
ENDMDL
MODEL       49
REMARK 921   NORMALIZED FREE ENERGY PREDICTED BY IDOCK:   -5.31 KCAL/MOL
REMARK 922        TOTAL FREE ENERGY PREDICTED BY IDOCK:   -6.13 KCAL/MOL
REMARK 923 INTER-LIGAND FREE ENERGY PREDICTED BY IDOCK:   -6.05 KCAL/MOL
REMARK 924 INTRA-LIGAND FREE ENERGY PREDICTED BY IDOCK:   -0.08 KCAL/MOL
REMARK 927      BINDING AFFINITY PREDICTED BY RF-SCORE:    0.00 PKD
ROOT
HETATM    1  C   UNL     1     -11.311  13.052  68.705  1.00  0.00    -0.289 C  
HETATM    2  N   UNL     1     -12.274  14.071  69.150  1.00  0.00    -0.323 NA 
HETATM    3  C   UNL     1     -12.667  13.723  70.471  1.00  0.00    -0.222 C  
HETATM    4  C   UNL     1     -11.767  15.441  69.116  1.00  0.00    -0.345 C  
HETATM    5  C   UNL     1     -12.278  12.281  70.590  1.00  0.00    -0.378 C  
HETATM    6  C   UNL     1     -11.814  11.506  69.262  1.00  0.00    -0.414 C  
HETATM    7  C   UNL     1     -11.265  10.387  70.293  1.00  0.00    -0.395 C  
HETATM    8  C   UNL     1     -10.968  10.861  68.078  1.00  0.00    -0.317 A  
HETATM    9  C   UNL     1     -10.858  11.679  66.964  1.00  0.00    -0.266 A  
HETATM   10  C   UNL     1     -10.418  11.206  65.718  1.00  0.00    -0.305 A  
HETATM   11  N   UNL     1     -11.109  12.995  67.256  1.00  0.00    -0.265 NA 
HETATM   12  C   UNL     1     -11.751  13.874  66.301  1.00  0.00    -0.383 C  
HETATM   13  C   UNL     1      -9.976   9.897  65.567  1.00  0.00    -0.363 A  
HETATM   14  C   UNL     1      -9.925   9.094  66.692  1.00  0.00    -0.273 A  
HETATM   15  C   UNL     1     -10.434   9.553  67.916  1.00  0.00    -0.293 A  
ENDROOT
BRANCH  14  16
HETATM   16  O   UNL     1      -9.453   7.762  66.694  1.00  0.00    -0.181 OA 
BRANCH  16  17
HETATM   17  C   UNL     1     -10.290   6.647  66.666  1.00  0.00    -0.145 C  
HETATM   18  N   UNL     1      -9.749   5.695  65.854  1.00  0.00    -0.350 N  
HETATM   19  O   UNL     1     -11.352   6.530  67.266  1.00  0.00    -0.316 OA 
HETATM   20  H   UNL     1      -8.862   5.899  65.392  1.00  0.00     0.000 HD 
HETATM   21  C   UNL     1     -10.365   4.418  65.616  1.00  0.00    -0.225 C  
ENDBRANCH  16  17
ENDBRANCH  14  16
TORSDOF 2
ENDMDL
MODEL       50
REMARK 921   NORMALIZED FREE ENERGY PREDICTED BY IDOCK:   -5.30 KCAL/MOL
REMARK 922        TOTAL FREE ENERGY PREDICTED BY IDOCK:   -6.12 KCAL/MOL
REMARK 923 INTER-LIGAND FREE ENERGY PREDICTED BY IDOCK:   -5.90 KCAL/MOL
REMARK 924 INTRA-LIGAND FREE ENERGY PREDICTED BY IDOCK:   -0.22 KCAL/MOL
REMARK 927      BINDING AFFINITY PREDICTED BY RF-SCORE:    0.00 PKD
ROOT
HETATM    1  C   UNL     1      -7.896  18.645  67.360  1.00  0.00    -0.232 C  
HETATM    2  N   UNL     1      -7.595  19.682  68.359  1.00  0.00    -0.323 NA 
HETATM    3  C   UNL     1      -6.637  19.132  69.254  1.00  0.00    -0.306 C  
HETATM    4  C   UNL     1      -7.103  20.939  67.799  1.00  0.00    -0.229 C  
HETATM    5  C   UNL     1      -6.745  17.655  69.026  1.00  0.00    -0.250 C  
HETATM    6  C   UNL     1      -7.960  17.109  68.130  1.00  0.00    -0.216 C  
HETATM    7  C   UNL     1      -7.110  15.733  68.090  1.00  0.00    -0.123 C  
HETATM    8  C   UNL     1      -8.875  16.603  66.929  1.00  0.00    -0.235 A  
HETATM    9  C   UNL     1      -9.634  17.607  66.347  1.00  0.00    -0.274 A  
HETATM   10  C   UNL     1     -10.710  17.340  65.486  1.00  0.00    -0.105 A  
HETATM   11  N   UNL     1      -9.138  18.857  66.614  1.00  0.00    -0.320 NA 
HETATM   12  C   UNL     1     -10.013  20.000  66.783  1.00  0.00    -0.454 C  
HETATM   13  C   UNL     1     -11.008  16.040  65.098  1.00  0.00    -0.360 A  
HETATM   14  C   UNL     1     -10.177  15.024  65.535  1.00  0.00    -0.378 A  
HETATM   15  C   UNL     1      -9.149  15.292  66.452  1.00  0.00    -0.347 A  
ENDROOT
BRANCH  14  16
HETATM   16  O   UNL     1     -10.332  13.665  65.180  1.00  0.00    -0.338 OA 
BRANCH  16  17
HETATM   17  C   UNL     1     -11.213  12.795  65.822  1.00  0.00    -0.307 C  
HETATM   18  N   UNL     1     -10.506  11.936  66.610  1.00  0.00    -0.211 N  
HETATM   19  O   UNL     1     -12.432  12.787  65.700  1.00  0.00    -0.586 OA 
HETATM   20  H   UNL     1      -9.489  12.022  66.631  1.00  0.00     0.000 HD 
HETATM   21  C   UNL     1     -11.122  10.916  67.414  1.00  0.00    -0.307 C  
ENDBRANCH  16  17
ENDBRANCH  14  16
TORSDOF 2
ENDMDL
MODEL       51
REMARK 921   NORMALIZED FREE ENERGY PREDICTED BY IDOCK:   -5.23 KCAL/MOL
REMARK 922        TOTAL FREE ENERGY PREDICTED BY IDOCK:   -6.05 KCAL/MOL
REMARK 923 INTER-LIGAND FREE ENERGY PREDICTED BY IDOCK:   -5.80 KCAL/MOL
REMARK 924 INTRA-LIGAND FREE ENERGY PREDICTED BY IDOCK:   -0.25 KCAL/MOL
REMARK 927      BINDING AFFINITY PREDICTED BY RF-SCORE:    0.00 PKD
ROOT
HETATM    1  C   UNL     1     -10.721  15.094  66.133  1.00  0.00    -0.325 C  
HETATM    2  N   UNL     1     -10.538  16.187  65.166  1.00  0.00    -0.609 NA 
HETATM    3  C   UNL     1     -11.585  16.076  64.210  1.00  0.00    -0.138 C  
HETATM    4  C   UNL     1     -10.529  17.524  65.755  1.00  0.00    -0.207 C  
HETATM    5  C   UNL     1     -12.076  14.670  64.382  1.00  0.00    -0.481 C  
HETATM    6  C   UNL     1     -11.220  13.673  65.306  1.00  0.00    -0.307 C  
HETATM    7  C   UNL     1     -12.541  12.740  65.255  1.00  0.00    -0.460 C  
HETATM    8  C   UNL     1     -10.642  12.824  66.522  1.00  0.00    -0.270 A  
HETATM    9  C   UNL     1      -9.583  13.437  67.174  1.00  0.00    -0.241 A  
HETATM   10  C   UNL     1      -8.745  12.752  68.067  1.00  0.00    -0.194 A  
HETATM   11  N   UNL     1      -9.536  14.787  66.937  1.00  0.00    -0.232 NA 
HETATM   12  C   UNL     1      -8.277  15.498  66.851  1.00  0.00    -0.252 C  
HETATM   13  C   UNL     1      -9.000  11.431  68.414  1.00  0.00    -0.172 A  
HETATM   14  C   UNL     1     -10.137  10.832  67.904  1.00  0.00    -0.172 A  
HETATM   15  C   UNL     1     -10.927  11.500  66.956  1.00  0.00    -0.347 A  
ENDROOT
BRANCH  14  16
HETATM   16  O   UNL     1     -10.544   9.513  68.210  1.00  0.00    -0.214 OA 
BRANCH  16  17
HETATM   17  C   UNL     1     -10.861   9.083  69.497  1.00  0.00    -0.166 C  
HETATM   18  N   UNL     1     -11.917   9.805  69.969  1.00  0.00    -0.462 N  
HETATM   19  O   UNL     1     -10.284   8.200  70.123  1.00  0.00    -0.193 OA 
HETATM   20  H   UNL     1     -12.318  10.526  69.369  1.00  0.00     0.000 HD 
HETATM   21  C   UNL     1     -12.494   9.600  71.270  1.00  0.00    -0.355 C  
ENDBRANCH  16  17
ENDBRANCH  14  16
TORSDOF 2
ENDMDL
MODEL       52
REMARK 921   NORMALIZED FREE ENERGY PREDICTED BY IDOCK:   -5.22 KCAL/MOL
REMARK 922        TOTAL FREE ENERGY PREDICTED BY IDOCK:   -6.03 KCAL/MOL
REMARK 923 INTER-LIGAND FREE ENERGY PREDICTED BY IDOCK:   -5.93 KCAL/MOL
REMARK 924 INTRA-LIGAND FREE ENERGY PREDICTED BY IDOCK:   -0.10 KCAL/MOL
REMARK 927      BINDING AFFINITY PREDICTED BY RF-SCORE:    0.00 PKD
ROOT
HETATM    1  C   UNL     1      -9.661   8.560  68.413  1.00  0.00    -0.147 C  
HETATM    2  N   UNL     1      -9.540   7.096  68.332  1.00  0.00    -0.137 NA 
HETATM    3  C   UNL     1      -9.217   6.779  66.985  1.00  0.00    -0.137 C  
HETATM    4  C   UNL     1      -8.552   6.518  69.241  1.00  0.00    -0.127 C  
HETATM    5  C   UNL     1      -9.602   8.013  66.227  1.00  0.00    -0.223 C  
HETATM    6  C   UNL     1     -10.434   9.150  66.996  1.00  0.00    -0.311 C  
HETATM    7  C   UNL     1     -10.035  10.080  65.734  1.00  0.00    -0.346 C  
HETATM    8  C   UNL     1     -10.869  10.434  67.831  1.00  0.00    -0.331 A  
HETATM    9  C   UNL     1     -11.030  10.188  69.186  1.00  0.00    -0.230 A  
HETATM   10  C   UNL     1     -11.683  11.085  70.046  1.00  0.00    -0.437 A  
HETATM   11  N   UNL     1     -10.382   9.049  69.590  1.00  0.00    -0.206 NA 
HETATM   12  C   UNL     1     -10.917   8.203  70.636  1.00  0.00    -0.244 C  
HETATM   13  C   UNL     1     -12.121  12.321  69.588  1.00  0.00    -0.277 A  
HETATM   14  C   UNL     1     -11.841  12.668  68.279  1.00  0.00    -0.306 A  
HETATM   15  C   UNL     1     -11.253  11.737  67.409  1.00  0.00    -0.357 A  
ENDROOT
BRANCH  14  16
HETATM   16  O   UNL     1     -12.184  13.909  67.696  1.00  0.00    -0.345 OA 
BRANCH  16  17
HETATM   17  C   UNL     1     -12.256  14.122  66.320  1.00  0.00    -0.449 C  
HETATM   18  N   UNL     1     -11.265  14.979  65.943  1.00  0.00    -0.336 N  
HETATM   19  O   UNL     1     -13.079  13.629  65.558  1.00  0.00    -0.639 OA 
HETATM   20  H   UNL     1     -10.638  15.341  66.662  1.00  0.00     0.000 HD 
HETATM   21  C   UNL     1     -11.061  15.398  64.583  1.00  0.00    -0.347 C  
ENDBRANCH  16  17
ENDBRANCH  14  16
TORSDOF 2
ENDMDL
MODEL       53
REMARK 921   NORMALIZED FREE ENERGY PREDICTED BY IDOCK:   -5.19 KCAL/MOL
REMARK 922        TOTAL FREE ENERGY PREDICTED BY IDOCK:   -5.99 KCAL/MOL
REMARK 923 INTER-LIGAND FREE ENERGY PREDICTED BY IDOCK:   -5.77 KCAL/MOL
REMARK 924 INTRA-LIGAND FREE ENERGY PREDICTED BY IDOCK:   -0.23 KCAL/MOL
REMARK 927      BINDING AFFINITY PREDICTED BY RF-SCORE:    0.00 PKD
ROOT
HETATM    1  C   UNL     1     -11.455  11.911  65.781  1.00  0.00    -0.265 C  
HETATM    2  N   UNL     1     -11.534  13.368  65.590  1.00  0.00    -0.311 NA 
HETATM    3  C   UNL     1     -11.012  13.648  64.298  1.00  0.00    -0.300 C  
HETATM    4  C   UNL     1     -12.878  13.926  65.726  1.00  0.00    -0.391 C  
HETATM    5  C   UNL     1     -10.232  12.415  63.955  1.00  0.00    -0.409 C  
HETATM    6  C   UNL     1      -9.986  11.325  65.108  1.00  0.00    -0.312 C  
HETATM    7  C   UNL     1      -9.552  10.357  63.886  1.00  0.00    -0.370 C  
HETATM    8  C   UNL     1     -10.098  10.074  66.087  1.00  0.00    -0.317 A  
HETATM    9  C   UNL     1     -10.767  10.351  67.269  1.00  0.00    -0.273 A  
HETATM   10  C   UNL     1     -10.725   9.497  68.381  1.00  0.00    -0.230 A  
HETATM   11  N   UNL     1     -11.551  11.472  67.174  1.00  0.00    -0.557 NA 
HETATM   12  C   UNL     1     -11.748  12.358  68.303  1.00  0.00    -0.345 C  
HETATM   13  C   UNL     1     -10.077   8.269  68.314  1.00  0.00    -0.231 A  
HETATM   14  C   UNL     1      -9.530   7.888  67.102  1.00  0.00    -0.159 A  
HETATM   15  C   UNL     1      -9.515   8.779  66.018  1.00  0.00    -0.302 A  
ENDROOT
BRANCH  14  16
HETATM   16  O   UNL     1      -8.886   6.650  66.877  1.00  0.00    -0.113 OA 
BRANCH  16  17
HETATM   17  C   UNL     1      -9.568   5.453  66.666  1.00  0.00    -0.151 C  
HETATM   18  N   UNL     1      -9.631   5.198  65.328  1.00  0.00    -0.356 N  
HETATM   19  O   UNL     1     -10.049   4.735  67.536  1.00  0.00    -0.162 OA 
HETATM   20  H   UNL     1      -9.206   5.868  64.687  1.00  0.00     0.000 HD 
HETATM   21  C   UNL     1     -10.265   4.031  64.777  1.00  0.00    -0.212 C  
ENDBRANCH  16  17
ENDBRANCH  14  16
TORSDOF 2
ENDMDL
MODEL       54
REMARK 921   NORMALIZED FREE ENERGY PREDICTED BY IDOCK:   -5.17 KCAL/MOL
REMARK 922        TOTAL FREE ENERGY PREDICTED BY IDOCK:   -5.98 KCAL/MOL
REMARK 923 INTER-LIGAND FREE ENERGY PREDICTED BY IDOCK:   -5.71 KCAL/MOL
REMARK 924 INTRA-LIGAND FREE ENERGY PREDICTED BY IDOCK:   -0.26 KCAL/MOL
REMARK 927      BINDING AFFINITY PREDICTED BY RF-SCORE:    0.00 PKD
ROOT
HETATM    1  C   UNL     1      -9.801  11.017  65.291  1.00  0.00    -0.259 C  
HETATM    2  N   UNL     1     -10.032  10.984  63.838  1.00  0.00    -0.309 NA 
HETATM    3  C   UNL     1     -10.918  12.053  63.533  1.00  0.00    -0.444 C  
HETATM    4  C   UNL     1      -8.819  11.085  63.028  1.00  0.00    -0.189 C  
HETATM    5  C   UNL     1     -11.533  12.394  64.857  1.00  0.00    -0.378 C  
HETATM    6  C   UNL     1     -11.269  11.406  66.096  1.00  0.00    -0.203 C  
HETATM    7  C   UNL     1     -11.835  12.628  66.992  1.00  0.00    -0.415 C  
HETATM    8  C   UNL     1     -10.683  10.697  67.395  1.00  0.00    -0.326 A  
HETATM    9  C   UNL     1      -9.784   9.679  67.116  1.00  0.00    -0.174 A  
HETATM   10  C   UNL     1      -9.379   8.741  68.078  1.00  0.00    -0.153 A  
HETATM   11  N   UNL     1      -9.263   9.776  65.851  1.00  0.00    -0.172 NA 
HETATM   12  C   UNL     1      -8.932   8.599  65.075  1.00  0.00    -0.007 C  
HETATM   13  C   UNL     1      -9.796   8.849  69.399  1.00  0.00    -0.183 A  
HETATM   14  C   UNL     1     -10.569   9.941  69.750  1.00  0.00    -0.264 A  
HETATM   15  C   UNL     1     -11.028  10.832  68.768  1.00  0.00    -0.295 A  
ENDROOT
BRANCH  14  16
HETATM   16  O   UNL     1     -11.022  10.202  71.064  1.00  0.00    -0.291 OA 
BRANCH  16  17
HETATM   17  C   UNL     1     -12.367  10.196  71.431  1.00  0.00    -0.416 C  
HETATM   18  N   UNL     1     -12.816   8.910  71.484  1.00  0.00    -0.332 N  
HETATM   19  O   UNL     1     -13.053  11.185  71.666  1.00  0.00    -0.449 OA 
HETATM   20  H   UNL     1     -12.163   8.159  71.259  1.00  0.00     0.000 HD 
HETATM   21  C   UNL     1     -14.164   8.560  71.841  1.00  0.00    -0.455 C  
ENDBRANCH  16  17
ENDBRANCH  14  16
TORSDOF 2
ENDMDL
MODEL       55
REMARK 921   NORMALIZED FREE ENERGY PREDICTED BY IDOCK:   -5.15 KCAL/MOL
REMARK 922        TOTAL FREE ENERGY PREDICTED BY IDOCK:   -5.96 KCAL/MOL
REMARK 923 INTER-LIGAND FREE ENERGY PREDICTED BY IDOCK:   -5.70 KCAL/MOL
REMARK 924 INTRA-LIGAND FREE ENERGY PREDICTED BY IDOCK:   -0.26 KCAL/MOL
REMARK 927      BINDING AFFINITY PREDICTED BY RF-SCORE:    0.00 PKD
ROOT
HETATM    1  C   UNL     1      -8.132  17.948  67.219  1.00  0.00    -0.212 C  
HETATM    2  N   UNL     1      -7.870  19.379  67.435  1.00  0.00    -0.251 NA 
HETATM    3  C   UNL     1      -6.787  19.471  68.352  1.00  0.00    -0.290 C  
HETATM    4  C   UNL     1      -7.570  20.132  66.218  1.00  0.00    -0.268 C  
HETATM    5  C   UNL     1      -6.746  18.115  68.989  1.00  0.00    -0.259 C  
HETATM    6  C   UNL     1      -7.961  17.104  68.706  1.00  0.00    -0.255 C  
HETATM    7  C   UNL     1      -6.967  15.983  69.319  1.00  0.00    -0.205 C  
HETATM    8  C   UNL     1      -8.906  15.969  68.111  1.00  0.00    -0.178 A  
HETATM    9  C   UNL     1      -9.818  16.439  67.178  1.00  0.00    -0.249 A  
HETATM   10  C   UNL     1     -10.923  15.685  66.753  1.00  0.00    -0.230 A  
HETATM   11  N   UNL     1      -9.446  17.648  66.648  1.00  0.00    -0.271 NA 
HETATM   12  C   UNL     1     -10.427  18.645  66.273  1.00  0.00    -0.424 C  
HETATM   13  C   UNL     1     -11.103  14.377  67.185  1.00  0.00    -0.318 A  
HETATM   14  C   UNL     1     -10.130  13.820  67.996  1.00  0.00    -0.245 A  
HETATM   15  C   UNL     1      -9.069  14.604  68.473  1.00  0.00    -0.188 A  
ENDROOT
BRANCH  14  16
HETATM   16  O   UNL     1     -10.160  12.488  68.469  1.00  0.00    -0.221 OA 
BRANCH  16  17
HETATM   17  C   UNL     1     -11.313  11.863  68.943  1.00  0.00    -0.278 C  
HETATM   18  N   UNL     1     -11.572  12.294  70.210  1.00  0.00    -0.533 N  
HETATM   19  O   UNL     1     -11.992  11.047  68.331  1.00  0.00    -0.565 OA 
HETATM   20  H   UNL     1     -10.936  12.970  70.633  1.00  0.00     0.000 HD 
HETATM   21  C   UNL     1     -12.700  11.843  70.980  1.00  0.00    -0.258 C  
ENDBRANCH  16  17
ENDBRANCH  14  16
TORSDOF 2
ENDMDL
MODEL       56
REMARK 921   NORMALIZED FREE ENERGY PREDICTED BY IDOCK:   -5.12 KCAL/MOL
REMARK 922        TOTAL FREE ENERGY PREDICTED BY IDOCK:   -5.92 KCAL/MOL
REMARK 923 INTER-LIGAND FREE ENERGY PREDICTED BY IDOCK:   -6.00 KCAL/MOL
REMARK 924 INTRA-LIGAND FREE ENERGY PREDICTED BY IDOCK:    0.08 KCAL/MOL
REMARK 927      BINDING AFFINITY PREDICTED BY RF-SCORE:    0.00 PKD
ROOT
HETATM    1  C   UNL     1      -9.558  12.067  67.216  1.00  0.00    -0.183 C  
HETATM    2  N   UNL     1      -9.591  10.886  68.093  1.00  0.00    -0.159 NA 
HETATM    3  C   UNL     1     -10.931  10.412  68.102  1.00  0.00    -0.281 C  
HETATM    4  C   UNL     1      -8.677   9.814  67.702  1.00  0.00    -0.125 C  
HETATM    5  C   UNL     1     -11.725  11.581  67.602  1.00  0.00    -0.283 C  
HETATM    6  C   UNL     1     -10.982  12.998  67.454  1.00  0.00    -0.284 C  
HETATM    7  C   UNL     1     -12.280  13.413  66.582  1.00  0.00    -0.391 C  
HETATM    8  C   UNL     1     -10.185  14.263  66.908  1.00  0.00    -0.266 A  
HETATM    9  C   UNL     1      -8.820  14.206  67.148  1.00  0.00    -0.229 A  
HETATM   10  C   UNL     1      -7.982  15.324  67.021  1.00  0.00    -0.243 A  
HETATM   11  N   UNL     1      -8.388  12.929  67.398  1.00  0.00    -0.181 NA 
HETATM   12  C   UNL     1      -7.307  12.663  68.324  1.00  0.00    -0.116 C  
HETATM   13  C   UNL     1      -8.475  16.535  66.550  1.00  0.00    -0.328 A  
HETATM   14  C   UNL     1      -9.799  16.589  66.153  1.00  0.00    -0.332 A  
HETATM   15  C   UNL     1     -10.645  15.488  66.352  1.00  0.00    -0.312 A  
ENDROOT
BRANCH  14  16
HETATM   16  O   UNL     1     -10.418  17.739  65.612  1.00  0.00    -0.613 OA 
BRANCH  16  17
HETATM   17  C   UNL     1     -10.328  19.006  66.187  1.00  0.00    -0.468 C  
HETATM   18  N   UNL     1     -10.214  18.883  67.540  1.00  0.00    -0.367 N  
HETATM   19  O   UNL     1     -10.355  20.073  65.583  1.00  0.00    -0.449 OA 
HETATM   20  H   UNL     1     -10.213  17.945  67.942  1.00  0.00     0.000 HD 
HETATM   21  C   UNL     1     -10.095  20.008  68.426  1.00  0.00    -0.386 C  
ENDBRANCH  16  17
ENDBRANCH  14  16
TORSDOF 2
ENDMDL
MODEL       57
REMARK 921   NORMALIZED FREE ENERGY PREDICTED BY IDOCK:   -5.12 KCAL/MOL
REMARK 922        TOTAL FREE ENERGY PREDICTED BY IDOCK:   -5.91 KCAL/MOL
REMARK 923 INTER-LIGAND FREE ENERGY PREDICTED BY IDOCK:   -5.65 KCAL/MOL
REMARK 924 INTRA-LIGAND FREE ENERGY PREDICTED BY IDOCK:   -0.26 KCAL/MOL
REMARK 927      BINDING AFFINITY PREDICTED BY RF-SCORE:    0.00 PKD
ROOT
HETATM    1  C   UNL     1     -12.210  11.342  69.935  1.00  0.00    -0.288 C  
HETATM    2  N   UNL     1     -12.375  10.822  71.301  1.00  0.00    -0.370 NA 
HETATM    3  C   UNL     1     -13.069  11.816  72.044  1.00  0.00    -0.331 C  
HETATM    4  C   UNL     1     -13.080   9.544  71.383  1.00  0.00    -0.370 C  
HETATM    5  C   UNL     1     -12.890  13.059  71.227  1.00  0.00    -0.370 C  
HETATM    6  C   UNL     1     -11.853  13.021  70.000  1.00  0.00    -0.355 C  
HETATM    7  C   UNL     1     -12.574  14.399  69.551  1.00  0.00    -0.034 C  
HETATM    8  C   UNL     1     -11.178  12.881  68.566  1.00  0.00    -0.310 A  
HETATM    9  C   UNL     1     -10.649  11.623  68.321  1.00  0.00    -0.205 A  
HETATM   10  C   UNL     1      -9.764  11.367  67.262  1.00  0.00    -0.201 A  
HETATM   11  N   UNL     1     -11.179  10.665  69.146  1.00  0.00    -0.246 NA 
HETATM   12  C   UNL     1     -10.388   9.546  69.614  1.00  0.00    -0.221 C  
HETATM   13  C   UNL     1      -9.449  12.358  66.341  1.00  0.00    -0.240 A  
HETATM   14  C   UNL     1     -10.079  13.584  66.461  1.00  0.00    -0.282 A  
HETATM   15  C   UNL     1     -10.904  13.852  67.564  1.00  0.00    -0.274 A  
ENDROOT
BRANCH  14  16
HETATM   16  O   UNL     1      -9.889  14.664  65.569  1.00  0.00    -0.340 OA 
BRANCH  16  17
HETATM   17  C   UNL     1      -9.429  15.919  65.964  1.00  0.00    -0.354 C  
HETATM   18  N   UNL     1      -8.107  15.836  66.286  1.00  0.00    -0.277 N  
HETATM   19  O   UNL     1     -10.099  16.944  66.025  1.00  0.00    -0.344 OA 
HETATM   20  H   UNL     1      -7.646  14.929  66.210  1.00  0.00     0.000 HD 
HETATM   21  C   UNL     1      -7.331  16.963  66.726  1.00  0.00    -0.237 C  
ENDBRANCH  16  17
ENDBRANCH  14  16
TORSDOF 2
ENDMDL
MODEL       58
REMARK 921   NORMALIZED FREE ENERGY PREDICTED BY IDOCK:   -5.09 KCAL/MOL
REMARK 922        TOTAL FREE ENERGY PREDICTED BY IDOCK:   -5.88 KCAL/MOL
REMARK 923 INTER-LIGAND FREE ENERGY PREDICTED BY IDOCK:   -5.81 KCAL/MOL
REMARK 924 INTRA-LIGAND FREE ENERGY PREDICTED BY IDOCK:   -0.08 KCAL/MOL
REMARK 927      BINDING AFFINITY PREDICTED BY RF-SCORE:    0.00 PKD
ROOT
HETATM    1  C   UNL     1      -9.338  11.973  67.338  1.00  0.00    -0.178 C  
HETATM    2  N   UNL     1      -8.538  10.745  67.464  1.00  0.00    -0.125 NA 
HETATM    3  C   UNL     1      -7.452  11.042  68.333  1.00  0.00    -0.100 C  
HETATM    4  C   UNL     1      -9.279   9.585  67.957  1.00  0.00    -0.129 C  
HETATM    5  C   UNL     1      -7.393  12.539  68.327  1.00  0.00    -0.115 C  
HETATM    6  C   UNL     1      -8.291  13.333  67.258  1.00  0.00    -0.182 C  
HETATM    7  C   UNL     1      -7.964  14.626  68.174  1.00  0.00    -0.136 C  
HETATM    8  C   UNL     1      -9.460  14.124  66.521  1.00  0.00    -0.303 A  
HETATM    9  C   UNL     1     -10.309  13.307  65.789  1.00  0.00    -0.288 A  
HETATM   10  C   UNL     1     -11.211  13.811  64.840  1.00  0.00    -0.352 A  
HETATM   11  N   UNL     1     -10.242  11.996  66.187  1.00  0.00    -0.220 NA 
HETATM   12  C   UNL     1     -10.400  10.909  65.243  1.00  0.00    -0.268 C  
HETATM   13  C   UNL     1     -11.364  15.179  64.657  1.00  0.00    -0.362 A  
HETATM   14  C   UNL     1     -10.647  16.030  65.478  1.00  0.00    -0.398 A  
HETATM   15  C   UNL     1      -9.695  15.518  66.372  1.00  0.00    -0.306 A  
ENDROOT
BRANCH  14  16
HETATM   16  O   UNL     1     -10.740  17.440  65.434  1.00  0.00    -0.595 OA 
BRANCH  16  17
HETATM   17  C   UNL     1      -9.956  18.290  66.213  1.00  0.00    -0.357 C  
HETATM   18  N   UNL     1     -10.712  18.801  67.226  1.00  0.00    -0.446 N  
HETATM   19  O   UNL     1      -8.774  18.552  66.024  1.00  0.00    -0.497 OA 
HETATM   20  H   UNL     1     -11.692  18.524  67.287  1.00  0.00     0.000 HD 
HETATM   21  C   UNL     1     -10.196  19.709  68.213  1.00  0.00    -0.452 C  
ENDBRANCH  16  17
ENDBRANCH  14  16
TORSDOF 2
ENDMDL
MODEL       59
REMARK 921   NORMALIZED FREE ENERGY PREDICTED BY IDOCK:   -5.07 KCAL/MOL
REMARK 922        TOTAL FREE ENERGY PREDICTED BY IDOCK:   -5.86 KCAL/MOL
REMARK 923 INTER-LIGAND FREE ENERGY PREDICTED BY IDOCK:   -5.63 KCAL/MOL
REMARK 924 INTRA-LIGAND FREE ENERGY PREDICTED BY IDOCK:   -0.23 KCAL/MOL
REMARK 927      BINDING AFFINITY PREDICTED BY RF-SCORE:    0.00 PKD
ROOT
HETATM    1  C   UNL     1     -12.583  13.887  70.359  1.00  0.00    -0.282 C  
HETATM    2  N   UNL     1     -12.674  14.582  71.652  1.00  0.00    -0.326 NA 
HETATM    3  C   UNL     1     -12.169  15.896  71.456  1.00  0.00    -0.465 C  
HETATM    4  C   UNL     1     -14.020  14.635  72.219  1.00  0.00    -0.489 C  
HETATM    5  C   UNL     1     -11.384  15.788  70.184  1.00  0.00    -0.361 C  
HETATM    6  C   UNL     1     -11.118  14.326  69.575  1.00  0.00    -0.244 C  
HETATM    7  C   UNL     1     -10.691  15.130  68.237  1.00  0.00    -0.251 C  
HETATM    8  C   UNL     1     -11.211  12.966  68.753  1.00  0.00    -0.323 A  
HETATM    9  C   UNL     1     -11.868  11.950  69.431  1.00  0.00    -0.327 A  
HETATM   10  C   UNL     1     -11.807  10.608  69.027  1.00  0.00    -0.256 A  
HETATM   11  N   UNL     1     -12.661  12.428  70.443  1.00  0.00    -0.097 NA 
HETATM   12  C   UNL     1     -12.850  11.684  71.672  1.00  0.00    -0.349 C  
HETATM   13  C   UNL     1     -11.152  10.243  67.858  1.00  0.00    -0.341 A  
HETATM   14  C   UNL     1     -10.616  11.248  67.072  1.00  0.00    -0.246 A  
HETATM   15  C   UNL     1     -10.619  12.577  67.520  1.00  0.00    -0.238 A  
ENDROOT
BRANCH  14  16
HETATM   16  O   UNL     1      -9.966  11.026  65.836  1.00  0.00    -0.221 OA 
BRANCH  16  17
HETATM   17  C   UNL     1      -8.834  10.225  65.692  1.00  0.00    -0.168 C  
HETATM   18  N   UNL     1      -9.142   9.141  64.925  1.00  0.00    -0.402 N  
HETATM   19  O   UNL     1      -7.731  10.445  66.180  1.00  0.00    -0.118 OA 
HETATM   20  H   UNL     1     -10.096   9.049  64.576  1.00  0.00     0.000 HD 
HETATM   21  C   UNL     1      -8.187   8.122  64.582  1.00  0.00    -0.125 C  
ENDBRANCH  16  17
ENDBRANCH  14  16
TORSDOF 2
ENDMDL
MODEL       60
REMARK 921   NORMALIZED FREE ENERGY PREDICTED BY IDOCK:   -5.06 KCAL/MOL
REMARK 922        TOTAL FREE ENERGY PREDICTED BY IDOCK:   -5.85 KCAL/MOL
REMARK 923 INTER-LIGAND FREE ENERGY PREDICTED BY IDOCK:   -5.60 KCAL/MOL
REMARK 924 INTRA-LIGAND FREE ENERGY PREDICTED BY IDOCK:   -0.26 KCAL/MOL
REMARK 927      BINDING AFFINITY PREDICTED BY RF-SCORE:    0.00 PKD
ROOT
HETATM    1  C   UNL     1      -9.917  14.766  66.194  1.00  0.00    -0.304 C  
HETATM    2  N   UNL     1     -10.569  15.931  66.812  1.00  0.00    -0.317 NA 
HETATM    3  C   UNL     1     -10.039  16.056  68.125  1.00  0.00    -0.234 C  
HETATM    4  C   UNL     1     -10.401  17.182  66.076  1.00  0.00    -0.309 C  
HETATM    5  C   UNL     1      -9.439  14.710  68.396  1.00  0.00    -0.209 C  
HETATM    6  C   UNL     1      -9.743  13.519  67.363  1.00  0.00    -0.229 C  
HETATM    7  C   UNL     1      -8.523  12.764  68.111  1.00  0.00    -0.177 C  
HETATM    8  C   UNL     1      -9.681  12.474  66.163  1.00  0.00    -0.259 A  
HETATM    9  C   UNL     1     -10.384  12.877  65.038  1.00  0.00    -0.315 A  
HETATM   10  C   UNL     1     -10.705  11.999  63.991  1.00  0.00    -0.426 A  
HETATM   11  N   UNL     1     -10.611  14.229  65.022  1.00  0.00    -0.401 NA 
HETATM   12  C   UNL     1     -11.822  14.787  64.456  1.00  0.00    -0.419 C  
HETATM   13  C   UNL     1     -10.244  10.688  63.993  1.00  0.00    -0.334 A  
HETATM   14  C   UNL     1      -9.410  10.293  65.022  1.00  0.00    -0.237 A  
HETATM   15  C   UNL     1      -9.154  11.155  66.100  1.00  0.00    -0.214 A  
ENDROOT
BRANCH  14  16
HETATM   16  O   UNL     1      -8.831   9.008  65.125  1.00  0.00    -0.188 OA 
BRANCH  16  17
HETATM   17  C   UNL     1      -9.034   8.153  66.207  1.00  0.00    -0.177 C  
HETATM   18  N   UNL     1     -10.348   7.795  66.261  1.00  0.00    -0.377 N  
HETATM   19  O   UNL     1      -8.176   7.781  67.001  1.00  0.00    -0.114 OA 
HETATM   20  H   UNL     1     -10.982   8.171  65.556  1.00  0.00     0.000 HD 
HETATM   21  C   UNL     1     -10.884   6.913  67.261  1.00  0.00    -0.356 C  
ENDBRANCH  16  17
ENDBRANCH  14  16
TORSDOF 2
ENDMDL
MODEL       61
REMARK 921   NORMALIZED FREE ENERGY PREDICTED BY IDOCK:   -5.05 KCAL/MOL
REMARK 922        TOTAL FREE ENERGY PREDICTED BY IDOCK:   -5.84 KCAL/MOL
REMARK 923 INTER-LIGAND FREE ENERGY PREDICTED BY IDOCK:   -5.65 KCAL/MOL
REMARK 924 INTRA-LIGAND FREE ENERGY PREDICTED BY IDOCK:   -0.19 KCAL/MOL
REMARK 927      BINDING AFFINITY PREDICTED BY RF-SCORE:    0.00 PKD
ROOT
HETATM    1  C   UNL     1     -11.287  13.892  69.705  1.00  0.00    -0.156 C  
HETATM    2  N   UNL     1     -12.094  14.692  70.639  1.00  0.00    -0.295 NA 
HETATM    3  C   UNL     1     -12.665  13.787  71.576  1.00  0.00    -0.346 C  
HETATM    4  C   UNL     1     -11.355  15.743  71.334  1.00  0.00    -0.369 C  
HETATM    5  C   UNL     1     -12.546  12.455  70.901  1.00  0.00    -0.337 C  
HETATM    6  C   UNL     1     -12.102  12.420  69.358  1.00  0.00    -0.237 C  
HETATM    7  C   UNL     1     -11.855  10.843  69.625  1.00  0.00    -0.416 C  
HETATM    8  C   UNL     1     -11.274  12.341  68.001  1.00  0.00    -0.321 A  
HETATM    9  C   UNL     1     -10.919  13.582  67.494  1.00  0.00    -0.268 A  
HETATM   10  C   UNL     1     -10.453  13.758  66.182  1.00  0.00    -0.297 A  
HETATM   11  N   UNL     1     -10.962  14.567  68.447  1.00  0.00    -0.237 NA 
HETATM   12  C   UNL     1     -11.349  15.923  68.118  1.00  0.00    -0.311 C  
HETATM   13  C   UNL     1     -10.235  12.667  65.349  1.00  0.00    -0.301 A  
HETATM   14  C   UNL     1     -10.430  11.401  65.871  1.00  0.00    -0.258 A  
HETATM   15  C   UNL     1     -10.964  11.238  67.158  1.00  0.00    -0.348 A  
ENDROOT
BRANCH  14  16
HETATM   16  O   UNL     1     -10.200  10.205  65.155  1.00  0.00    -0.306 OA 
BRANCH  16  17
HETATM   17  C   UNL     1      -9.332  10.110  64.068  1.00  0.00    -0.287 C  
HETATM   18  N   UNL     1      -8.044  10.108  64.516  1.00  0.00    -0.158 N  
HETATM   19  O   UNL     1      -9.661  10.047  62.888  1.00  0.00    -0.267 OA 
HETATM   20  H   UNL     1      -7.881  10.176  65.520  1.00  0.00     0.000 HD 
HETATM   21  C   UNL     1      -6.906  10.014  63.642  1.00  0.00    -0.130 C  
ENDBRANCH  16  17
ENDBRANCH  14  16
TORSDOF 2
ENDMDL
MODEL       62
REMARK 921   NORMALIZED FREE ENERGY PREDICTED BY IDOCK:   -5.04 KCAL/MOL
REMARK 922        TOTAL FREE ENERGY PREDICTED BY IDOCK:   -5.83 KCAL/MOL
REMARK 923 INTER-LIGAND FREE ENERGY PREDICTED BY IDOCK:   -5.61 KCAL/MOL
REMARK 924 INTRA-LIGAND FREE ENERGY PREDICTED BY IDOCK:   -0.22 KCAL/MOL
REMARK 927      BINDING AFFINITY PREDICTED BY RF-SCORE:    0.00 PKD
ROOT
HETATM    1  C   UNL     1     -11.914  12.723  70.375  1.00  0.00    -0.249 C  
HETATM    2  N   UNL     1     -12.865  13.697  70.931  1.00  0.00    -0.285 NA 
HETATM    3  C   UNL     1     -13.446  13.101  72.084  1.00  0.00    -0.560 C  
HETATM    4  C   UNL     1     -12.280  14.993  71.270  1.00  0.00    -0.320 C  
HETATM    5  C   UNL     1     -13.159  11.641  71.911  1.00  0.00    -0.490 C  
HETATM    6  C   UNL     1     -12.573  11.141  70.502  1.00  0.00    -0.360 C  
HETATM    7  C   UNL     1     -12.227   9.779  71.304  1.00  0.00    -0.465 C  
HETATM    8  C   UNL     1     -11.619  10.703  69.305  1.00  0.00    -0.346 A  
HETATM    9  C   UNL     1     -11.319  11.735  68.428  1.00  0.00    -0.270 A  
HETATM   10  C   UNL     1     -10.750  11.512  67.165  1.00  0.00    -0.294 A  
HETATM   11  N   UNL     1     -11.529  12.970  68.984  1.00  0.00    -0.285 NA 
HETATM   12  C   UNL     1     -11.991  14.090  68.190  1.00  0.00    -0.347 C  
HETATM   13  C   UNL     1     -10.369  10.236  66.768  1.00  0.00    -0.288 A  
HETATM   14  C   UNL     1     -10.510   9.203  67.677  1.00  0.00    -0.261 A  
HETATM   15  C   UNL     1     -11.146   9.423  68.908  1.00  0.00    -0.003 A  
ENDROOT
BRANCH  14  16
HETATM   16  O   UNL     1     -10.120   7.868  67.426  1.00  0.00    -0.183 OA 
BRANCH  16  17
HETATM   17  C   UNL     1      -9.446   7.074  68.353  1.00  0.00    -0.133 C  
HETATM   18  N   UNL     1     -10.151   5.926  68.563  1.00  0.00    -0.154 N  
HETATM   19  O   UNL     1      -8.388   7.354  68.906  1.00  0.00    -0.127 OA 
HETATM   20  H   UNL     1     -11.027   5.796  68.057  1.00  0.00     0.000 HD 
HETATM   21  C   UNL     1      -9.720   4.889  69.461  1.00  0.00    -0.195 C  
ENDBRANCH  16  17
ENDBRANCH  14  16
TORSDOF 2
ENDMDL
MODEL       63
REMARK 921   NORMALIZED FREE ENERGY PREDICTED BY IDOCK:   -5.00 KCAL/MOL
REMARK 922        TOTAL FREE ENERGY PREDICTED BY IDOCK:   -5.79 KCAL/MOL
REMARK 923 INTER-LIGAND FREE ENERGY PREDICTED BY IDOCK:   -5.52 KCAL/MOL
REMARK 924 INTRA-LIGAND FREE ENERGY PREDICTED BY IDOCK:   -0.27 KCAL/MOL
REMARK 927      BINDING AFFINITY PREDICTED BY RF-SCORE:    0.00 PKD
ROOT
HETATM    1  C   UNL     1     -10.603  12.956  66.628  1.00  0.00    -0.261 C  
HETATM    2  N   UNL     1     -11.224  14.149  66.032  1.00  0.00    -0.314 NA 
HETATM    3  C   UNL     1     -11.889  14.840  67.082  1.00  0.00    -0.286 C  
HETATM    4  C   UNL     1     -10.291  15.043  65.348  1.00  0.00    -0.383 C  
HETATM    5  C   UNL     1     -12.021  13.808  68.160  1.00  0.00    -0.394 C  
HETATM    6  C   UNL     1     -11.662  12.283  67.801  1.00  0.00    -0.403 C  
HETATM    7  C   UNL     1     -11.663  12.068  69.405  1.00  0.00    -0.402 C  
HETATM    8  C   UNL     1     -10.923  10.889  67.594  1.00  0.00    -0.350 A  
HETATM    9  C   UNL     1     -10.395  10.724  66.322  1.00  0.00    -0.244 A  
HETATM   10  C   UNL     1      -9.970   9.478  65.835  1.00  0.00    -0.342 A  
HETATM   11  N   UNL     1     -10.233  11.917  65.666  1.00  0.00    -0.236 NA 
HETATM   12  C   UNL     1     -10.409  12.023  64.232  1.00  0.00    -0.322 C  
HETATM   13  C   UNL     1      -9.972   8.354  66.652  1.00  0.00    -0.354 A  
HETATM   14  C   UNL     1     -10.345   8.511  67.974  1.00  0.00    -0.217 A  
HETATM   15  C   UNL     1     -10.837   9.743  68.431  1.00  0.00    -0.244 A  
ENDROOT
BRANCH  14  16
HETATM   16  O   UNL     1     -10.348   7.467  68.927  1.00  0.00    -0.204 OA 
BRANCH  16  17
HETATM   17  C   UNL     1      -9.655   7.523  70.135  1.00  0.00    -0.168 C  
HETATM   18  N   UNL     1      -8.319   7.397  69.897  1.00  0.00    -0.132 N  
HETATM   19  O   UNL     1     -10.156   7.657  71.246  1.00  0.00    -0.186 OA 
HETATM   20  H   UNL     1      -8.007   7.279  68.933  1.00  0.00     0.000 HD 
HETATM   21  C   UNL     1      -7.327   7.421  70.938  1.00  0.00    -0.073 C  
ENDBRANCH  16  17
ENDBRANCH  14  16
TORSDOF 2
ENDMDL
MODEL       64
REMARK 921   NORMALIZED FREE ENERGY PREDICTED BY IDOCK:   -4.99 KCAL/MOL
REMARK 922        TOTAL FREE ENERGY PREDICTED BY IDOCK:   -5.77 KCAL/MOL
REMARK 923 INTER-LIGAND FREE ENERGY PREDICTED BY IDOCK:   -5.69 KCAL/MOL
REMARK 924 INTRA-LIGAND FREE ENERGY PREDICTED BY IDOCK:   -0.08 KCAL/MOL
REMARK 927      BINDING AFFINITY PREDICTED BY RF-SCORE:    0.00 PKD
ROOT
HETATM    1  C   UNL     1     -10.827  10.555  67.642  1.00  0.00    -0.300 C  
HETATM    2  N   UNL     1     -10.259   9.243  67.990  1.00  0.00    -0.198 NA 
HETATM    3  C   UNL     1     -10.727   8.919  69.293  1.00  0.00    -0.162 C  
HETATM    4  C   UNL     1     -10.588   8.171  67.052  1.00  0.00    -0.275 C  
HETATM    5  C   UNL     1     -11.177  10.237  69.846  1.00  0.00    -0.360 C  
HETATM    6  C   UNL     1     -10.814  11.571  69.028  1.00  0.00    -0.258 C  
HETATM    7  C   UNL     1     -11.913  12.273  69.987  1.00  0.00    -0.379 C  
HETATM    8  C   UNL     1     -10.839  12.824  68.047  1.00  0.00    -0.254 A  
HETATM    9  C   UNL     1     -10.241  12.580  66.819  1.00  0.00    -0.231 A  
HETATM   10  C   UNL     1      -9.892  13.608  65.930  1.00  0.00    -0.263 A  
HETATM   11  N   UNL     1     -10.148  11.241  66.541  1.00  0.00    -0.211 NA 
HETATM   12  C   UNL     1      -9.029  10.697  65.798  1.00  0.00    -0.182 C  
HETATM   13  C   UNL     1     -10.222  14.930  66.203  1.00  0.00    -0.314 A  
HETATM   14  C   UNL     1     -10.957  15.195  67.345  1.00  0.00    -0.314 A  
HETATM   15  C   UNL     1     -11.237  14.171  68.262  1.00  0.00    -0.295 A  
ENDROOT
BRANCH  14  16
HETATM   16  O   UNL     1     -11.402  16.483  67.720  1.00  0.00    -0.172 OA 
BRANCH  16  17
HETATM   17  C   UNL     1     -10.655  17.645  67.525  1.00  0.00    -0.343 C  
HETATM   18  N   UNL     1     -10.287  18.155  68.734  1.00  0.00    -0.408 N  
HETATM   19  O   UNL     1     -10.373  18.145  66.442  1.00  0.00    -0.378 OA 
HETATM   20  H   UNL     1     -10.585  17.664  69.578  1.00  0.00     0.000 HD 
HETATM   21  C   UNL     1      -9.500  19.349  68.880  1.00  0.00    -0.389 C  
ENDBRANCH  16  17
ENDBRANCH  14  16
TORSDOF 2
ENDMDL
MODEL       65
REMARK 921   NORMALIZED FREE ENERGY PREDICTED BY IDOCK:   -4.98 KCAL/MOL
REMARK 922        TOTAL FREE ENERGY PREDICTED BY IDOCK:   -5.76 KCAL/MOL
REMARK 923 INTER-LIGAND FREE ENERGY PREDICTED BY IDOCK:   -5.71 KCAL/MOL
REMARK 924 INTRA-LIGAND FREE ENERGY PREDICTED BY IDOCK:   -0.04 KCAL/MOL
REMARK 927      BINDING AFFINITY PREDICTED BY RF-SCORE:    0.00 PKD
ROOT
HETATM    1  C   UNL     1      -9.956  10.433  64.903  1.00  0.00    -0.339 C  
HETATM    2  N   UNL     1      -8.957  10.246  63.839  1.00  0.00    -0.215 NA 
HETATM    3  C   UNL     1      -8.113   9.176  64.245  1.00  0.00    -0.148 C  
HETATM    4  C   UNL     1      -9.520   9.974  62.518  1.00  0.00    -0.196 C  
HETATM    5  C   UNL     1      -8.357   9.071  65.720  1.00  0.00    -0.133 C  
HETATM    6  C   UNL     1      -9.206  10.231  66.436  1.00  0.00    -0.186 C  
HETATM    7  C   UNL     1      -9.303   9.187  67.668  1.00  0.00    -0.154 C  
HETATM    8  C   UNL     1     -10.372  11.114  67.065  1.00  0.00    -0.263 A  
HETATM    9  C   UNL     1     -10.905  12.041  66.182  1.00  0.00    -0.286 A  
HETATM   10  C   UNL     1     -11.720  13.104  66.601  1.00  0.00    -0.427 A  
HETATM   11  N   UNL     1     -10.642  11.726  64.874  1.00  0.00    -0.282 NA 
HETATM   12  C   UNL     1     -10.418  12.754  63.877  1.00  0.00    -0.372 C  
HETATM   13  C   UNL     1     -12.113  13.221  67.929  1.00  0.00    -0.270 A  
HETATM   14  C   UNL     1     -11.729  12.227  68.811  1.00  0.00    -0.340 A  
HETATM   15  C   UNL     1     -10.855  11.210  68.399  1.00  0.00    -0.248 A  
ENDROOT
BRANCH  14  16
HETATM   16  O   UNL     1     -12.096  12.194  70.176  1.00  0.00    -0.324 OA 
BRANCH  16  17
HETATM   17  C   UNL     1     -12.442  13.327  70.910  1.00  0.00    -0.342 C  
HETATM   18  N   UNL     1     -11.400  14.206  70.903  1.00  0.00    -0.448 N  
HETATM   19  O   UNL     1     -13.509  13.514  71.484  1.00  0.00    -0.322 OA 
HETATM   20  H   UNL     1     -10.551  13.947  70.402  1.00  0.00     0.000 HD 
HETATM   21  C   UNL     1     -11.440  15.481  71.567  1.00  0.00    -0.421 C  
ENDBRANCH  16  17
ENDBRANCH  14  16
TORSDOF 2
ENDMDL
MODEL       66
REMARK 921   NORMALIZED FREE ENERGY PREDICTED BY IDOCK:   -4.96 KCAL/MOL
REMARK 922        TOTAL FREE ENERGY PREDICTED BY IDOCK:   -5.74 KCAL/MOL
REMARK 923 INTER-LIGAND FREE ENERGY PREDICTED BY IDOCK:   -5.47 KCAL/MOL
REMARK 924 INTRA-LIGAND FREE ENERGY PREDICTED BY IDOCK:   -0.27 KCAL/MOL
REMARK 927      BINDING AFFINITY PREDICTED BY RF-SCORE:    0.00 PKD
ROOT
HETATM    1  C   UNL     1     -11.794  14.087  71.303  1.00  0.00     0.027 C  
HETATM    2  N   UNL     1     -12.894  14.542  72.168  1.00  0.00    -0.325 NA 
HETATM    3  C   UNL     1     -13.650  13.390  72.519  1.00  0.00    -0.554 C  
HETATM    4  C   UNL     1     -12.466  15.254  73.370  1.00  0.00    -0.517 C  
HETATM    5  C   UNL     1     -13.246  12.374  71.495  1.00  0.00    -0.285 C  
HETATM    6  C   UNL     1     -12.367  12.862  70.243  1.00  0.00    -0.294 C  
HETATM    7  C   UNL     1     -12.101  11.283  70.011  1.00  0.00    -0.425 C  
HETATM    8  C   UNL     1     -11.173  13.229  69.256  1.00  0.00    -0.266 A  
HETATM    9  C   UNL     1     -10.772  14.554  69.339  1.00  0.00    -0.195 A  
HETATM   10  C   UNL     1      -9.955  15.159  68.371  1.00  0.00    -0.222 A  
HETATM   11  N   UNL     1     -11.162  15.145  70.513  1.00  0.00    -0.279 NA 
HETATM   12  C   UNL     1     -11.528  16.546  70.571  1.00  0.00     0.016 C  
HETATM   13  C   UNL     1      -9.426  14.420  67.320  1.00  0.00    -0.215 A  
HETATM   14  C   UNL     1      -9.677  13.060  67.290  1.00  0.00    -0.225 A  
HETATM   15  C   UNL     1     -10.554  12.479  68.220  1.00  0.00    -0.245 A  
ENDROOT
BRANCH  14  16
HETATM   16  O   UNL     1      -9.165  12.181  66.309  1.00  0.00    -0.220 OA 
BRANCH  16  17
HETATM   17  C   UNL     1      -9.963  11.495  65.395  1.00  0.00    -0.248 C  
HETATM   18  N   UNL     1     -10.458  12.374  64.478  1.00  0.00    -0.308 N  
HETATM   19  O   UNL     1     -10.199  10.292  65.407  1.00  0.00    -0.297 OA 
HETATM   20  H   UNL     1     -10.207  13.359  64.566  1.00  0.00     0.000 HD 
HETATM   21  C   UNL     1     -11.315  11.981  63.392  1.00  0.00    -0.397 C  
ENDBRANCH  16  17
ENDBRANCH  14  16
TORSDOF 2
ENDMDL
MODEL       67
REMARK 921   NORMALIZED FREE ENERGY PREDICTED BY IDOCK:   -4.95 KCAL/MOL
REMARK 922        TOTAL FREE ENERGY PREDICTED BY IDOCK:   -5.73 KCAL/MOL
REMARK 923 INTER-LIGAND FREE ENERGY PREDICTED BY IDOCK:   -5.48 KCAL/MOL
REMARK 924 INTRA-LIGAND FREE ENERGY PREDICTED BY IDOCK:   -0.25 KCAL/MOL
REMARK 927      BINDING AFFINITY PREDICTED BY RF-SCORE:    0.00 PKD
ROOT
HETATM    1  C   UNL     1      -9.791   8.041  69.964  1.00  0.00    -0.185 C  
HETATM    2  N   UNL     1      -9.827   6.770  70.703  1.00  0.00    -0.179 NA 
HETATM    3  C   UNL     1      -9.458   5.746  69.788  1.00  0.00    -0.148 C  
HETATM    4  C   UNL     1      -8.966   6.729  71.884  1.00  0.00    -0.135 C  
HETATM    5  C   UNL     1      -9.658   6.380  68.446  1.00  0.00    -0.125 C  
HETATM    6  C   UNL     1     -10.406   7.800  68.378  1.00  0.00    -0.231 C  
HETATM    7  C   UNL     1      -9.830   7.858  66.867  1.00  0.00    -0.309 C  
HETATM    8  C   UNL     1     -10.747   9.354  68.330  1.00  0.00    -0.220 A  
HETATM    9  C   UNL     1     -11.017   9.903  69.574  1.00  0.00    -0.242 A  
HETATM   10  C   UNL     1     -11.620  11.160  69.733  1.00  0.00    -0.409 A  
HETATM   11  N   UNL     1     -10.524   9.137  70.600  1.00  0.00    -0.225 NA 
HETATM   12  C   UNL     1     -11.213   9.038  71.870  1.00  0.00    -0.368 C  
HETATM   13  C   UNL     1     -11.890  11.965  68.633  1.00  0.00    -0.365 A  
HETATM   14  C   UNL     1     -11.494  11.518  67.386  1.00  0.00    -0.274 A  
HETATM   15  C   UNL     1     -10.959  10.230  67.230  1.00  0.00    -0.277 A  
ENDROOT
BRANCH  14  16
HETATM   16  O   UNL     1     -11.662  12.253  66.190  1.00  0.00    -0.412 OA 
BRANCH  16  17
HETATM   17  C   UNL     1     -11.516  13.637  66.107  1.00  0.00    -0.325 C  
HETATM   18  N   UNL     1     -10.192  13.948  66.013  1.00  0.00    -0.301 N  
HETATM   19  O   UNL     1     -12.427  14.458  66.124  1.00  0.00    -0.392 OA 
HETATM   20  H   UNL     1      -9.514  13.186  66.018  1.00  0.00     0.000 HD 
HETATM   21  C   UNL     1      -9.706  15.296  65.905  1.00  0.00    -0.355 C  
ENDBRANCH  16  17
ENDBRANCH  14  16
TORSDOF 2
ENDMDL
MODEL       68
REMARK 921   NORMALIZED FREE ENERGY PREDICTED BY IDOCK:   -4.87 KCAL/MOL
REMARK 922        TOTAL FREE ENERGY PREDICTED BY IDOCK:   -5.63 KCAL/MOL
REMARK 923 INTER-LIGAND FREE ENERGY PREDICTED BY IDOCK:   -5.57 KCAL/MOL
REMARK 924 INTRA-LIGAND FREE ENERGY PREDICTED BY IDOCK:   -0.06 KCAL/MOL
REMARK 927      BINDING AFFINITY PREDICTED BY RF-SCORE:    0.00 PKD
ROOT
HETATM    1  C   UNL     1     -10.862   9.004  67.998  1.00  0.00    -0.041 C  
HETATM    2  N   UNL     1      -9.993   7.826  67.850  1.00  0.00    -0.164 NA 
HETATM    3  C   UNL     1      -9.868   7.237  69.138  1.00  0.00    -0.166 C  
HETATM    4  C   UNL     1     -10.470   6.837  66.885  1.00  0.00    -0.280 C  
HETATM    5  C   UNL     1     -10.288   8.331  70.071  1.00  0.00    -0.212 C  
HETATM    6  C   UNL     1     -10.493   9.807  69.472  1.00  0.00    -0.250 C  
HETATM    7  C   UNL     1     -11.244  10.105  70.873  1.00  0.00    -0.383 C  
HETATM    8  C   UNL     1     -11.100  11.136  68.840  1.00  0.00    -0.293 A  
HETATM    9  C   UNL     1     -10.982  11.198  67.459  1.00  0.00    -0.275 A  
HETATM   10  C   UNL     1     -11.177  12.385  66.736  1.00  0.00    -0.363 A  
HETATM   11  N   UNL     1     -10.779   9.965  66.897  1.00  0.00    -0.171 NA 
HETATM   12  C   UNL     1      -9.954   9.796  65.718  1.00  0.00    -0.279 C  
HETATM   13  C   UNL     1     -11.594  13.548  67.372  1.00  0.00    -0.392 A  
HETATM   14  C   UNL     1     -11.872  13.486  68.726  1.00  0.00    -0.355 A  
HETATM   15  C   UNL     1     -11.605  12.315  69.452  1.00  0.00    -0.378 A  
ENDROOT
BRANCH  14  16
HETATM   16  O   UNL     1     -12.349  14.576  69.489  1.00  0.00    -0.291 OA 
BRANCH  16  17
HETATM   17  C   UNL     1     -11.532  15.598  69.969  1.00  0.00    -0.344 C  
HETATM   18  N   UNL     1     -11.131  16.383  68.928  1.00  0.00    -0.335 N  
HETATM   19  O   UNL     1     -11.209  15.772  71.139  1.00  0.00    -0.347 OA 
HETATM   20  H   UNL     1     -11.449  16.143  67.990  1.00  0.00     0.000 HD 
HETATM   21  C   UNL     1     -10.281  17.532  69.090  1.00  0.00    -0.256 C  
ENDBRANCH  16  17
ENDBRANCH  14  16
TORSDOF 2
ENDMDL
MODEL       69
REMARK 921   NORMALIZED FREE ENERGY PREDICTED BY IDOCK:   -4.86 KCAL/MOL
REMARK 922        TOTAL FREE ENERGY PREDICTED BY IDOCK:   -5.62 KCAL/MOL
REMARK 923 INTER-LIGAND FREE ENERGY PREDICTED BY IDOCK:   -5.39 KCAL/MOL
REMARK 924 INTRA-LIGAND FREE ENERGY PREDICTED BY IDOCK:   -0.23 KCAL/MOL
REMARK 927      BINDING AFFINITY PREDICTED BY RF-SCORE:    0.00 PKD
ROOT
HETATM    1  C   UNL     1     -10.960   8.535  70.017  1.00  0.00    -0.196 C  
HETATM    2  N   UNL     1     -11.029   7.772  71.273  1.00  0.00    -0.232 NA 
HETATM    3  C   UNL     1     -12.031   8.383  72.076  1.00  0.00    -0.357 C  
HETATM    4  C   UNL     1     -11.314   6.348  71.103  1.00  0.00    -0.319 C  
HETATM    5  C   UNL     1     -12.196   9.741  71.466  1.00  0.00    -0.493 C  
HETATM    6  C   UNL     1     -11.136  10.211  70.355  1.00  0.00    -0.393 C  
HETATM    7  C   UNL     1     -12.217  11.371  70.035  1.00  0.00    -0.377 C  
HETATM    8  C   UNL     1     -10.377  10.513  68.988  1.00  0.00    -0.232 A  
HETATM    9  C   UNL     1      -9.477   9.523  68.621  1.00  0.00    -0.142 A  
HETATM   10  C   UNL     1      -8.503   9.715  67.630  1.00  0.00    -0.125 A  
HETATM   11  N   UNL     1      -9.732   8.329  69.246  1.00  0.00    -0.174 NA 
HETATM   12  C   UNL     1      -8.663   7.429  69.626  1.00  0.00    -0.137 C  
HETATM   13  C   UNL     1      -8.457  10.893  66.894  1.00  0.00    -0.135 A  
HETATM   14  C   UNL     1      -9.436  11.843  67.124  1.00  0.00    -0.178 A  
HETATM   15  C   UNL     1     -10.360  11.673  68.166  1.00  0.00    -0.208 A  
ENDROOT
BRANCH  14  16
HETATM   16  O   UNL     1      -9.539  13.063  66.417  1.00  0.00    -0.262 OA 
BRANCH  16  17
HETATM   17  C   UNL     1     -10.315  13.227  65.271  1.00  0.00    -0.312 C  
HETATM   18  N   UNL     1     -11.255  14.189  65.496  1.00  0.00    -0.310 N  
HETATM   19  O   UNL     1     -10.190  12.606  64.222  1.00  0.00    -0.355 OA 
HETATM   20  H   UNL     1     -11.279  14.638  66.411  1.00  0.00     0.000 HD 
HETATM   21  C   UNL     1     -12.213  14.602  64.506  1.00  0.00    -0.456 C  
ENDBRANCH  16  17
ENDBRANCH  14  16
TORSDOF 2
ENDMDL
MODEL       70
REMARK 921   NORMALIZED FREE ENERGY PREDICTED BY IDOCK:   -4.82 KCAL/MOL
REMARK 922        TOTAL FREE ENERGY PREDICTED BY IDOCK:   -5.59 KCAL/MOL
REMARK 923 INTER-LIGAND FREE ENERGY PREDICTED BY IDOCK:   -5.36 KCAL/MOL
REMARK 924 INTRA-LIGAND FREE ENERGY PREDICTED BY IDOCK:   -0.23 KCAL/MOL
REMARK 927      BINDING AFFINITY PREDICTED BY RF-SCORE:    0.00 PKD
ROOT
HETATM    1  C   UNL     1      -8.668   8.180  65.991  1.00  0.00    -0.156 C  
HETATM    2  N   UNL     1      -7.470   7.437  66.410  1.00  0.00    -0.082 NA 
HETATM    3  C   UNL     1      -7.492   7.377  67.830  1.00  0.00    -0.101 C  
HETATM    4  C   UNL     1      -7.361   6.093  65.847  1.00  0.00    -0.080 C  
HETATM    5  C   UNL     1      -8.448   8.464  68.216  1.00  0.00    -0.135 C  
HETATM    6  C   UNL     1      -8.944   9.482  67.078  1.00  0.00    -0.150 C  
HETATM    7  C   UNL     1     -10.074   9.898  68.158  1.00  0.00    -0.193 C  
HETATM    8  C   UNL     1      -9.755  10.211  65.918  1.00  0.00    -0.292 A  
HETATM    9  C   UNL     1      -9.324   9.876  64.643  1.00  0.00    -0.277 A  
HETATM   10  C   UNL     1      -9.690  10.608  63.503  1.00  0.00    -0.389 A  
HETATM   11  N   UNL     1      -8.616   8.702  64.624  1.00  0.00    -0.137 NA 
HETATM   12  C   UNL     1      -7.514   8.496  63.707  1.00  0.00    -0.118 C  
HETATM   13  C   UNL     1     -10.591  11.662  63.592  1.00  0.00    -0.493 A  
HETATM   14  C   UNL     1     -11.163  11.928  64.823  1.00  0.00    -0.297 A  
HETATM   15  C   UNL     1     -10.736  11.239  65.968  1.00  0.00    -0.301 A  
ENDROOT
BRANCH  14  16
HETATM   16  O   UNL     1     -12.128  12.937  65.047  1.00  0.00    -0.380 OA 
BRANCH  16  17
HETATM   17  C   UNL     1     -12.105  14.180  64.418  1.00  0.00    -0.463 C  
HETATM   18  N   UNL     1     -11.402  15.063  65.184  1.00  0.00    -0.372 N  
HETATM   19  O   UNL     1     -12.636  14.455  63.347  1.00  0.00    -0.729 OA 
HETATM   20  H   UNL     1     -11.010  14.733  66.066  1.00  0.00     0.000 HD 
HETATM   21  C   UNL     1     -11.188  16.434  64.810  1.00  0.00    -0.212 C  
ENDBRANCH  16  17
ENDBRANCH  14  16
TORSDOF 2
ENDMDL
MODEL       71
REMARK 921   NORMALIZED FREE ENERGY PREDICTED BY IDOCK:   -4.74 KCAL/MOL
REMARK 922        TOTAL FREE ENERGY PREDICTED BY IDOCK:   -5.49 KCAL/MOL
REMARK 923 INTER-LIGAND FREE ENERGY PREDICTED BY IDOCK:   -5.45 KCAL/MOL
REMARK 924 INTRA-LIGAND FREE ENERGY PREDICTED BY IDOCK:   -0.04 KCAL/MOL
REMARK 927      BINDING AFFINITY PREDICTED BY RF-SCORE:    0.00 PKD
ROOT
HETATM    1  C   UNL     1      -9.862  17.340  67.677  1.00  0.00    -0.279 C  
HETATM    2  N   UNL     1      -9.510  18.765  67.769  1.00  0.00    -0.296 NA 
HETATM    3  C   UNL     1     -10.213  19.435  66.730  1.00  0.00    -0.420 C  
HETATM    4  C   UNL     1      -9.805  19.381  69.061  1.00  0.00    -0.419 C  
HETATM    5  C   UNL     1     -10.593  18.332  65.790  1.00  0.00    -0.205 C  
HETATM    6  C   UNL     1      -9.954  16.877  66.024  1.00  0.00    -0.313 C  
HETATM    7  C   UNL     1     -11.104  16.378  65.002  1.00  0.00    -0.216 C  
HETATM    8  C   UNL     1      -9.680  15.378  66.482  1.00  0.00    -0.292 A  
HETATM    9  C   UNL     1      -8.926  15.279  67.642  1.00  0.00    -0.179 A  
HETATM   10  C   UNL     1      -8.325  14.080  68.054  1.00  0.00    -0.163 A  
HETATM   11  N   UNL     1      -8.943  16.438  68.374  1.00  0.00    -0.207 NA 
HETATM   12  C   UNL     1      -7.790  16.869  69.138  1.00  0.00    -0.116 C  
HETATM   13  C   UNL     1      -8.542  12.897  67.358  1.00  0.00    -0.195 A  
HETATM   14  C   UNL     1      -9.414  12.924  66.285  1.00  0.00    -0.200 A  
HETATM   15  C   UNL     1      -9.951  14.140  65.837  1.00  0.00    -0.331 A  
ENDROOT
BRANCH  14  16
HETATM   16  O   UNL     1      -9.762  11.788  65.519  1.00  0.00    -0.227 OA 
BRANCH  16  17
HETATM   17  C   UNL     1     -10.440  11.857  64.302  1.00  0.00    -0.326 C  
HETATM   18  N   UNL     1     -11.784  11.805  64.530  1.00  0.00    -0.241 N  
HETATM   19  O   UNL     1      -9.923  11.942  63.194  1.00  0.00    -0.422 OA 
HETATM   20  H   UNL     1     -12.109  11.723  65.493  1.00  0.00     0.000 HD 
HETATM   21  C   UNL     1     -12.763  11.860  63.478  1.00  0.00    -0.405 C  
ENDBRANCH  16  17
ENDBRANCH  14  16
TORSDOF 2
ENDMDL
MODEL       72
REMARK 921   NORMALIZED FREE ENERGY PREDICTED BY IDOCK:   -4.72 KCAL/MOL
REMARK 922        TOTAL FREE ENERGY PREDICTED BY IDOCK:   -5.47 KCAL/MOL
REMARK 923 INTER-LIGAND FREE ENERGY PREDICTED BY IDOCK:   -5.29 KCAL/MOL
REMARK 924 INTRA-LIGAND FREE ENERGY PREDICTED BY IDOCK:   -0.18 KCAL/MOL
REMARK 927      BINDING AFFINITY PREDICTED BY RF-SCORE:    0.00 PKD
ROOT
HETATM    1  C   UNL     1     -10.568  12.925  66.951  1.00  0.00    -0.253 C  
HETATM    2  N   UNL     1     -11.439  14.110  67.005  1.00  0.00    -0.335 NA 
HETATM    3  C   UNL     1     -12.038  14.128  68.294  1.00  0.00    -0.262 C  
HETATM    4  C   UNL     1     -10.757  15.377  66.745  1.00  0.00    -0.310 C  
HETATM    5  C   UNL     1     -11.858  12.725  68.789  1.00  0.00    -0.346 C  
HETATM    6  C   UNL     1     -11.335  11.614  67.754  1.00  0.00    -0.356 C  
HETATM    7  C   UNL     1     -11.071  10.725  69.080  1.00  0.00    -0.304 C  
HETATM    8  C   UNL     1     -10.436  10.626  66.888  1.00  0.00    -0.304 A  
HETATM    9  C   UNL     1     -10.080  11.139  65.650  1.00  0.00    -0.253 A  
HETATM   10  C   UNL     1      -9.551  10.342  64.623  1.00  0.00    -0.374 A  
HETATM   11  N   UNL     1     -10.192  12.505  65.600  1.00  0.00    -0.265 NA 
HETATM   12  C   UNL     1     -10.588  13.189  64.386  1.00  0.00    -0.421 C  
HETATM   13  C   UNL     1      -9.268   8.999  64.837  1.00  0.00    -0.056 A  
HETATM   14  C   UNL     1      -9.464   8.486  66.107  1.00  0.00    -0.217 A  
HETATM   15  C   UNL     1     -10.061   9.271  67.105  1.00  0.00    -0.299 A  
ENDROOT
BRANCH  14  16
HETATM   16  O   UNL     1      -9.174   7.153  66.477  1.00  0.00    -0.154 OA 
BRANCH  16  17
HETATM   17  C   UNL     1      -9.994   6.387  67.305  1.00  0.00    -0.146 C  
HETATM   18  N   UNL     1      -9.348   6.142  68.480  1.00  0.00    -0.118 N  
HETATM   19  O   UNL     1     -11.118   5.982  67.029  1.00  0.00    -0.303 OA 
HETATM   20  H   UNL     1      -8.407   6.517  68.603  1.00  0.00     0.000 HD 
HETATM   21  C   UNL     1      -9.927   5.381  69.554  1.00  0.00    -0.219 C  
ENDBRANCH  16  17
ENDBRANCH  14  16
TORSDOF 2
ENDMDL
MODEL       73
REMARK 921   NORMALIZED FREE ENERGY PREDICTED BY IDOCK:   -4.68 KCAL/MOL
REMARK 922        TOTAL FREE ENERGY PREDICTED BY IDOCK:   -5.43 KCAL/MOL
REMARK 923 INTER-LIGAND FREE ENERGY PREDICTED BY IDOCK:   -5.24 KCAL/MOL
REMARK 924 INTRA-LIGAND FREE ENERGY PREDICTED BY IDOCK:   -0.19 KCAL/MOL
REMARK 927      BINDING AFFINITY PREDICTED BY RF-SCORE:    0.00 PKD
ROOT
HETATM    1  C   UNL     1     -12.249   9.702  70.509  1.00  0.00    -0.083 C  
HETATM    2  N   UNL     1     -12.776   9.805  71.878  1.00  0.00    -0.404 NA 
HETATM    3  C   UNL     1     -13.366  11.093  72.001  1.00  0.00    -0.278 C  
HETATM    4  C   UNL     1     -13.743   8.769  72.236  1.00  0.00    -0.440 C  
HETATM    5  C   UNL     1     -12.772  11.866  70.863  1.00  0.00    -0.301 C  
HETATM    6  C   UNL     1     -11.557  11.205  70.046  1.00  0.00    -0.421 C  
HETATM    7  C   UNL     1     -11.865  12.361  68.956  1.00  0.00    -0.349 C  
HETATM    8  C   UNL     1     -10.671  10.413  68.987  1.00  0.00    -0.260 A  
HETATM    9  C   UNL     1     -10.389   9.108  69.363  1.00  0.00    -0.216 A  
HETATM   10  C   UNL     1      -9.398   8.337  68.737  1.00  0.00    -0.143 A  
HETATM   11  N   UNL     1     -11.259   8.641  70.314  1.00  0.00    -0.226 NA 
HETATM   12  C   UNL     1     -10.831   7.717  71.345  1.00  0.00    -0.228 C  
HETATM   13  C   UNL     1      -8.709   8.822  67.632  1.00  0.00    -0.135 A  
HETATM   14  C   UNL     1      -9.070  10.060  67.131  1.00  0.00    -0.138 A  
HETATM   15  C   UNL     1     -10.010  10.852  67.808  1.00  0.00    -0.198 A  
ENDROOT
BRANCH  14  16
HETATM   16  O   UNL     1      -8.488  10.653  65.988  1.00  0.00    -0.153 OA 
BRANCH  16  17
HETATM   17  C   UNL     1      -9.112  10.705  64.743  1.00  0.00    -0.209 C  
HETATM   18  N   UNL     1      -9.609  11.958  64.537  1.00  0.00    -0.445 N  
HETATM   19  O   UNL     1      -9.213   9.775  63.950  1.00  0.00    -0.256 OA 
HETATM   20  H   UNL     1      -9.479  12.656  65.269  1.00  0.00     0.000 HD 
HETATM   21  C   UNL     1     -10.307  12.342  63.341  1.00  0.00    -0.357 C  
ENDBRANCH  16  17
ENDBRANCH  14  16
TORSDOF 2
ENDMDL
MODEL       74
REMARK 921   NORMALIZED FREE ENERGY PREDICTED BY IDOCK:   -4.67 KCAL/MOL
REMARK 922        TOTAL FREE ENERGY PREDICTED BY IDOCK:   -5.42 KCAL/MOL
REMARK 923 INTER-LIGAND FREE ENERGY PREDICTED BY IDOCK:   -5.24 KCAL/MOL
REMARK 924 INTRA-LIGAND FREE ENERGY PREDICTED BY IDOCK:   -0.18 KCAL/MOL
REMARK 927      BINDING AFFINITY PREDICTED BY RF-SCORE:    0.00 PKD
ROOT
HETATM    1  C   UNL     1     -10.648  12.001  67.998  1.00  0.00    -0.208 C  
HETATM    2  N   UNL     1     -11.273  13.282  67.634  1.00  0.00    -0.269 NA 
HETATM    3  C   UNL     1     -11.891  13.793  68.808  1.00  0.00    -0.363 C  
HETATM    4  C   UNL     1     -10.351  14.270  67.076  1.00  0.00    -0.267 C  
HETATM    5  C   UNL     1     -12.000  12.595  69.701  1.00  0.00    -0.352 C  
HETATM    6  C   UNL     1     -11.676  11.150  69.080  1.00  0.00    -0.408 C  
HETATM    7  C   UNL     1     -11.625  10.668  70.624  1.00  0.00    -0.432 C  
HETATM    8  C   UNL     1     -10.965   9.804  68.615  1.00  0.00    -0.189 A  
HETATM    9  C   UNL     1     -10.483   9.850  67.315  1.00  0.00    -0.258 A  
HETATM   10  C   UNL     1     -10.093   8.701  66.611  1.00  0.00    -0.364 A  
HETATM   11  N   UNL     1     -10.327  11.135  66.862  1.00  0.00    -0.222 NA 
HETATM   12  C   UNL     1     -10.551  11.482  65.474  1.00  0.00    -0.281 C  
HETATM   13  C   UNL     1     -10.083   7.455  67.227  1.00  0.00    -0.296 A  
HETATM   14  C   UNL     1     -10.408   7.391  68.570  1.00  0.00    -0.198 A  
HETATM   15  C   UNL     1     -10.866   8.533  69.245  1.00  0.00    -0.072 A  
ENDROOT
BRANCH  14  16
HETATM   16  O   UNL     1     -10.393   6.202  69.333  1.00  0.00    -0.189 OA 
BRANCH  16  17
HETATM   17  C   UNL     1     -10.069   6.159  70.689  1.00  0.00    -0.193 C  
HETATM   18  N   UNL     1     -11.161   5.761  71.402  1.00  0.00    -0.242 N  
HETATM   19  O   UNL     1      -8.981   6.440  71.178  1.00  0.00    -0.145 OA 
HETATM   20  H   UNL     1     -12.024   5.562  70.896  1.00  0.00     0.000 HD 
HETATM   21  C   UNL     1     -11.155   5.609  72.832  1.00  0.00    -0.292 C  
ENDBRANCH  16  17
ENDBRANCH  14  16
TORSDOF 2
ENDMDL
MODEL       75
REMARK 921   NORMALIZED FREE ENERGY PREDICTED BY IDOCK:   -4.67 KCAL/MOL
REMARK 922        TOTAL FREE ENERGY PREDICTED BY IDOCK:   -5.41 KCAL/MOL
REMARK 923 INTER-LIGAND FREE ENERGY PREDICTED BY IDOCK:   -5.19 KCAL/MOL
REMARK 924 INTRA-LIGAND FREE ENERGY PREDICTED BY IDOCK:   -0.22 KCAL/MOL
REMARK 927      BINDING AFFINITY PREDICTED BY RF-SCORE:    0.00 PKD
ROOT
HETATM    1  C   UNL     1      -9.947  17.208  67.462  1.00  0.00    -0.279 C  
HETATM    2  N   UNL     1      -9.559  18.619  67.311  1.00  0.00    -0.293 NA 
HETATM    3  C   UNL     1     -10.199  19.104  66.138  1.00  0.00    -0.463 C  
HETATM    4  C   UNL     1      -9.888  19.466  68.455  1.00  0.00    -0.427 C  
HETATM    5  C   UNL     1     -10.572  17.857  65.395  1.00  0.00     0.113 C  
HETATM    6  C   UNL     1      -9.986  16.455  65.918  1.00  0.00    -0.358 C  
HETATM    7  C   UNL     1     -11.107  15.802  64.951  1.00  0.00    -0.411 C  
HETATM    8  C   UNL     1      -9.774  15.058  66.650  1.00  0.00    -0.273 A  
HETATM    9  C   UNL     1      -9.070  15.156  67.842  1.00  0.00    -0.179 A  
HETATM   10  C   UNL     1      -8.522  14.040  68.491  1.00  0.00    -0.143 A  
HETATM   11  N   UNL     1      -9.084  16.429  68.352  1.00  0.00    -0.207 NA 
HETATM   12  C   UNL     1      -7.951  16.967  69.076  1.00  0.00    -0.153 C  
HETATM   13  C   UNL     1      -8.744  12.755  68.011  1.00  0.00    -0.194 A  
HETATM   14  C   UNL     1      -9.571  12.604  66.912  1.00  0.00    -0.232 A  
HETATM   15  C   UNL     1     -10.054  13.730  66.228  1.00  0.00    -0.304 A  
ENDROOT
BRANCH  14  16
HETATM   16  O   UNL     1      -9.921  11.356  66.349  1.00  0.00    -0.203 OA 
BRANCH  16  17
HETATM   17  C   UNL     1     -10.683  10.396  67.013  1.00  0.00    -0.235 C  
HETATM   18  N   UNL     1     -10.067   9.184  66.917  1.00  0.00    -0.236 N  
HETATM   19  O   UNL     1     -11.747  10.595  67.589  1.00  0.00    -0.480 OA 
HETATM   20  H   UNL     1      -9.187   9.126  66.404  1.00  0.00     0.000 HD 
HETATM   21  C   UNL     1     -10.596   7.983  67.505  1.00  0.00    -0.232 C  
ENDBRANCH  16  17
ENDBRANCH  14  16
TORSDOF 2
ENDMDL
MODEL       76
REMARK 921   NORMALIZED FREE ENERGY PREDICTED BY IDOCK:   -4.64 KCAL/MOL
REMARK 922        TOTAL FREE ENERGY PREDICTED BY IDOCK:   -5.38 KCAL/MOL
REMARK 923 INTER-LIGAND FREE ENERGY PREDICTED BY IDOCK:   -5.12 KCAL/MOL
REMARK 924 INTRA-LIGAND FREE ENERGY PREDICTED BY IDOCK:   -0.26 KCAL/MOL
REMARK 927      BINDING AFFINITY PREDICTED BY RF-SCORE:    0.00 PKD
ROOT
HETATM    1  C   UNL     1      -9.428   9.868  65.340  1.00  0.00    -0.257 C  
HETATM    2  N   UNL     1      -8.578  10.182  64.182  1.00  0.00    -0.174 NA 
HETATM    3  C   UNL     1      -7.361   9.467  64.352  1.00  0.00    -0.109 C  
HETATM    4  C   UNL     1      -9.176   9.864  62.886  1.00  0.00    -0.261 C  
HETATM    5  C   UNL     1      -7.354   9.121  65.810  1.00  0.00    -0.090 C  
HETATM    6  C   UNL     1      -8.460   9.796  66.759  1.00  0.00    -0.125 C  
HETATM    7  C   UNL     1      -8.013   8.665  67.826  1.00  0.00    -0.107 C  
HETATM    8  C   UNL     1      -9.771  10.108  67.607  1.00  0.00    -0.187 A  
HETATM    9  C   UNL     1     -10.713  10.859  66.919  1.00  0.00    -0.264 A  
HETATM   10  C   UNL     1     -11.791  11.489  67.558  1.00  0.00    -0.157 A  
HETATM   11  N   UNL     1     -10.529  10.808  65.561  1.00  0.00    -0.230 NA 
HETATM   12  C   UNL     1     -10.823  11.945  64.713  1.00  0.00    -0.307 C  
HETATM   13  C   UNL     1     -12.021  11.308  68.916  1.00  0.00    -0.378 A  
HETATM   14  C   UNL     1     -11.194  10.441  69.606  1.00  0.00    -0.277 A  
HETATM   15  C   UNL     1     -10.076   9.874  68.975  1.00  0.00    -0.199 A  
ENDROOT
BRANCH  14  16
HETATM   16  O   UNL     1     -11.341  10.126  70.976  1.00  0.00    -0.347 OA 
BRANCH  16  17
HETATM   17  C   UNL     1     -12.508   9.596  71.525  1.00  0.00    -0.386 C  
HETATM   18  N   UNL     1     -12.634   8.292  71.147  1.00  0.00    -0.477 N  
HETATM   19  O   UNL     1     -13.308  10.198  72.232  1.00  0.00    -0.415 OA 
HETATM   20  H   UNL     1     -11.914   7.890  70.546  1.00  0.00     0.000 HD 
HETATM   21  C   UNL     1     -13.731   7.457  71.553  1.00  0.00    -0.371 C  
ENDBRANCH  16  17
ENDBRANCH  14  16
TORSDOF 2
ENDMDL
MODEL       77
REMARK 921   NORMALIZED FREE ENERGY PREDICTED BY IDOCK:   -4.64 KCAL/MOL
REMARK 922        TOTAL FREE ENERGY PREDICTED BY IDOCK:   -5.38 KCAL/MOL
REMARK 923 INTER-LIGAND FREE ENERGY PREDICTED BY IDOCK:   -5.14 KCAL/MOL
REMARK 924 INTRA-LIGAND FREE ENERGY PREDICTED BY IDOCK:   -0.24 KCAL/MOL
REMARK 927      BINDING AFFINITY PREDICTED BY RF-SCORE:    0.00 PKD
ROOT
HETATM    1  C   UNL     1      -9.296   9.090  65.763  1.00  0.00    -0.236 C  
HETATM    2  N   UNL     1      -8.072   8.306  65.535  1.00  0.00    -0.120 NA 
HETATM    3  C   UNL     1      -7.519   8.017  66.812  1.00  0.00    -0.090 C  
HETATM    4  C   UNL     1      -8.274   7.072  64.778  1.00  0.00    -0.047 C  
HETATM    5  C   UNL     1      -8.177   9.013  67.718  1.00  0.00    -0.109 C  
HETATM    6  C   UNL     1      -9.037  10.196  67.053  1.00  0.00    -0.155 C  
HETATM    7  C   UNL     1      -9.607  10.415  68.551  1.00  0.00    -0.161 C  
HETATM    8  C   UNL     1     -10.209  11.090  66.453  1.00  0.00    -0.284 A  
HETATM    9  C   UNL     1     -10.351  10.972  65.079  1.00  0.00    -0.295 A  
HETATM   10  C   UNL     1     -11.109  11.874  64.316  1.00  0.00    -0.418 A  
HETATM   11  N   UNL     1      -9.776   9.827  64.592  1.00  0.00    -0.201 NA 
HETATM   12  C   UNL     1      -9.153   9.788  63.284  1.00  0.00    -0.237 C  
HETATM   13  C   UNL     1     -11.839  12.887  64.925  1.00  0.00    -0.409 A  
HETATM   14  C   UNL     1     -11.846  12.942  66.307  1.00  0.00    -0.416 A  
HETATM   15  C   UNL     1     -11.029  12.082  67.057  1.00  0.00    -0.323 A  
ENDROOT
BRANCH  14  16
HETATM   16  O   UNL     1     -12.581  13.887  67.059  1.00  0.00    -0.216 OA 
BRANCH  16  17
HETATM   17  C   UNL     1     -12.010  14.725  68.015  1.00  0.00    -0.227 C  
HETATM   18  N   UNL     1     -12.596  14.496  69.225  1.00  0.00    -0.547 N  
HETATM   19  O   UNL     1     -11.125  15.549  67.813  1.00  0.00    -0.306 OA 
HETATM   20  H   UNL     1     -13.333  13.793  69.281  1.00  0.00     0.000 HD 
HETATM   21  C   UNL     1     -12.226  15.197  70.425  1.00  0.00    -0.344 C  
ENDBRANCH  16  17
ENDBRANCH  14  16
TORSDOF 2
ENDMDL
MODEL       78
REMARK 921   NORMALIZED FREE ENERGY PREDICTED BY IDOCK:   -4.62 KCAL/MOL
REMARK 922        TOTAL FREE ENERGY PREDICTED BY IDOCK:   -5.36 KCAL/MOL
REMARK 923 INTER-LIGAND FREE ENERGY PREDICTED BY IDOCK:   -5.10 KCAL/MOL
REMARK 924 INTRA-LIGAND FREE ENERGY PREDICTED BY IDOCK:   -0.26 KCAL/MOL
REMARK 927      BINDING AFFINITY PREDICTED BY RF-SCORE:    0.00 PKD
ROOT
HETATM    1  C   UNL     1      -8.662  11.957  68.102  1.00  0.00    -0.173 C  
HETATM    2  N   UNL     1      -8.191  10.821  67.295  1.00  0.00    -0.120 NA 
HETATM    3  C   UNL     1      -6.821  11.060  66.999  1.00  0.00    -0.109 C  
HETATM    4  C   UNL     1      -8.352   9.515  67.931  1.00  0.00    -0.115 C  
HETATM    5  C   UNL     1      -6.654  12.528  67.252  1.00  0.00    -0.125 C  
HETATM    6  C   UNL     1      -7.971  13.412  67.503  1.00  0.00    -0.186 C  
HETATM    7  C   UNL     1      -6.931  14.531  68.036  1.00  0.00    -0.149 C  
HETATM    8  C   UNL     1      -9.188  14.200  68.161  1.00  0.00    -0.194 A  
HETATM    9  C   UNL     1     -10.354  13.453  68.244  1.00  0.00    -0.249 A  
HETATM   10  C   UNL     1     -11.605  14.031  68.510  1.00  0.00    -0.357 A  
HETATM   11  N   UNL     1     -10.117  12.105  68.156  1.00  0.00    -0.201 NA 
HETATM   12  C   UNL     1     -11.060  11.211  67.515  1.00  0.00    -0.291 C  
HETATM   13  C   UNL     1     -11.719  15.384  68.801  1.00  0.00    -0.369 A  
HETATM   14  C   UNL     1     -10.558  16.133  68.881  1.00  0.00    -0.275 A  
HETATM   15  C   UNL     1      -9.321  15.563  68.542  1.00  0.00    -0.197 A  
ENDROOT
BRANCH  14  16
HETATM   16  O   UNL     1     -10.521  17.506  69.215  1.00  0.00    -0.321 OA 
BRANCH  16  17
HETATM   17  C   UNL     1      -9.926  18.479  68.413  1.00  0.00    -0.380 C  
HETATM   18  N   UNL     1     -10.701  18.694  67.312  1.00  0.00    -0.424 N  
HETATM   19  O   UNL     1      -8.868  19.053  68.645  1.00  0.00    -0.345 OA 
HETATM   20  H   UNL     1     -11.560  18.153  67.211  1.00  0.00     0.000 HD 
HETATM   21  C   UNL     1     -10.368  19.647  66.288  1.00  0.00    -0.518 C  
ENDBRANCH  16  17
ENDBRANCH  14  16
TORSDOF 2
ENDMDL
MODEL       79
REMARK 921   NORMALIZED FREE ENERGY PREDICTED BY IDOCK:   -4.61 KCAL/MOL
REMARK 922        TOTAL FREE ENERGY PREDICTED BY IDOCK:   -5.35 KCAL/MOL
REMARK 923 INTER-LIGAND FREE ENERGY PREDICTED BY IDOCK:   -5.11 KCAL/MOL
REMARK 924 INTRA-LIGAND FREE ENERGY PREDICTED BY IDOCK:   -0.24 KCAL/MOL
REMARK 927      BINDING AFFINITY PREDICTED BY RF-SCORE:    0.00 PKD
ROOT
HETATM    1  C   UNL     1     -11.497  11.925  65.827  1.00  0.00    -0.265 C  
HETATM    2  N   UNL     1     -11.501  13.347  65.449  1.00  0.00    -0.299 NA 
HETATM    3  C   UNL     1     -10.955  13.430  64.139  1.00  0.00    -0.304 C  
HETATM    4  C   UNL     1     -12.817  13.982  65.492  1.00  0.00    -0.419 C  
HETATM    5  C   UNL     1     -10.236  12.127  63.970  1.00  0.00    -0.396 C  
HETATM    6  C   UNL     1     -10.054  11.185  65.258  1.00  0.00    -0.329 C  
HETATM    7  C   UNL     1      -9.659  10.046  64.178  1.00  0.00    -0.274 C  
HETATM    8  C   UNL     1     -10.237  10.079  66.388  1.00  0.00    -0.290 A  
HETATM    9  C   UNL     1     -10.901  10.540  67.515  1.00  0.00    -0.301 A  
HETATM   10  C   UNL     1     -10.910   9.836  68.729  1.00  0.00    -0.219 A  
HETATM   11  N   UNL     1     -11.627  11.676  67.264  1.00  0.00    -0.547 NA 
HETATM   12  C   UNL     1     -11.788  12.709  68.267  1.00  0.00    -0.306 C  
HETATM   13  C   UNL     1     -10.325   8.580  68.830  1.00  0.00    -0.226 A  
HETATM   14  C   UNL     1      -9.787   8.018  67.686  1.00  0.00    -0.167 A  
HETATM   15  C   UNL     1      -9.718   8.759  66.497  1.00  0.00    -0.328 A  
ENDROOT
BRANCH  14  16
HETATM   16  O   UNL     1      -9.205   6.732  67.633  1.00  0.00    -0.120 OA 
BRANCH  16  17
HETATM   17  C   UNL     1      -8.267   6.271  68.556  1.00  0.00    -0.112 C  
HETATM   18  N   UNL     1      -7.137   7.030  68.470  1.00  0.00    -0.086 N  
HETATM   19  O   UNL     1      -8.417   5.327  69.324  1.00  0.00    -0.099 OA 
HETATM   20  H   UNL     1      -7.113   7.787  67.787  1.00  0.00     0.000 HD 
HETATM   21  C   UNL     1      -5.980   6.815  69.296  1.00  0.00    -0.022 C  
ENDBRANCH  16  17
ENDBRANCH  14  16
TORSDOF 2
ENDMDL
MODEL       80
REMARK 921   NORMALIZED FREE ENERGY PREDICTED BY IDOCK:   -4.52 KCAL/MOL
REMARK 922        TOTAL FREE ENERGY PREDICTED BY IDOCK:   -5.25 KCAL/MOL
REMARK 923 INTER-LIGAND FREE ENERGY PREDICTED BY IDOCK:   -5.05 KCAL/MOL
REMARK 924 INTRA-LIGAND FREE ENERGY PREDICTED BY IDOCK:   -0.20 KCAL/MOL
REMARK 927      BINDING AFFINITY PREDICTED BY RF-SCORE:    0.00 PKD
ROOT
HETATM    1  C   UNL     1      -9.447  12.664  67.284  1.00  0.00    -0.199 C  
HETATM    2  N   UNL     1     -10.083  11.644  68.133  1.00  0.00    -0.190 NA 
HETATM    3  C   UNL     1     -11.486  11.752  67.931  1.00  0.00    -0.317 C  
HETATM    4  C   UNL     1      -9.637  10.276  67.875  1.00  0.00    -0.145 C  
HETATM    5  C   UNL     1     -11.655  13.114  67.329  1.00  0.00    -0.404 C  
HETATM    6  C   UNL     1     -10.388  14.101  67.311  1.00  0.00    -0.267 C  
HETATM    7  C   UNL     1     -11.265  14.957  66.255  1.00  0.00    -0.331 C  
HETATM    8  C   UNL     1      -9.076  14.907  66.907  1.00  0.00    -0.271 A  
HETATM    9  C   UNL     1      -7.903  14.317  67.353  1.00  0.00    -0.187 A  
HETATM   10  C   UNL     1      -6.674  14.995  67.367  1.00  0.00    -0.104 A  
HETATM   11  N   UNL     1      -8.067  12.990  67.653  1.00  0.00    -0.158 NA 
HETATM   12  C   UNL     1      -7.333  12.360  68.731  1.00  0.00    -0.076 C  
HETATM   13  C   UNL     1      -6.558  16.275  66.840  1.00  0.00    -0.123 A  
HETATM   14  C   UNL     1      -7.673  16.837  66.245  1.00  0.00    -0.275 A  
HETATM   15  C   UNL     1      -8.913  16.182  66.301  1.00  0.00    -0.379 A  
ENDROOT
BRANCH  14  16
HETATM   16  O   UNL     1      -7.687  18.109  65.628  1.00  0.00    -0.532 OA 
BRANCH  16  17
HETATM   17  C   UNL     1      -8.018  19.287  66.296  1.00  0.00    -0.308 C  
HETATM   18  N   UNL     1      -6.918  19.761  66.948  1.00  0.00    -0.206 N  
HETATM   19  O   UNL     1      -9.121  19.820  66.310  1.00  0.00    -0.365 OA 
HETATM   20  H   UNL     1      -6.048  19.233  66.879  1.00  0.00     0.000 HD 
HETATM   21  C   UNL     1      -6.925  20.969  67.727  1.00  0.00    -0.217 C  
ENDBRANCH  16  17
ENDBRANCH  14  16
TORSDOF 2
ENDMDL
MODEL       81
REMARK 921   NORMALIZED FREE ENERGY PREDICTED BY IDOCK:   -4.52 KCAL/MOL
REMARK 922        TOTAL FREE ENERGY PREDICTED BY IDOCK:   -5.25 KCAL/MOL
REMARK 923 INTER-LIGAND FREE ENERGY PREDICTED BY IDOCK:   -4.99 KCAL/MOL
REMARK 924 INTRA-LIGAND FREE ENERGY PREDICTED BY IDOCK:   -0.26 KCAL/MOL
REMARK 927      BINDING AFFINITY PREDICTED BY RF-SCORE:    0.00 PKD
ROOT
HETATM    1  C   UNL     1      -8.581   9.350  66.331  1.00  0.00    -0.134 C  
HETATM    2  N   UNL     1      -8.462   9.051  64.895  1.00  0.00    -0.169 NA 
HETATM    3  C   UNL     1      -9.288   9.979  64.206  1.00  0.00    -0.288 C  
HETATM    4  C   UNL     1      -7.097   9.104  64.376  1.00  0.00    -0.091 C  
HETATM    5  C   UNL     1     -10.209  10.493  65.271  1.00  0.00    -0.352 C  
HETATM    6  C   UNL     1     -10.210   9.756  66.698  1.00  0.00    -0.296 C  
HETATM    7  C   UNL     1     -11.015  11.066  67.202  1.00  0.00    -0.344 C  
HETATM    8  C   UNL     1      -9.924   9.327  68.204  1.00  0.00    -0.206 A  
HETATM    9  C   UNL     1      -8.948   8.349  68.327  1.00  0.00    -0.139 A  
HETATM   10  C   UNL     1      -8.749   7.624  69.512  1.00  0.00    -0.136 A  
HETATM   11  N   UNL     1      -8.147   8.268  67.217  1.00  0.00    -0.108 NA 
HETATM   12  C   UNL     1      -7.601   7.004  66.767  1.00  0.00    -0.090 C  
HETATM   13  C   UNL     1      -9.469   7.924  70.662  1.00  0.00    -0.162 A  
HETATM   14  C   UNL     1     -10.342   8.997  70.622  1.00  0.00    -0.229 A  
HETATM   15  C   UNL     1     -10.587   9.668  69.414  1.00  0.00    -0.243 A  
ENDROOT
BRANCH  14  16
HETATM   16  O   UNL     1     -11.101   9.443  71.728  1.00  0.00    -0.370 OA 
BRANCH  16  17
HETATM   17  C   UNL     1     -12.494   9.418  71.768  1.00  0.00    -0.391 C  
HETATM   18  N   UNL     1     -12.926   8.126  71.707  1.00  0.00    -0.336 N  
HETATM   19  O   UNL     1     -13.229  10.397  71.838  1.00  0.00    -0.439 OA 
HETATM   20  H   UNL     1     -12.228   7.385  71.639  1.00  0.00     0.000 HD 
HETATM   21  C   UNL     1     -14.315   7.758  71.734  1.00  0.00    -0.470 C  
ENDBRANCH  16  17
ENDBRANCH  14  16
TORSDOF 2
ENDMDL
MODEL       82
REMARK 921   NORMALIZED FREE ENERGY PREDICTED BY IDOCK:   -4.52 KCAL/MOL
REMARK 922        TOTAL FREE ENERGY PREDICTED BY IDOCK:   -5.24 KCAL/MOL
REMARK 923 INTER-LIGAND FREE ENERGY PREDICTED BY IDOCK:   -5.21 KCAL/MOL
REMARK 924 INTRA-LIGAND FREE ENERGY PREDICTED BY IDOCK:   -0.03 KCAL/MOL
REMARK 927      BINDING AFFINITY PREDICTED BY RF-SCORE:    0.00 PKD
ROOT
HETATM    1  C   UNL     1      -9.348   7.065  70.462  1.00  0.00    -0.159 C  
HETATM    2  N   UNL     1      -8.090   6.308  70.556  1.00  0.00    -0.111 NA 
HETATM    3  C   UNL     1      -8.029   5.764  71.868  1.00  0.00    -0.107 C  
HETATM    4  C   UNL     1      -7.943   5.248  69.561  1.00  0.00    -0.088 C  
HETATM    5  C   UNL     1      -9.017   6.584  72.640  1.00  0.00    -0.134 C  
HETATM    6  C   UNL     1      -9.629   7.894  71.941  1.00  0.00    -0.226 C  
HETATM    7  C   UNL     1     -10.717   7.836  73.138  1.00  0.00    -0.414 C  
HETATM    8  C   UNL     1     -10.542   8.918  71.133  1.00  0.00    -0.335 A  
HETATM    9  C   UNL     1     -10.167   9.070  69.806  1.00  0.00    -0.205 A  
HETATM   10  C   UNL     1     -10.636  10.121  69.003  1.00  0.00    -0.245 A  
HETATM   11  N   UNL     1      -9.401   8.025  69.358  1.00  0.00    -0.155 NA 
HETATM   12  C   UNL     1      -8.343   8.222  68.388  1.00  0.00    -0.132 C  
HETATM   13  C   UNL     1     -11.584  11.016  69.481  1.00  0.00    -0.384 A  
HETATM   14  C   UNL     1     -12.099  10.805  70.748  1.00  0.00    -0.372 A  
HETATM   15  C   UNL     1     -11.572   9.796  71.568  1.00  0.00    -0.424 A  
ENDROOT
BRANCH  14  16
HETATM   16  O   UNL     1     -13.100  11.607  71.340  1.00  0.00    -0.375 OA 
BRANCH  16  17
HETATM   17  C   UNL     1     -13.041  12.998  71.399  1.00  0.00    -0.248 C  
HETATM   18  N   UNL     1     -13.229  13.405  72.687  1.00  0.00    -0.428 N  
HETATM   19  O   UNL     1     -12.857  13.752  70.450  1.00  0.00    -0.233 OA 
HETATM   20  H   UNL     1     -13.385  12.694  73.402  1.00  0.00     0.000 HD 
HETATM   21  C   UNL     1     -13.218  14.786  73.087  1.00  0.00    -0.436 C  
ENDBRANCH  16  17
ENDBRANCH  14  16
TORSDOF 2
ENDMDL
MODEL       83
REMARK 921   NORMALIZED FREE ENERGY PREDICTED BY IDOCK:   -4.51 KCAL/MOL
REMARK 922        TOTAL FREE ENERGY PREDICTED BY IDOCK:   -5.24 KCAL/MOL
REMARK 923 INTER-LIGAND FREE ENERGY PREDICTED BY IDOCK:   -5.06 KCAL/MOL
REMARK 924 INTRA-LIGAND FREE ENERGY PREDICTED BY IDOCK:   -0.18 KCAL/MOL
REMARK 927      BINDING AFFINITY PREDICTED BY RF-SCORE:    0.00 PKD
ROOT
HETATM    1  C   UNL     1     -10.647  11.837  66.065  1.00  0.00    -0.260 C  
HETATM    2  N   UNL     1     -11.836  12.421  66.705  1.00  0.00    -0.563 NA 
HETATM    3  C   UNL     1     -11.880  11.923  68.036  1.00  0.00    -0.253 C  
HETATM    4  C   UNL     1     -11.866  13.883  66.709  1.00  0.00    -0.424 C  
HETATM    5  C   UNL     1     -10.986  10.722  67.995  1.00  0.00    -0.336 C  
HETATM    6  C   UNL     1     -10.474  10.202  66.565  1.00  0.00    -0.236 C  
HETATM    7  C   UNL     1      -9.414   9.338  67.430  1.00  0.00    -0.165 C  
HETATM    8  C   UNL     1      -9.635   9.939  65.237  1.00  0.00    -0.361 A  
HETATM    9  C   UNL     1      -9.991  10.766  64.182  1.00  0.00    -0.343 A  
HETATM   10  C   UNL     1      -9.598  10.516  62.859  1.00  0.00    -0.355 A  
HETATM   11  N   UNL     1     -10.652  11.892  64.602  1.00  0.00    -0.290 NA 
HETATM   12  C   UNL     1     -11.700  12.496  63.806  1.00  0.00    -0.485 C  
HETATM   13  C   UNL     1      -8.742   9.464  62.555  1.00  0.00    -0.238 A  
HETATM   14  C   UNL     1      -8.241   8.710  63.601  1.00  0.00    -0.148 A  
HETATM   15  C   UNL     1      -8.697   8.922  64.911  1.00  0.00    -0.184 A  
ENDROOT
BRANCH  14  16
HETATM   16  O   UNL     1      -7.327   7.644  63.442  1.00  0.00    -0.078 OA 
BRANCH  16  17
HETATM   17  C   UNL     1      -7.692   6.300  63.504  1.00  0.00    -0.105 C  
HETATM   18  N   UNL     1      -7.279   5.772  64.691  1.00  0.00    -0.060 N  
HETATM   19  O   UNL     1      -8.283   5.674  62.631  1.00  0.00    -0.100 OA 
HETATM   20  H   UNL     1      -6.783   6.379  65.345  1.00  0.00     0.000 HD 
HETATM   21  C   UNL     1      -7.507   4.404  65.068  1.00  0.00    -0.073 C  
ENDBRANCH  16  17
ENDBRANCH  14  16
TORSDOF 2
ENDMDL
MODEL       84
REMARK 921   NORMALIZED FREE ENERGY PREDICTED BY IDOCK:   -4.51 KCAL/MOL
REMARK 922        TOTAL FREE ENERGY PREDICTED BY IDOCK:   -5.23 KCAL/MOL
REMARK 923 INTER-LIGAND FREE ENERGY PREDICTED BY IDOCK:   -5.04 KCAL/MOL
REMARK 924 INTRA-LIGAND FREE ENERGY PREDICTED BY IDOCK:   -0.19 KCAL/MOL
REMARK 927      BINDING AFFINITY PREDICTED BY RF-SCORE:    0.00 PKD
ROOT
HETATM    1  C   UNL     1      -8.405  16.003  67.625  1.00  0.00    -0.151 C  
HETATM    2  N   UNL     1      -7.953  16.797  68.778  1.00  0.00    -0.243 NA 
HETATM    3  C   UNL     1      -6.775  16.174  69.276  1.00  0.00    -0.198 C  
HETATM    4  C   UNL     1      -7.696  18.205  68.483  1.00  0.00    -0.297 C  
HETATM    5  C   UNL     1      -6.828  14.796  68.692  1.00  0.00    -0.103 C  
HETATM    6  C   UNL     1      -8.178  14.332  67.955  1.00  0.00    -0.153 C  
HETATM    7  C   UNL     1      -7.265  13.128  67.376  1.00  0.00    -0.119 C  
HETATM    8  C   UNL     1      -9.310  14.019  66.880  1.00  0.00    -0.266 A  
HETATM    9  C   UNL     1     -10.253  15.028  66.757  1.00  0.00    -0.260 A  
HETATM   10  C   UNL     1     -11.479  14.842  66.099  1.00  0.00    -0.311 A  
HETATM   11  N   UNL     1      -9.798  16.229  67.238  1.00  0.00    -0.239 NA 
HETATM   12  C   UNL     1     -10.688  17.173  67.881  1.00  0.00    -0.355 C  
HETATM   13  C   UNL     1     -11.766  13.647  65.450  1.00  0.00    -0.347 A  
HETATM   14  C   UNL     1     -10.786  12.672  65.419  1.00  0.00    -0.287 A  
HETATM   15  C   UNL     1      -9.594  12.839  66.140  1.00  0.00    -0.214 A  
ENDROOT
BRANCH  14  16
HETATM   16  O   UNL     1     -10.924  11.431  64.756  1.00  0.00    -0.296 OA 
BRANCH  16  17
HETATM   17  C   UNL     1      -9.889  10.810  64.058  1.00  0.00    -0.332 C  
HETATM   18  N   UNL     1      -9.543   9.655  64.695  1.00  0.00    -0.436 N  
HETATM   19  O   UNL     1      -9.357  11.229  63.036  1.00  0.00    -0.317 OA 
HETATM   20  H   UNL     1     -10.044   9.404  65.548  1.00  0.00     0.000 HD 
HETATM   21  C   UNL     1      -8.509   8.775  64.224  1.00  0.00    -0.114 C  
ENDBRANCH  16  17
ENDBRANCH  14  16
TORSDOF 2
ENDMDL
MODEL       85
REMARK 921   NORMALIZED FREE ENERGY PREDICTED BY IDOCK:   -4.49 KCAL/MOL
REMARK 922        TOTAL FREE ENERGY PREDICTED BY IDOCK:   -5.22 KCAL/MOL
REMARK 923 INTER-LIGAND FREE ENERGY PREDICTED BY IDOCK:   -4.97 KCAL/MOL
REMARK 924 INTRA-LIGAND FREE ENERGY PREDICTED BY IDOCK:   -0.24 KCAL/MOL
REMARK 927      BINDING AFFINITY PREDICTED BY RF-SCORE:    0.00 PKD
ROOT
HETATM    1  C   UNL     1      -8.372  10.698  67.372  1.00  0.00    -0.119 C  
HETATM    2  N   UNL     1      -7.425   9.588  67.562  1.00  0.00    -0.091 NA 
HETATM    3  C   UNL     1      -8.162   8.499  68.099  1.00  0.00    -0.120 C  
HETATM    4  C   UNL     1      -6.723   9.176  66.348  1.00  0.00    -0.071 C  
HETATM    5  C   UNL     1      -9.409   9.140  68.629  1.00  0.00    -0.135 C  
HETATM    6  C   UNL     1      -9.472  10.744  68.692  1.00  0.00    -0.188 C  
HETATM    7  C   UNL     1     -11.059  10.519  68.913  1.00  0.00    -0.312 C  
HETATM    8  C   UNL     1      -9.714  12.284  68.369  1.00  0.00    -0.191 A  
HETATM    9  C   UNL     1      -8.621  12.909  67.788  1.00  0.00    -0.185 A  
HETATM   10  C   UNL     1      -8.508  14.304  67.694  1.00  0.00    -0.185 A  
HETATM   11  N   UNL     1      -7.747  12.014  67.225  1.00  0.00    -0.160 NA 
HETATM   12  C   UNL     1      -6.318  12.251  67.220  1.00  0.00    -0.150 C  
HETATM   13  C   UNL     1      -9.547  15.133  68.100  1.00  0.00    -0.205 A  
HETATM   14  C   UNL     1     -10.717  14.541  68.542  1.00  0.00    -0.250 A  
HETATM   15  C   UNL     1     -10.792  13.149  68.700  1.00  0.00    -0.287 A  
ENDROOT
BRANCH  14  16
HETATM   16  O   UNL     1     -11.868  15.259  68.939  1.00  0.00    -0.338 OA 
BRANCH  16  17
HETATM   17  C   UNL     1     -12.134  15.620  70.259  1.00  0.00    -0.385 C  
HETATM   18  N   UNL     1     -13.377  15.180  70.606  1.00  0.00    -0.686 N  
HETATM   19  O   UNL     1     -11.382  16.242  71.001  1.00  0.00    -0.389 OA 
HETATM   20  H   UNL     1     -13.927  14.680  69.907  1.00  0.00     0.000 HD 
HETATM   21  C   UNL     1     -13.951  15.387  71.908  1.00  0.00    -0.528 C  
ENDBRANCH  16  17
ENDBRANCH  14  16
TORSDOF 2
ENDMDL
MODEL       86
REMARK 921   NORMALIZED FREE ENERGY PREDICTED BY IDOCK:   -4.45 KCAL/MOL
REMARK 922        TOTAL FREE ENERGY PREDICTED BY IDOCK:   -5.16 KCAL/MOL
REMARK 923 INTER-LIGAND FREE ENERGY PREDICTED BY IDOCK:   -5.18 KCAL/MOL
REMARK 924 INTRA-LIGAND FREE ENERGY PREDICTED BY IDOCK:    0.02 KCAL/MOL
REMARK 927      BINDING AFFINITY PREDICTED BY RF-SCORE:    0.00 PKD
ROOT
HETATM    1  C   UNL     1      -7.338  19.036  67.573  1.00  0.00    -0.226 C  
HETATM    2  N   UNL     1      -6.632  20.313  67.761  1.00  0.00    -0.249 NA 
HETATM    3  C   UNL     1      -5.387  20.014  68.378  1.00  0.00    -0.205 C  
HETATM    4  C   UNL     1      -6.420  21.076  66.533  1.00  0.00    -0.272 C  
HETATM    5  C   UNL     1      -5.590  18.640  68.940  1.00  0.00    -0.200 C  
HETATM    6  C   UNL     1      -7.075  18.029  68.941  1.00  0.00    -0.268 C  
HETATM    7  C   UNL     1      -6.332  16.625  69.247  1.00  0.00    -0.202 C  
HETATM    8  C   UNL     1      -8.419  17.261  68.568  1.00  0.00    -0.267 A  
HETATM    9  C   UNL     1      -9.348  18.053  67.910  1.00  0.00    -0.264 A  
HETATM   10  C   UNL     1     -10.690  17.673  67.755  1.00  0.00    -0.336 A  
HETATM   11  N   UNL     1      -8.778  19.163  67.342  1.00  0.00    -0.286 NA 
HETATM   12  C   UNL     1      -9.490  20.421  67.259  1.00  0.00    -0.431 C  
HETATM   13  C   UNL     1     -11.133  16.426  68.176  1.00  0.00    -0.320 A  
HETATM   14  C   UNL     1     -10.201  15.546  68.697  1.00  0.00    -0.216 A  
HETATM   15  C   UNL     1      -8.878  15.961  68.916  1.00  0.00    -0.225 A  
ENDROOT
BRANCH  14  16
HETATM   16  O   UNL     1     -10.501  14.232  69.120  1.00  0.00    -0.229 OA 
BRANCH  16  17
HETATM   17  C   UNL     1     -10.453  13.121  68.279  1.00  0.00    -0.250 C  
HETATM   18  N   UNL     1     -10.248  13.533  66.996  1.00  0.00    -0.247 N  
HETATM   19  O   UNL     1     -10.582  11.951  68.625  1.00  0.00    -0.223 OA 
HETATM   20  H   UNL     1     -10.166  14.533  66.816  1.00  0.00     0.000 HD 
HETATM   21  C   UNL     1     -10.143  12.627  65.885  1.00  0.00    -0.264 C  
ENDBRANCH  16  17
ENDBRANCH  14  16
TORSDOF 2
ENDMDL
MODEL       87
REMARK 921   NORMALIZED FREE ENERGY PREDICTED BY IDOCK:   -4.44 KCAL/MOL
REMARK 922        TOTAL FREE ENERGY PREDICTED BY IDOCK:   -5.16 KCAL/MOL
REMARK 923 INTER-LIGAND FREE ENERGY PREDICTED BY IDOCK:   -4.92 KCAL/MOL
REMARK 924 INTRA-LIGAND FREE ENERGY PREDICTED BY IDOCK:   -0.24 KCAL/MOL
REMARK 927      BINDING AFFINITY PREDICTED BY RF-SCORE:    0.00 PKD
ROOT
HETATM    1  C   UNL     1     -10.584   7.541  71.274  1.00  0.00    -0.215 C  
HETATM    2  N   UNL     1     -11.132   6.745  72.383  1.00  0.00    -0.248 NA 
HETATM    3  C   UNL     1     -10.809   5.386  72.119  1.00  0.00    -0.214 C  
HETATM    4  C   UNL     1     -10.647   7.134  73.706  1.00  0.00    -0.260 C  
HETATM    5  C   UNL     1     -10.485   5.376  70.656  1.00  0.00    -0.329 C  
HETATM    6  C   UNL     1     -10.807   6.694  69.795  1.00  0.00    -0.337 C  
HETATM    7  C   UNL     1      -9.862   6.006  68.676  1.00  0.00    -0.166 C  
HETATM    8  C   UNL     1     -10.720   8.092  69.040  1.00  0.00    -0.099 A  
HETATM    9  C   UNL     1     -11.156   9.165  69.803  1.00  0.00    -0.125 A  
HETATM   10  C   UNL     1     -11.441  10.422  69.249  1.00  0.00    -0.281 A  
HETATM   11  N   UNL     1     -11.156   8.883  71.145  1.00  0.00    -0.263 NA 
HETATM   12  C   UNL     1     -12.153   9.441  72.036  1.00  0.00    -0.309 C  
HETATM   13  C   UNL     1     -11.204  10.679  67.904  1.00  0.00    -0.376 A  
HETATM   14  C   UNL     1     -10.623   9.681  67.143  1.00  0.00    -0.228 A  
HETATM   15  C   UNL     1     -10.410   8.406  67.688  1.00  0.00    -0.317 A  
ENDROOT
BRANCH  14  16
HETATM   16  O   UNL     1     -10.283   9.821  65.778  1.00  0.00    -0.264 OA 
BRANCH  16  17
HETATM   17  C   UNL     1      -8.974   9.777  65.300  1.00  0.00    -0.193 C  
HETATM   18  N   UNL     1      -8.862   8.776  64.381  1.00  0.00    -0.415 N  
HETATM   19  O   UNL     1      -8.056  10.511  65.649  1.00  0.00    -0.156 OA 
HETATM   20  H   UNL     1      -9.688   8.216  64.172  1.00  0.00     0.000 HD 
HETATM   21  C   UNL     1      -7.636   8.473  63.693  1.00  0.00    -0.127 C  
ENDBRANCH  16  17
ENDBRANCH  14  16
TORSDOF 2
ENDMDL
MODEL       88
REMARK 921   NORMALIZED FREE ENERGY PREDICTED BY IDOCK:   -4.43 KCAL/MOL
REMARK 922        TOTAL FREE ENERGY PREDICTED BY IDOCK:   -5.15 KCAL/MOL
REMARK 923 INTER-LIGAND FREE ENERGY PREDICTED BY IDOCK:   -5.06 KCAL/MOL
REMARK 924 INTRA-LIGAND FREE ENERGY PREDICTED BY IDOCK:   -0.09 KCAL/MOL
REMARK 927      BINDING AFFINITY PREDICTED BY RF-SCORE:    0.00 PKD
ROOT
HETATM    1  C   UNL     1     -11.944   9.183  70.512  1.00  0.00    -0.040 C  
HETATM    2  N   UNL     1     -12.202   8.328  71.681  1.00  0.00    -0.300 NA 
HETATM    3  C   UNL     1     -13.163   8.999  72.484  1.00  0.00    -0.406 C  
HETATM    4  C   UNL     1     -12.664   6.980  71.357  1.00  0.00    -0.374 C  
HETATM    5  C   UNL     1     -13.102  10.417  72.002  1.00  0.00    -0.521 C  
HETATM    6  C   UNL     1     -11.915  10.830  71.002  1.00  0.00    -0.409 C  
HETATM    7  C   UNL     1     -12.806  12.155  70.740  1.00  0.00    -0.109 C  
HETATM    8  C   UNL     1     -11.032  11.144  69.716  1.00  0.00    -0.216 A  
HETATM    9  C   UNL     1     -10.251  10.074  69.303  1.00  0.00    -0.214 A  
HETATM   10  C   UNL     1      -9.195  10.216  68.390  1.00  0.00    -0.133 A  
HETATM   11  N   UNL     1     -10.707   8.877  69.793  1.00  0.00    -0.231 NA 
HETATM   12  C   UNL     1      -9.797   7.805  70.141  1.00  0.00    -0.184 C  
HETATM   13  C   UNL     1      -8.941  11.436  67.777  1.00  0.00    -0.147 A  
HETATM   14  C   UNL     1      -9.795  12.490  68.045  1.00  0.00    -0.214 A  
HETATM   15  C   UNL     1     -10.802  12.359  69.014  1.00  0.00    -0.194 A  
ENDROOT
BRANCH  14  16
HETATM   16  O   UNL     1      -9.684  13.770  67.457  1.00  0.00    -0.221 OA 
BRANCH  16  17
HETATM   17  C   UNL     1     -10.610  14.794  67.655  1.00  0.00    -0.262 C  
HETATM   18  N   UNL     1     -10.082  15.724  68.501  1.00  0.00    -0.212 N  
HETATM   19  O   UNL     1     -11.730  14.857  67.161  1.00  0.00    -0.356 OA 
HETATM   20  H   UNL     1      -9.141  15.569  68.865  1.00  0.00     0.000 HD 
HETATM   21  C   UNL     1     -10.784  16.912  68.903  1.00  0.00    -0.321 C  
ENDBRANCH  16  17
ENDBRANCH  14  16
TORSDOF 2
ENDMDL
MODEL       89
REMARK 921   NORMALIZED FREE ENERGY PREDICTED BY IDOCK:   -4.41 KCAL/MOL
REMARK 922        TOTAL FREE ENERGY PREDICTED BY IDOCK:   -5.13 KCAL/MOL
REMARK 923 INTER-LIGAND FREE ENERGY PREDICTED BY IDOCK:   -4.90 KCAL/MOL
REMARK 924 INTRA-LIGAND FREE ENERGY PREDICTED BY IDOCK:   -0.23 KCAL/MOL
REMARK 927      BINDING AFFINITY PREDICTED BY RF-SCORE:    0.00 PKD
ROOT
HETATM    1  C   UNL     1      -9.001   3.391  72.159  1.00  0.00    -0.099 C  
HETATM    2  N   UNL     1      -7.699   2.855  72.587  1.00  0.00    -0.056 NA 
HETATM    3  C   UNL     1      -7.700   2.844  74.008  1.00  0.00    -0.060 C  
HETATM    4  C   UNL     1      -7.392   1.523  72.069  1.00  0.00    -0.038 C  
HETATM    5  C   UNL     1      -8.807   3.786  74.370  1.00  0.00    -0.095 C  
HETATM    6  C   UNL     1      -9.463   4.675  73.204  1.00  0.00    -0.140 C  
HETATM    7  C   UNL     1     -10.634   4.953  74.285  1.00  0.00    -0.321 C  
HETATM    8  C   UNL     1     -10.386   5.228  72.031  1.00  0.00    -0.273 A  
HETATM    9  C   UNL     1      -9.920   4.916  70.762  1.00  0.00    -0.222 A  
HETATM   10  C   UNL     1     -10.403   5.542  69.603  1.00  0.00    -0.359 A  
HETATM   11  N   UNL     1      -9.041   3.864  70.774  1.00  0.00    -0.096 NA 
HETATM   12  C   UNL     1      -7.928   3.796  69.849  1.00  0.00    -0.050 C  
HETATM   13  C   UNL     1     -11.454   6.449  69.668  1.00  0.00    -0.446 A  
HETATM   14  C   UNL     1     -12.049   6.670  70.896  1.00  0.00    -0.320 A  
HETATM   15  C   UNL     1     -11.512   6.096  72.059  1.00  0.00    -0.366 A  
ENDROOT
BRANCH  14  16
HETATM   16  O   UNL     1     -13.154   7.527  71.099  1.00  0.00    -0.284 OA 
BRANCH  16  17
HETATM   17  C   UNL     1     -13.046   8.814  71.625  1.00  0.00    -0.352 C  
HETATM   18  N   UNL     1     -12.616   9.666  70.651  1.00  0.00    -0.507 N  
HETATM   19  O   UNL     1     -13.289   9.142  72.781  1.00  0.00    -0.410 OA 
HETATM   20  H   UNL     1     -12.433   9.287  69.722  1.00  0.00     0.000 HD 
HETATM   21  C   UNL     1     -12.409  11.072  70.869  1.00  0.00    -0.402 C  
ENDBRANCH  16  17
ENDBRANCH  14  16
TORSDOF 2
ENDMDL
MODEL       90
REMARK 921   NORMALIZED FREE ENERGY PREDICTED BY IDOCK:   -4.41 KCAL/MOL
REMARK 922        TOTAL FREE ENERGY PREDICTED BY IDOCK:   -5.12 KCAL/MOL
REMARK 923 INTER-LIGAND FREE ENERGY PREDICTED BY IDOCK:   -5.07 KCAL/MOL
REMARK 924 INTRA-LIGAND FREE ENERGY PREDICTED BY IDOCK:   -0.06 KCAL/MOL
REMARK 927      BINDING AFFINITY PREDICTED BY RF-SCORE:    0.00 PKD
ROOT
HETATM    1  C   UNL     1      -8.838   8.374  66.304  1.00  0.00    -0.159 C  
HETATM    2  N   UNL     1      -8.708   8.894  64.934  1.00  0.00    -0.176 NA 
HETATM    3  C   UNL     1      -9.289  10.191  64.923  1.00  0.00    -0.254 C  
HETATM    4  C   UNL     1      -7.336   8.949  64.433  1.00  0.00    -0.099 C  
HETATM    5  C   UNL     1     -10.139  10.209  66.157  1.00  0.00    -0.314 C  
HETATM    6  C   UNL     1     -10.366   8.829  66.946  1.00  0.00    -0.344 C  
HETATM    7  C   UNL     1     -10.909   9.778  68.138  1.00  0.00    -0.264 C  
HETATM    8  C   UNL     1     -10.252   7.598  67.950  1.00  0.00    -0.250 A  
HETATM    9  C   UNL     1      -9.506   6.541  67.451  1.00  0.00    -0.124 A  
HETATM   10  C   UNL     1      -9.522   5.263  68.030  1.00  0.00    -0.147 A  
HETATM   11  N   UNL     1      -8.682   6.923  66.424  1.00  0.00    -0.136 NA 
HETATM   12  C   UNL     1      -8.384   6.034  65.320  1.00  0.00    -0.148 C  
HETATM   13  C   UNL     1     -10.224   5.021  69.205  1.00  0.00    -0.227 A  
HETATM   14  C   UNL     1     -10.854   6.089  69.818  1.00  0.00    -0.363 A  
HETATM   15  C   UNL     1     -10.893   7.344  69.193  1.00  0.00    -0.129 A  
ENDROOT
BRANCH  14  16
HETATM   16  O   UNL     1     -11.562   5.997  71.038  1.00  0.00    -0.253 OA 
BRANCH  16  17
HETATM   17  C   UNL     1     -12.183   7.083  71.653  1.00  0.00    -0.357 C  
HETATM   18  N   UNL     1     -13.472   7.173  71.218  1.00  0.00    -0.495 N  
HETATM   19  O   UNL     1     -11.662   7.850  72.455  1.00  0.00    -0.358 OA 
HETATM   20  H   UNL     1     -13.803   6.488  70.539  1.00  0.00     0.000 HD 
HETATM   21  C   UNL     1     -14.387   8.186  71.669  1.00  0.00    -0.469 C  
ENDBRANCH  16  17
ENDBRANCH  14  16
TORSDOF 2
ENDMDL
MODEL       91
REMARK 921   NORMALIZED FREE ENERGY PREDICTED BY IDOCK:   -4.41 KCAL/MOL
REMARK 922        TOTAL FREE ENERGY PREDICTED BY IDOCK:   -5.12 KCAL/MOL
REMARK 923 INTER-LIGAND FREE ENERGY PREDICTED BY IDOCK:   -4.91 KCAL/MOL
REMARK 924 INTRA-LIGAND FREE ENERGY PREDICTED BY IDOCK:   -0.21 KCAL/MOL
REMARK 927      BINDING AFFINITY PREDICTED BY RF-SCORE:    0.00 PKD
ROOT
HETATM    1  C   UNL     1      -8.688  10.103  64.523  1.00  0.00    -0.196 C  
HETATM    2  N   UNL     1      -8.666  10.147  63.053  1.00  0.00    -0.187 NA 
HETATM    3  C   UNL     1      -9.384  11.308  62.659  1.00  0.00    -0.276 C  
HETATM    4  C   UNL     1      -7.327  10.156  62.466  1.00  0.00    -0.135 C  
HETATM    5  C   UNL     1     -10.185  11.660  63.876  1.00  0.00    -0.409 C  
HETATM    6  C   UNL     1     -10.232  10.606  65.087  1.00  0.00    -0.368 C  
HETATM    7  C   UNL     1     -10.831  11.845  65.938  1.00  0.00    -0.342 C  
HETATM    8  C   UNL     1      -9.948   9.795  66.427  1.00  0.00    -0.314 A  
HETATM    9  C   UNL     1      -9.111   8.704  66.250  1.00  0.00    -0.186 A  
HETATM   10  C   UNL     1      -8.967   7.696  67.216  1.00  0.00    -0.134 A  
HETATM   11  N   UNL     1      -8.371   8.796  65.099  1.00  0.00    -0.158 NA 
HETATM   12  C   UNL     1      -8.020   7.620  64.329  1.00  0.00    -0.112 C  
HETATM   13  C   UNL     1      -9.595   7.796  68.451  1.00  0.00    -0.157 A  
HETATM   14  C   UNL     1     -10.314   8.946  68.724  1.00  0.00    -0.211 A  
HETATM   15  C   UNL     1     -10.512   9.913  67.727  1.00  0.00    -0.292 A  
ENDROOT
BRANCH  14  16
HETATM   16  O   UNL     1     -10.963   9.202  69.954  1.00  0.00    -0.235 OA 
BRANCH  16  17
HETATM   17  C   UNL     1     -10.405   8.905  71.197  1.00  0.00    -0.268 C  
HETATM   18  N   UNL     1     -11.234   8.061  71.875  1.00  0.00    -0.264 N  
HETATM   19  O   UNL     1      -9.342   9.335  71.629  1.00  0.00    -0.301 OA 
HETATM   20  H   UNL     1     -12.104   7.772  71.426  1.00  0.00     0.000 HD 
HETATM   21  C   UNL     1     -10.943   7.559  73.190  1.00  0.00    -0.367 C  
ENDBRANCH  16  17
ENDBRANCH  14  16
TORSDOF 2
ENDMDL
MODEL       92
REMARK 921   NORMALIZED FREE ENERGY PREDICTED BY IDOCK:   -4.40 KCAL/MOL
REMARK 922        TOTAL FREE ENERGY PREDICTED BY IDOCK:   -5.11 KCAL/MOL
REMARK 923 INTER-LIGAND FREE ENERGY PREDICTED BY IDOCK:   -4.88 KCAL/MOL
REMARK 924 INTRA-LIGAND FREE ENERGY PREDICTED BY IDOCK:   -0.23 KCAL/MOL
REMARK 927      BINDING AFFINITY PREDICTED BY RF-SCORE:    0.00 PKD
ROOT
HETATM    1  C   UNL     1      -9.945  16.884  67.429  1.00  0.00    -0.269 C  
HETATM    2  N   UNL     1      -8.932  17.949  67.362  1.00  0.00    -0.243 NA 
HETATM    3  C   UNL     1      -7.977  17.553  66.387  1.00  0.00    -0.285 C  
HETATM    4  C   UNL     1      -9.463  19.273  67.045  1.00  0.00    -0.322 C  
HETATM    5  C   UNL     1      -8.207  16.080  66.241  1.00  0.00    -0.220 C  
HETATM    6  C   UNL     1      -9.178  15.353  67.294  1.00  0.00    -0.217 C  
HETATM    7  C   UNL     1      -9.160  14.131  66.233  1.00  0.00    -0.072 C  
HETATM    8  C   UNL     1     -10.433  14.716  68.038  1.00  0.00    -0.236 A  
HETATM    9  C   UNL     1     -11.064  15.590  68.911  1.00  0.00    -0.282 A  
HETATM   10  C   UNL     1     -11.990  15.161  69.874  1.00  0.00    -0.372 A  
HETATM   11  N   UNL     1     -10.768  16.901  68.640  1.00  0.00    -0.348 NA 
HETATM   12  C   UNL     1     -10.659  17.887  69.696  1.00  0.00     0.662 C  
HETATM   13  C   UNL     1     -12.393  13.832  69.934  1.00  0.00    -0.334 A  
HETATM   14  C   UNL     1     -11.903  12.960  68.979  1.00  0.00    -0.306 A  
HETATM   15  C   UNL     1     -10.923  13.382  68.068  1.00  0.00    -0.265 A  
ENDROOT
BRANCH  14  16
HETATM   16  O   UNL     1     -12.264  11.596  68.892  1.00  0.00    -0.377 OA 
BRANCH  16  17
HETATM   17  C   UNL     1     -12.117  10.690  69.941  1.00  0.00    -0.299 C  
HETATM   18  N   UNL     1     -13.342  10.207  70.297  1.00  0.00    -0.466 N  
HETATM   19  O   UNL     1     -11.060  10.373  70.475  1.00  0.00    -0.311 OA 
HETATM   20  H   UNL     1     -14.161  10.546  69.793  1.00  0.00     0.000 HD 
HETATM   21  C   UNL     1     -13.534   9.245  71.347  1.00  0.00    -0.319 C  
ENDBRANCH  16  17
ENDBRANCH  14  16
TORSDOF 2
ENDMDL
MODEL       93
REMARK 921   NORMALIZED FREE ENERGY PREDICTED BY IDOCK:   -4.38 KCAL/MOL
REMARK 922        TOTAL FREE ENERGY PREDICTED BY IDOCK:   -5.09 KCAL/MOL
REMARK 923 INTER-LIGAND FREE ENERGY PREDICTED BY IDOCK:   -4.86 KCAL/MOL
REMARK 924 INTRA-LIGAND FREE ENERGY PREDICTED BY IDOCK:   -0.24 KCAL/MOL
REMARK 927      BINDING AFFINITY PREDICTED BY RF-SCORE:    0.00 PKD
ROOT
HETATM    1  C   UNL     1     -10.996  12.453  66.336  1.00  0.00    -0.276 C  
HETATM    2  N   UNL     1     -11.383  13.793  66.803  1.00  0.00    -0.319 NA 
HETATM    3  C   UNL     1     -12.447  14.234  65.969  1.00  0.00    -0.369 C  
HETATM    4  C   UNL     1     -11.783  13.855  68.208  1.00  0.00    -0.361 C  
HETATM    5  C   UNL     1     -12.347  13.345  64.767  1.00  0.00    -0.444 C  
HETATM    6  C   UNL     1     -11.051  12.406  64.620  1.00  0.00    -0.348 C  
HETATM    7  C   UNL     1     -11.922  11.646  63.487  1.00  0.00    -0.359 C  
HETATM    8  C   UNL     1     -10.020  11.195  64.671  1.00  0.00    -0.345 A  
HETATM    9  C   UNL     1      -9.180  11.226  65.773  1.00  0.00    -0.219 A  
HETATM   10  C   UNL     1      -8.021  10.440  65.864  1.00  0.00    -0.151 A  
HETATM   11  N   UNL     1      -9.675  12.009  66.784  1.00  0.00    -0.203 NA 
HETATM   12  C   UNL     1      -8.799  12.774  67.648  1.00  0.00    -0.189 C  
HETATM   13  C   UNL     1      -7.710   9.510  64.880  1.00  0.00    -0.115 A  
HETATM   14  C   UNL     1      -8.607   9.339  63.840  1.00  0.00    -0.192 A  
HETATM   15  C   UNL     1      -9.724  10.180  63.720  1.00  0.00    -0.203 A  
ENDROOT
BRANCH  14  16
HETATM   16  O   UNL     1      -8.443   8.398  62.799  1.00  0.00    -0.168 OA 
BRANCH  16  17
HETATM   17  C   UNL     1      -7.782   7.180  62.956  1.00  0.00    -0.119 C  
HETATM   18  N   UNL     1      -8.624   6.281  63.540  1.00  0.00    -0.312 N  
HETATM   19  O   UNL     1      -6.624   6.943  62.632  1.00  0.00    -0.046 OA 
HETATM   20  H   UNL     1      -9.567   6.585  63.780  1.00  0.00     0.000 HD 
HETATM   21  C   UNL     1      -8.247   4.925  63.834  1.00  0.00    -0.122 C  
ENDBRANCH  16  17
ENDBRANCH  14  16
TORSDOF 2
ENDMDL
MODEL       94
REMARK 921   NORMALIZED FREE ENERGY PREDICTED BY IDOCK:   -4.31 KCAL/MOL
REMARK 922        TOTAL FREE ENERGY PREDICTED BY IDOCK:   -5.02 KCAL/MOL
REMARK 923 INTER-LIGAND FREE ENERGY PREDICTED BY IDOCK:   -4.80 KCAL/MOL
REMARK 924 INTRA-LIGAND FREE ENERGY PREDICTED BY IDOCK:   -0.22 KCAL/MOL
REMARK 927      BINDING AFFINITY PREDICTED BY RF-SCORE:    0.00 PKD
ROOT
HETATM    1  C   UNL     1      -9.304  15.036  68.599  1.00  0.00    -0.202 C  
HETATM    2  N   UNL     1      -9.200  16.340  67.926  1.00  0.00    -0.200 NA 
HETATM    3  C   UNL     1     -10.492  16.933  67.965  1.00  0.00    -0.347 C  
HETATM    4  C   UNL     1      -8.209  17.245  68.505  1.00  0.00    -0.267 C  
HETATM    5  C   UNL     1     -11.404  15.779  68.251  1.00  0.00    -0.354 C  
HETATM    6  C   UNL     1     -10.797  14.294  68.183  1.00  0.00    -0.253 C  
HETATM    7  C   UNL     1     -12.158  13.869  68.949  1.00  0.00    -0.355 C  
HETATM    8  C   UNL     1     -10.136  12.888  68.533  1.00  0.00    -0.193 A  
HETATM    9  C   UNL     1      -8.764  12.854  68.335  1.00  0.00    -0.119 A  
HETATM   10  C   UNL     1      -8.035  11.656  68.297  1.00  0.00    -0.143 A  
HETATM   11  N   UNL     1      -8.211  14.109  68.305  1.00  0.00    -0.141 NA 
HETATM   12  C   UNL     1      -7.077  14.416  67.457  1.00  0.00    -0.175 C  
HETATM   13  C   UNL     1      -8.650  10.437  68.554  1.00  0.00    -0.134 A  
HETATM   14  C   UNL     1      -9.987  10.445  68.909  1.00  0.00    -0.199 A  
HETATM   15  C   UNL     1     -10.724  11.639  68.873  1.00  0.00    -0.244 A  
ENDROOT
BRANCH  14  16
HETATM   16  O   UNL     1     -10.725   9.287  69.243  1.00  0.00    -0.225 OA 
BRANCH  16  17
HETATM   17  C   UNL     1     -10.358   7.999  68.855  1.00  0.00    -0.209 C  
HETATM   18  N   UNL     1     -10.937   7.707  67.655  1.00  0.00    -0.521 N  
HETATM   19  O   UNL     1      -9.637   7.236  69.486  1.00  0.00    -0.155 OA 
HETATM   20  H   UNL     1     -11.530   8.412  67.218  1.00  0.00     0.000 HD 
HETATM   21  C   UNL     1     -10.751   6.453  66.976  1.00  0.00    -0.363 C  
ENDBRANCH  16  17
ENDBRANCH  14  16
TORSDOF 2
ENDMDL
MODEL       95
REMARK 921   NORMALIZED FREE ENERGY PREDICTED BY IDOCK:   -4.30 KCAL/MOL
REMARK 922        TOTAL FREE ENERGY PREDICTED BY IDOCK:   -5.01 KCAL/MOL
REMARK 923 INTER-LIGAND FREE ENERGY PREDICTED BY IDOCK:   -4.78 KCAL/MOL
REMARK 924 INTRA-LIGAND FREE ENERGY PREDICTED BY IDOCK:   -0.23 KCAL/MOL
REMARK 927      BINDING AFFINITY PREDICTED BY RF-SCORE:    0.00 PKD
ROOT
HETATM    1  C   UNL     1     -10.475   6.120  71.235  1.00  0.00    -0.224 C  
HETATM    2  N   UNL     1      -9.856   5.261  72.256  1.00  0.00    -0.165 NA 
HETATM    3  C   UNL     1      -9.618   6.074  73.396  1.00  0.00    -0.144 C  
HETATM    4  C   UNL     1     -10.649   4.089  72.625  1.00  0.00    -0.108 C  
HETATM    5  C   UNL     1      -9.683   7.471  72.857  1.00  0.00    -0.259 C  
HETATM    6  C   UNL     1      -9.732   7.670  71.264  1.00  0.00    -0.176 C  
HETATM    7  C   UNL     1     -10.176   9.184  71.621  1.00  0.00    -0.372 C  
HETATM    8  C   UNL     1     -10.202   7.866  69.755  1.00  0.00    -0.212 A  
HETATM    9  C   UNL     1     -10.310   6.678  69.048  1.00  0.00    -0.192 A  
HETATM   10  C   UNL     1     -10.419   6.638  67.649  1.00  0.00    -0.282 A  
HETATM   11  N   UNL     1     -10.416   5.588  69.872  1.00  0.00    -0.296 NA 
HETATM   12  C   UNL     1      -9.842   4.307  69.513  1.00  0.00    -0.154 C  
HETATM   13  C   UNL     1     -10.520   7.808  66.907  1.00  0.00    -0.388 A  
HETATM   14  C   UNL     1     -10.573   9.009  67.590  1.00  0.00    -0.231 A  
HETATM   15  C   UNL     1     -10.390   9.044  68.981  1.00  0.00    -0.233 A  
ENDROOT
BRANCH  14  16
HETATM   16  O   UNL     1     -10.723  10.270  66.968  1.00  0.00    -0.253 OA 
BRANCH  16  17
HETATM   17  C   UNL     1      -9.908  10.719  65.930  1.00  0.00    -0.239 C  
HETATM   18  N   UNL     1     -10.687  11.114  64.883  1.00  0.00    -0.283 N  
HETATM   19  O   UNL     1      -8.683  10.752  65.939  1.00  0.00    -0.170 OA 
HETATM   20  H   UNL     1     -11.700  11.035  64.975  1.00  0.00     0.000 HD 
HETATM   21  C   UNL     1     -10.151  11.637  63.655  1.00  0.00    -0.402 C  
ENDBRANCH  16  17
ENDBRANCH  14  16
TORSDOF 2
ENDMDL
MODEL       96
REMARK 921   NORMALIZED FREE ENERGY PREDICTED BY IDOCK:   -4.29 KCAL/MOL
REMARK 922        TOTAL FREE ENERGY PREDICTED BY IDOCK:   -4.99 KCAL/MOL
REMARK 923 INTER-LIGAND FREE ENERGY PREDICTED BY IDOCK:   -4.96 KCAL/MOL
REMARK 924 INTRA-LIGAND FREE ENERGY PREDICTED BY IDOCK:   -0.04 KCAL/MOL
REMARK 927      BINDING AFFINITY PREDICTED BY RF-SCORE:    0.00 PKD
ROOT
HETATM    1  C   UNL     1      -9.373  15.460  66.672  1.00  0.00    -0.263 C  
HETATM    2  N   UNL     1      -9.730  16.631  67.487  1.00  0.00    -0.244 NA 
HETATM    3  C   UNL     1      -9.180  16.420  68.781  1.00  0.00    -0.239 C  
HETATM    4  C   UNL     1      -9.274  17.910  66.945  1.00  0.00    -0.264 C  
HETATM    5  C   UNL     1      -8.913  14.946  68.818  1.00  0.00    -0.188 C  
HETATM    6  C   UNL     1      -9.494  14.037  67.628  1.00  0.00    -0.210 C  
HETATM    7  C   UNL     1      -8.483  12.911  68.201  1.00  0.00    -0.176 C  
HETATM    8  C   UNL     1      -9.685  13.210  66.281  1.00  0.00    -0.269 A  
HETATM    9  C   UNL     1     -10.277  13.939  65.260  1.00  0.00    -0.344 A  
HETATM   10  C   UNL     1     -10.801  13.337  64.106  1.00  0.00    -0.369 A  
HETATM   11  N   UNL     1     -10.179  15.292  65.461  1.00  0.00    -0.364 NA 
HETATM   12  C   UNL     1     -11.227  16.198  65.038  1.00  0.00    -0.220 C  
HETATM   13  C   UNL     1     -10.663  11.971  63.888  1.00  0.00    -0.450 A  
HETATM   14  C   UNL     1      -9.941  11.235  64.810  1.00  0.00    -0.277 A  
HETATM   15  C   UNL     1      -9.484  11.832  65.995  1.00  0.00    -0.245 A  
ENDROOT
BRANCH  14  16
HETATM   16  O   UNL     1      -9.681   9.851  64.690  1.00  0.00    -0.303 OA 
BRANCH  16  17
HETATM   17  C   UNL     1      -8.596   9.327  63.989  1.00  0.00    -0.186 C  
HETATM   18  N   UNL     1      -7.443   9.884  64.458  1.00  0.00    -0.136 N  
HETATM   19  O   UNL     1      -8.654   8.501  63.085  1.00  0.00    -0.113 OA 
HETATM   20  H   UNL     1      -7.507  10.571  65.209  1.00  0.00     0.000 HD 
HETATM   21  C   UNL     1      -6.141   9.549  63.947  1.00  0.00    -0.096 C  
ENDBRANCH  16  17
ENDBRANCH  14  16
TORSDOF 2
ENDMDL
MODEL       97
REMARK 921   NORMALIZED FREE ENERGY PREDICTED BY IDOCK:   -4.27 KCAL/MOL
REMARK 922        TOTAL FREE ENERGY PREDICTED BY IDOCK:   -4.97 KCAL/MOL
REMARK 923 INTER-LIGAND FREE ENERGY PREDICTED BY IDOCK:   -4.82 KCAL/MOL
REMARK 924 INTRA-LIGAND FREE ENERGY PREDICTED BY IDOCK:   -0.14 KCAL/MOL
REMARK 927      BINDING AFFINITY PREDICTED BY RF-SCORE:    0.00 PKD
ROOT
HETATM    1  C   UNL     1      -9.948  12.993  67.785  1.00  0.00    -0.227 C  
HETATM    2  N   UNL     1     -10.329  11.784  67.038  1.00  0.00    -0.210 NA 
HETATM    3  C   UNL     1      -9.158  10.989  66.906  1.00  0.00    -0.156 C  
HETATM    4  C   UNL     1     -11.405  11.006  67.650  1.00  0.00    -0.281 C  
HETATM    5  C   UNL     1      -8.043  11.953  67.177  1.00  0.00    -0.172 C  
HETATM    6  C   UNL     1      -8.394  13.517  67.273  1.00  0.00    -0.188 C  
HETATM    7  C   UNL     1      -6.920  13.651  67.925  1.00  0.00    -0.155 C  
HETATM    8  C   UNL     1      -8.775  14.976  67.783  1.00  0.00    -0.167 A  
HETATM    9  C   UNL     1     -10.134  15.247  67.727  1.00  0.00    -0.230 A  
HETATM   10  C   UNL     1     -10.652  16.546  67.844  1.00  0.00    -0.329 A  
HETATM   11  N   UNL     1     -10.892  14.106  67.666  1.00  0.00    -0.257 NA 
HETATM   12  C   UNL     1     -12.131  14.058  66.918  1.00  0.00    -0.430 C  
HETATM   13  C   UNL     1      -9.820  17.624  68.121  1.00  0.00    -0.318 A  
HETATM   14  C   UNL     1      -8.477  17.371  68.338  1.00  0.00    -0.263 A  
HETATM   15  C   UNL     1      -7.958  16.081  68.147  1.00  0.00    -0.142 A  
ENDROOT
BRANCH  14  16
HETATM   16  O   UNL     1      -7.528  18.362  68.675  1.00  0.00    -0.283 OA 
BRANCH  16  17
HETATM   17  C   UNL     1      -6.760  19.047  67.734  1.00  0.00    -0.206 C  
HETATM   18  N   UNL     1      -6.712  20.369  68.064  1.00  0.00    -0.293 N  
HETATM   19  O   UNL     1      -6.215  18.552  66.753  1.00  0.00    -0.166 OA 
HETATM   20  H   UNL     1      -7.212  20.678  68.897  1.00  0.00     0.000 HD 
HETATM   21  C   UNL     1      -5.992  21.347  67.295  1.00  0.00    -0.351 C  
ENDBRANCH  16  17
ENDBRANCH  14  16
TORSDOF 2
ENDMDL
MODEL       98
REMARK 921   NORMALIZED FREE ENERGY PREDICTED BY IDOCK:   -4.26 KCAL/MOL
REMARK 922        TOTAL FREE ENERGY PREDICTED BY IDOCK:   -4.96 KCAL/MOL
REMARK 923 INTER-LIGAND FREE ENERGY PREDICTED BY IDOCK:   -4.74 KCAL/MOL
REMARK 924 INTRA-LIGAND FREE ENERGY PREDICTED BY IDOCK:   -0.22 KCAL/MOL
REMARK 927      BINDING AFFINITY PREDICTED BY RF-SCORE:    0.00 PKD
ROOT
HETATM    1  C   UNL     1      -9.360   5.713  67.888  1.00  0.00    -0.107 C  
HETATM    2  N   UNL     1      -9.764   4.314  68.095  1.00  0.00    -0.136 NA 
HETATM    3  C   UNL     1      -9.144   3.546  67.072  1.00  0.00    -0.168 C  
HETATM    4  C   UNL     1      -9.427   3.773  69.410  1.00  0.00    -0.187 C  
HETATM    5  C   UNL     1      -8.770   4.566  66.040  1.00  0.00    -0.115 C  
HETATM    6  C   UNL     1      -9.336   6.060  66.205  1.00  0.00    -0.165 C  
HETATM    7  C   UNL     1      -8.221   6.439  65.095  1.00  0.00    -0.134 C  
HETATM    8  C   UNL     1      -9.525   7.597  66.571  1.00  0.00    -0.250 A  
HETATM    9  C   UNL     1     -10.213   7.806  67.757  1.00  0.00    -0.212 A  
HETATM   10  C   UNL     1     -10.742   9.055  68.116  1.00  0.00    -0.165 A  
HETATM   11  N   UNL     1     -10.205   6.699  68.566  1.00  0.00    -0.160 NA 
HETATM   12  C   UNL     1     -11.333   6.371  69.414  1.00  0.00    -0.377 C  
HETATM   13  C   UNL     1     -10.515  10.178  67.330  1.00  0.00    -0.310 A  
HETATM   14  C   UNL     1      -9.701  10.042  66.219  1.00  0.00    -0.214 A  
HETATM   15  C   UNL     1      -9.238   8.776  65.830  1.00  0.00    -0.282 A  
ENDROOT
BRANCH  14  16
HETATM   16  O   UNL     1      -9.347  11.107  65.361  1.00  0.00    -0.212 OA 
BRANCH  16  17
HETATM   17  C   UNL     1     -10.260  12.042  64.874  1.00  0.00    -0.270 C  
HETATM   18  N   UNL     1      -9.846  13.297  65.211  1.00  0.00    -0.513 N  
HETATM   19  O   UNL     1     -11.283  11.790  64.247  1.00  0.00    -0.334 OA 
HETATM   20  H   UNL     1      -8.983  13.395  65.745  1.00  0.00     0.000 HD 
HETATM   21  C   UNL     1     -10.566  14.487  64.850  1.00  0.00    -0.427 C  
ENDBRANCH  16  17
ENDBRANCH  14  16
TORSDOF 2
ENDMDL
MODEL       99
REMARK 921   NORMALIZED FREE ENERGY PREDICTED BY IDOCK:   -4.23 KCAL/MOL
REMARK 922        TOTAL FREE ENERGY PREDICTED BY IDOCK:   -4.92 KCAL/MOL
REMARK 923 INTER-LIGAND FREE ENERGY PREDICTED BY IDOCK:   -4.69 KCAL/MOL
REMARK 924 INTRA-LIGAND FREE ENERGY PREDICTED BY IDOCK:   -0.24 KCAL/MOL
REMARK 927      BINDING AFFINITY PREDICTED BY RF-SCORE:    0.00 PKD
ROOT
HETATM    1  C   UNL     1      -9.397  11.062  69.096  1.00  0.00    -0.021 C  
HETATM    2  N   UNL     1      -9.157   9.633  69.351  1.00  0.00    -0.175 NA 
HETATM    3  C   UNL     1      -7.775   9.395  69.115  1.00  0.00    -0.079 C  
HETATM    4  C   UNL     1      -9.527   9.185  70.693  1.00  0.00    -0.261 C  
HETATM    5  C   UNL     1      -7.346  10.576  68.299  1.00  0.00    -0.088 C  
HETATM    6  C   UNL     1      -8.479  11.564  67.733  1.00  0.00    -0.137 C  
HETATM    7  C   UNL     1      -7.243  12.568  67.448  1.00  0.00    -0.146 C  
HETATM    8  C   UNL     1      -9.519  12.752  67.535  1.00  0.00    -0.187 A  
HETATM    9  C   UNL     1     -10.795  12.456  67.990  1.00  0.00    -0.221 A  
HETATM   10  C   UNL     1     -11.917  13.229  67.653  1.00  0.00    -0.366 A  
HETATM   11  N   UNL     1     -10.802  11.415  68.882  1.00  0.00    -0.205 NA 
HETATM   12  C   UNL     1     -11.905  10.478  68.945  1.00  0.00    -0.066 C  
HETATM   13  C   UNL     1     -11.782  14.398  66.914  1.00  0.00    -0.422 A  
HETATM   14  C   UNL     1     -10.506  14.810  66.574  1.00  0.00    -0.291 A  
HETATM   15  C   UNL     1      -9.399  13.994  66.852  1.00  0.00    -0.266 A  
ENDROOT
BRANCH  14  16
HETATM   16  O   UNL     1     -10.219  16.000  65.868  1.00  0.00    -0.321 OA 
BRANCH  16  17
HETATM   17  C   UNL     1      -9.467  17.048  66.396  1.00  0.00    -0.271 C  
HETATM   18  N   UNL     1      -9.992  17.422  67.597  1.00  0.00    -0.289 N  
HETATM   19  O   UNL     1      -8.489  17.568  65.869  1.00  0.00    -0.533 OA 
HETATM   20  H   UNL     1     -10.817  16.929  67.940  1.00  0.00     0.000 HD 
HETATM   21  C   UNL     1      -9.441  18.476  68.404  1.00  0.00    -0.341 C  
ENDBRANCH  16  17
ENDBRANCH  14  16
TORSDOF 2
ENDMDL
MODEL      100
REMARK 921   NORMALIZED FREE ENERGY PREDICTED BY IDOCK:   -4.21 KCAL/MOL
REMARK 922        TOTAL FREE ENERGY PREDICTED BY IDOCK:   -4.90 KCAL/MOL
REMARK 923 INTER-LIGAND FREE ENERGY PREDICTED BY IDOCK:   -5.57 KCAL/MOL
REMARK 924 INTRA-LIGAND FREE ENERGY PREDICTED BY IDOCK:    0.67 KCAL/MOL
REMARK 927      BINDING AFFINITY PREDICTED BY RF-SCORE:    0.00 PKD
ROOT
HETATM    1  C   UNL     1      -9.142   9.518  68.860  1.00  0.00    -0.141 C  
HETATM    2  N   UNL     1      -8.898   8.095  69.143  1.00  0.00    -0.144 NA 
HETATM    3  C   UNL     1      -8.314   7.533  67.975  1.00  0.00    -0.124 C  
HETATM    4  C   UNL     1      -8.050   7.844  70.306  1.00  0.00    -0.115 C  
HETATM    5  C   UNL     1      -8.647   8.522  66.900  1.00  0.00    -0.121 C  
HETATM    6  C   UNL     1      -9.689   9.696  67.241  1.00  0.00    -0.213 C  
HETATM    7  C   UNL     1      -9.139  10.370  65.877  1.00  0.00    -0.192 C  
HETATM    8  C   UNL     1     -10.363  11.071  67.674  1.00  0.00    -0.223 A  
HETATM    9  C   UNL     1     -10.748  11.107  69.006  1.00  0.00    -0.225 A  
HETATM   10  C   UNL     1     -11.611  12.087  69.519  1.00  0.00    -0.389 A  
HETATM   11  N   UNL     1     -10.099  10.164  69.761  1.00  0.00    -0.238 NA 
HETATM   12  C   UNL     1     -10.749   9.508  70.877  1.00  0.00    -0.333 C  
HETATM   13  C   UNL     1     -12.052  13.137  68.722  1.00  0.00    -0.226 A  
HETATM   14  C   UNL     1     -11.566  13.222  67.430  1.00  0.00    -0.353 A  
HETATM   15  C   UNL     1     -10.762  12.199  66.905  1.00  0.00    -0.271 A  
ENDROOT
BRANCH  14  16
HETATM   16  O   UNL     1     -11.892  14.260  66.528  1.00  0.00    -0.385 OA 
BRANCH  16  17
HETATM   17  C   UNL     1     -12.189  14.048  65.182  1.00  0.00    -0.436 C  
HETATM   18  N   UNL     1     -12.425  12.721  64.975  1.00  0.00    -0.506 N  
HETATM   19  O   UNL     1     -12.227  14.908  64.310  1.00  0.00    -0.507 OA 
HETATM   20  H   UNL     1     -12.357  12.087  65.770  1.00  0.00     0.000 HD 
HETATM   21  C   UNL     1     -12.767  12.174  63.690  1.00  0.00    -0.432 C  
ENDBRANCH  16  17
ENDBRANCH  14  16
TORSDOF 2
ENDMDL
MODEL      101
REMARK 921   NORMALIZED FREE ENERGY PREDICTED BY IDOCK:   -4.21 KCAL/MOL
REMARK 922        TOTAL FREE ENERGY PREDICTED BY IDOCK:   -4.90 KCAL/MOL
REMARK 923 INTER-LIGAND FREE ENERGY PREDICTED BY IDOCK:   -5.06 KCAL/MOL
REMARK 924 INTRA-LIGAND FREE ENERGY PREDICTED BY IDOCK:    0.16 KCAL/MOL
REMARK 927      BINDING AFFINITY PREDICTED BY RF-SCORE:    0.00 PKD
ROOT
HETATM    1  C   UNL     1     -10.894  12.686  68.438  1.00  0.00    -0.245 C  
HETATM    2  N   UNL     1     -10.981  11.337  69.016  1.00  0.00    -0.222 NA 
HETATM    3  C   UNL     1     -12.011  11.369  69.996  1.00  0.00    -0.363 C  
HETATM    4  C   UNL     1     -11.240  10.276  68.045  1.00  0.00    -0.235 C  
HETATM    5  C   UNL     1     -12.183  12.830  70.282  1.00  0.00    -0.351 C  
HETATM    6  C   UNL     1     -11.104  13.856  69.679  1.00  0.00    -0.126 C  
HETATM    7  C   UNL     1     -12.196  14.988  70.061  1.00  0.00    -0.373 C  
HETATM    8  C   UNL     1     -10.318  14.894  68.763  1.00  0.00    -0.245 A  
HETATM    9  C   UNL     1      -9.395  14.300  67.916  1.00  0.00    -0.198 A  
HETATM   10  C   UNL     1      -8.401  15.031  67.248  1.00  0.00    -0.228 A  
HETATM   11  N   UNL     1      -9.646  12.965  67.725  1.00  0.00    -0.205 NA 
HETATM   12  C   UNL     1      -8.572  12.011  67.544  1.00  0.00    -0.167 C  
HETATM   13  C   UNL     1      -8.356  16.417  67.332  1.00  0.00    -0.183 A  
HETATM   14  C   UNL     1      -9.355  17.058  68.042  1.00  0.00    -0.245 A  
HETATM   15  C   UNL     1     -10.300  16.316  68.766  1.00  0.00    -0.261 A  
ENDROOT
BRANCH  14  16
HETATM   16  O   UNL     1      -9.460  18.462  68.170  1.00  0.00    -0.289 OA 
BRANCH  16  17
HETATM   17  C   UNL     1      -8.467  19.351  67.763  1.00  0.00    -0.310 C  
HETATM   18  N   UNL     1      -8.345  19.302  66.406  1.00  0.00    -0.312 N  
HETATM   19  O   UNL     1      -7.794  20.065  68.498  1.00  0.00    -0.242 OA 
HETATM   20  H   UNL     1      -8.948  18.662  65.888  1.00  0.00     0.000 HD 
HETATM   21  C   UNL     1      -7.408  20.106  65.669  1.00  0.00    -0.263 C  
ENDBRANCH  16  17
ENDBRANCH  14  16
TORSDOF 2
ENDMDL
MODEL      102
REMARK 921   NORMALIZED FREE ENERGY PREDICTED BY IDOCK:   -4.20 KCAL/MOL
REMARK 922        TOTAL FREE ENERGY PREDICTED BY IDOCK:   -4.89 KCAL/MOL
REMARK 923 INTER-LIGAND FREE ENERGY PREDICTED BY IDOCK:   -4.68 KCAL/MOL
REMARK 924 INTRA-LIGAND FREE ENERGY PREDICTED BY IDOCK:   -0.21 KCAL/MOL
REMARK 927      BINDING AFFINITY PREDICTED BY RF-SCORE:    0.00 PKD
ROOT
HETATM    1  C   UNL     1     -12.218   8.349  70.678  1.00  0.00     0.109 C  
HETATM    2  N   UNL     1     -12.696   9.039  71.887  1.00  0.00    -0.354 NA 
HETATM    3  C   UNL     1     -12.675  10.432  71.606  1.00  0.00    -0.455 C  
HETATM    4  C   UNL     1     -14.026   8.631  72.333  1.00  0.00    -0.371 C  
HETATM    5  C   UNL     1     -11.767  10.542  70.419  1.00  0.00    -0.434 C  
HETATM    6  C   UNL     1     -10.930   9.244  69.978  1.00  0.00    -0.254 C  
HETATM    7  C   UNL     1     -10.672  10.066  68.608  1.00  0.00    -0.256 C  
HETATM    8  C   UNL     1     -10.437   7.897  69.287  1.00  0.00    -0.221 A  
HETATM    9  C   UNL     1     -10.760   6.755  70.004  1.00  0.00    -0.247 A  
HETATM   10  C   UNL     1     -10.179   5.506  69.739  1.00  0.00    -0.336 A  
HETATM   11  N   UNL     1     -11.778   6.970  70.897  1.00  0.00    -0.326 NA 
HETATM   12  C   UNL     1     -11.826   6.284  72.172  1.00  0.00    -0.315 C  
HETATM   13  C   UNL     1      -9.310   5.335  68.668  1.00  0.00    -0.155 A  
HETATM   14  C   UNL     1      -9.085   6.417  67.835  1.00  0.00    -0.112 A  
HETATM   15  C   UNL     1      -9.612   7.678  68.150  1.00  0.00    -0.158 A  
ENDROOT
BRANCH  14  16
HETATM   16  O   UNL     1      -8.265   6.373  66.684  1.00  0.00    -0.108 OA 
BRANCH  16  17
HETATM   17  C   UNL     1      -8.171   5.264  65.845  1.00  0.00    -0.117 C  
HETATM   18  N   UNL     1      -9.352   5.096  65.184  1.00  0.00    -0.333 N  
HETATM   19  O   UNL     1      -7.191   4.540  65.716  1.00  0.00    -0.072 OA 
HETATM   20  H   UNL     1     -10.111   5.751  65.373  1.00  0.00     0.000 HD 
HETATM   21  C   UNL     1      -9.580   4.041  64.235  1.00  0.00    -0.166 C  
ENDBRANCH  16  17
ENDBRANCH  14  16
TORSDOF 2
ENDMDL
MODEL      103
REMARK 921   NORMALIZED FREE ENERGY PREDICTED BY IDOCK:   -4.20 KCAL/MOL
REMARK 922        TOTAL FREE ENERGY PREDICTED BY IDOCK:   -4.89 KCAL/MOL
REMARK 923 INTER-LIGAND FREE ENERGY PREDICTED BY IDOCK:   -4.74 KCAL/MOL
REMARK 924 INTRA-LIGAND FREE ENERGY PREDICTED BY IDOCK:   -0.15 KCAL/MOL
REMARK 927      BINDING AFFINITY PREDICTED BY RF-SCORE:    0.00 PKD
ROOT
HETATM    1  C   UNL     1      -8.815  10.533  64.773  1.00  0.00    -0.196 C  
HETATM    2  N   UNL     1      -8.350  10.108  63.444  1.00  0.00    -0.159 NA 
HETATM    3  C   UNL     1      -8.885  11.028  62.502  1.00  0.00    -0.315 C  
HETATM    4  C   UNL     1      -6.897  10.029  63.306  1.00  0.00    -0.131 C  
HETATM    5  C   UNL     1     -10.005  11.688  63.247  1.00  0.00    -0.442 C  
HETATM    6  C   UNL     1     -10.442  11.074  64.665  1.00  0.00    -0.398 C  
HETATM    7  C   UNL     1     -11.236  12.472  64.852  1.00  0.00    -0.344 C  
HETATM    8  C   UNL     1     -10.597  10.755  66.217  1.00  0.00    -0.257 A  
HETATM    9  C   UNL     1      -9.775   9.729  66.658  1.00  0.00    -0.201 A  
HETATM   10  C   UNL     1      -9.956   9.093  67.897  1.00  0.00    -0.228 A  
HETATM   11  N   UNL     1      -8.721   9.504  65.810  1.00  0.00    -0.140 NA 
HETATM   12  C   UNL     1      -8.186   8.174  65.603  1.00  0.00    -0.133 C  
HETATM   13  C   UNL     1     -10.923   9.535  68.791  1.00  0.00    -0.116 A  
HETATM   14  C   UNL     1     -11.660  10.655  68.452  1.00  0.00    -0.194 A  
HETATM   15  C   UNL     1     -11.523  11.238  67.183  1.00  0.00    -0.217 A  
ENDROOT
BRANCH  14  16
HETATM   16  O   UNL     1     -12.641  11.241  69.284  1.00  0.00    -0.289 OA 
BRANCH  16  17
HETATM   17  C   UNL     1     -12.343  12.094  70.346  1.00  0.00    -0.233 C  
HETATM   18  N   UNL     1     -11.850  13.267  69.858  1.00  0.00    -0.401 N  
HETATM   19  O   UNL     1     -12.489  11.839  71.536  1.00  0.00    -0.234 OA 
HETATM   20  H   UNL     1     -11.759  13.372  68.848  1.00  0.00     0.000 HD 
HETATM   21  C   UNL     1     -11.451  14.364  70.698  1.00  0.00    -0.115 C  
ENDBRANCH  16  17
ENDBRANCH  14  16
TORSDOF 2
ENDMDL
MODEL      104
REMARK 921   NORMALIZED FREE ENERGY PREDICTED BY IDOCK:   -4.19 KCAL/MOL
REMARK 922        TOTAL FREE ENERGY PREDICTED BY IDOCK:   -4.88 KCAL/MOL
REMARK 923 INTER-LIGAND FREE ENERGY PREDICTED BY IDOCK:   -4.80 KCAL/MOL
REMARK 924 INTRA-LIGAND FREE ENERGY PREDICTED BY IDOCK:   -0.08 KCAL/MOL
REMARK 927      BINDING AFFINITY PREDICTED BY RF-SCORE:    0.00 PKD
ROOT
HETATM    1  C   UNL     1      -9.635  10.294  68.923  1.00  0.00    -0.190 C  
HETATM    2  N   UNL     1      -9.153  11.490  68.217  1.00  0.00    -0.180 NA 
HETATM    3  C   UNL     1      -7.759  11.314  68.002  1.00  0.00    -0.108 C  
HETATM    4  C   UNL     1      -9.832  11.763  66.951  1.00  0.00    -0.203 C  
HETATM    5  C   UNL     1      -7.382  10.241  68.977  1.00  0.00    -0.092 C  
HETATM    6  C   UNL     1      -8.464   9.800  70.080  1.00  0.00    -0.229 C  
HETATM    7  C   UNL     1      -7.490   8.528  70.303  1.00  0.00    -0.064 C  
HETATM    8  C   UNL     1      -9.633   9.071  70.877  1.00  0.00    -0.328 A  
HETATM    9  C   UNL     1     -10.875   9.666  70.710  1.00  0.00    -0.330 A  
HETATM   10  C   UNL     1     -11.970   9.375  71.537  1.00  0.00    -0.456 A  
HETATM   11  N   UNL     1     -10.927  10.459  69.592  1.00  0.00    -0.258 NA 
HETATM   12  C   UNL     1     -11.722  11.669  69.559  1.00  0.00    -0.344 C  
HETATM   13  C   UNL     1     -11.885   8.393  72.516  1.00  0.00    -0.427 A  
HETATM   14  C   UNL     1     -10.710   7.668  72.610  1.00  0.00    -0.321 A  
HETATM   15  C   UNL     1      -9.598   8.015  71.829  1.00  0.00    -0.231 A  
ENDROOT
BRANCH  14  16
HETATM   16  O   UNL     1     -10.502   6.611  73.525  1.00  0.00    -0.260 OA 
BRANCH  16  17
HETATM   17  C   UNL     1     -10.787   5.277  73.239  1.00  0.00    -0.297 C  
HETATM   18  N   UNL     1      -9.851   4.789  72.375  1.00  0.00    -0.155 N  
HETATM   19  O   UNL     1     -11.731   4.632  73.682  1.00  0.00    -0.165 OA 
HETATM   20  H   UNL     1      -9.111   5.415  72.060  1.00  0.00     0.000 HD 
HETATM   21  C   UNL     1      -9.857   3.436  71.889  1.00  0.00    -0.167 C  
ENDBRANCH  16  17
ENDBRANCH  14  16
TORSDOF 2
ENDMDL
MODEL      105
REMARK 921   NORMALIZED FREE ENERGY PREDICTED BY IDOCK:   -4.19 KCAL/MOL
REMARK 922        TOTAL FREE ENERGY PREDICTED BY IDOCK:   -4.88 KCAL/MOL
REMARK 923 INTER-LIGAND FREE ENERGY PREDICTED BY IDOCK:   -4.65 KCAL/MOL
REMARK 924 INTRA-LIGAND FREE ENERGY PREDICTED BY IDOCK:   -0.22 KCAL/MOL
REMARK 927      BINDING AFFINITY PREDICTED BY RF-SCORE:    0.00 PKD
ROOT
HETATM    1  C   UNL     1      -9.746  12.693  68.119  1.00  0.00    -0.219 C  
HETATM    2  N   UNL     1      -9.722  13.299  66.779  1.00  0.00    -0.251 NA 
HETATM    3  C   UNL     1     -11.036  13.773  66.513  1.00  0.00    -0.299 C  
HETATM    4  C   UNL     1      -8.751  14.380  66.619  1.00  0.00    -0.099 C  
HETATM    5  C   UNL     1     -11.887  13.034  67.501  1.00  0.00    -0.408 C  
HETATM    6  C   UNL     1     -11.219  11.835  68.334  1.00  0.00    -0.307 C  
HETATM    7  C   UNL     1     -12.532  11.960  69.271  1.00  0.00     0.192 C  
HETATM    8  C   UNL     1     -10.486  10.958  69.443  1.00  0.00    -0.205 A  
HETATM    9  C   UNL     1      -9.121  10.825  69.234  1.00  0.00    -0.037 A  
HETATM   10  C   UNL     1      -8.342   9.871  69.905  1.00  0.00    -0.200 A  
HETATM   11  N   UNL     1      -8.624  11.797  68.403  1.00  0.00    -0.164 NA 
HETATM   12  C   UNL     1      -7.535  11.526  67.487  1.00  0.00    -0.116 C  
HETATM   13  C   UNL     1      -8.895   9.067  70.895  1.00  0.00    -0.294 A  
HETATM   14  C   UNL     1     -10.217   9.277  71.241  1.00  0.00    -0.313 A  
HETATM   15  C   UNL     1     -11.006  10.181  70.514  1.00  0.00    -0.380 A  
ENDROOT
BRANCH  14  16
HETATM   16  O   UNL     1     -10.893   8.567  72.259  1.00  0.00    -0.330 OA 
BRANCH  16  17
HETATM   17  C   UNL     1     -11.111   7.190  72.226  1.00  0.00    -0.254 C  
HETATM   18  N   UNL     1     -10.886   6.666  73.464  1.00  0.00    -0.481 N  
HETATM   19  O   UNL     1     -11.446   6.539  71.242  1.00  0.00    -0.290 OA 
HETATM   20  H   UNL     1     -10.600   7.297  74.213  1.00  0.00     0.000 HD 
HETATM   21  C   UNL     1     -11.032   5.268  73.766  1.00  0.00    -0.201 C  
ENDBRANCH  16  17
ENDBRANCH  14  16
TORSDOF 2
ENDMDL
MODEL      106
REMARK 921   NORMALIZED FREE ENERGY PREDICTED BY IDOCK:   -4.18 KCAL/MOL
REMARK 922        TOTAL FREE ENERGY PREDICTED BY IDOCK:   -4.86 KCAL/MOL
REMARK 923 INTER-LIGAND FREE ENERGY PREDICTED BY IDOCK:   -4.77 KCAL/MOL
REMARK 924 INTRA-LIGAND FREE ENERGY PREDICTED BY IDOCK:   -0.10 KCAL/MOL
REMARK 927      BINDING AFFINITY PREDICTED BY RF-SCORE:    0.00 PKD
ROOT
HETATM    1  C   UNL     1      -9.246  10.958  66.461  1.00  0.00    -0.171 C  
HETATM    2  N   UNL     1      -8.449   9.843  65.927  1.00  0.00    -0.127 NA 
HETATM    3  C   UNL     1      -7.324   9.688  66.783  1.00  0.00    -0.091 C  
HETATM    4  C   UNL     1      -9.174   8.580  65.809  1.00  0.00    -0.146 C  
HETATM    5  C   UNL     1      -7.256  10.991  67.520  1.00  0.00    -0.096 C  
HETATM    6  C   UNL     1      -8.195  12.196  67.024  1.00  0.00    -0.164 C  
HETATM    7  C   UNL     1      -7.821  12.869  68.447  1.00  0.00    -0.133 C  
HETATM    8  C   UNL     1      -9.391  13.229  66.827  1.00  0.00    -0.254 A  
HETATM    9  C   UNL     1     -10.276  12.869  65.821  1.00  0.00    -0.288 A  
HETATM   10  C   UNL     1     -11.216  13.763  65.286  1.00  0.00    -0.311 A  
HETATM   11  N   UNL     1     -10.199  11.536  65.511  1.00  0.00    -0.247 NA 
HETATM   12  C   UNL     1     -10.405  11.059  64.159  1.00  0.00    -0.369 C  
HETATM   13  C   UNL     1     -11.368  15.039  65.813  1.00  0.00    -0.279 A  
HETATM   14  C   UNL     1     -10.611  15.382  66.918  1.00  0.00    -0.309 A  
HETATM   15  C   UNL     1      -9.623  14.509  67.400  1.00  0.00    -0.212 A  
ENDROOT
BRANCH  14  16
HETATM   16  O   UNL     1     -10.698  16.625  67.585  1.00  0.00    -0.333 OA 
BRANCH  16  17
HETATM   17  C   UNL     1     -10.171  17.812  67.076  1.00  0.00    -0.346 C  
HETATM   18  N   UNL     1      -8.837  17.651  66.843  1.00  0.00    -0.239 N  
HETATM   19  O   UNL     1     -10.795  18.847  66.873  1.00  0.00    -0.403 OA 
HETATM   20  H   UNL     1      -8.413  16.748  67.058  1.00  0.00     0.000 HD 
HETATM   21  C   UNL     1      -8.000  18.691  66.309  1.00  0.00    -0.252 C  
ENDBRANCH  16  17
ENDBRANCH  14  16
TORSDOF 2
ENDMDL
MODEL      107
REMARK 921   NORMALIZED FREE ENERGY PREDICTED BY IDOCK:   -4.17 KCAL/MOL
REMARK 922        TOTAL FREE ENERGY PREDICTED BY IDOCK:   -4.86 KCAL/MOL
REMARK 923 INTER-LIGAND FREE ENERGY PREDICTED BY IDOCK:   -4.63 KCAL/MOL
REMARK 924 INTRA-LIGAND FREE ENERGY PREDICTED BY IDOCK:   -0.23 KCAL/MOL
REMARK 927      BINDING AFFINITY PREDICTED BY RF-SCORE:    0.00 PKD
ROOT
HETATM    1  C   UNL     1     -12.361  11.265  70.264  1.00  0.00    -0.307 C  
HETATM    2  N   UNL     1     -12.496  12.176  71.411  1.00  0.00    -0.196 NA 
HETATM    3  C   UNL     1     -12.615  13.492  70.885  1.00  0.00    -0.337 C  
HETATM    4  C   UNL     1     -13.623  11.879  72.294  1.00  0.00    -0.004 C  
HETATM    5  C   UNL     1     -12.095  13.363  69.486  1.00  0.00    -0.334 C  
HETATM    6  C   UNL     1     -11.369  11.994  69.066  1.00  0.00    -0.331 C  
HETATM    7  C   UNL     1     -11.552  12.540  67.554  1.00  0.00    -0.424 C  
HETATM    8  C   UNL     1     -11.043  10.534  68.521  1.00  0.00    -0.329 A  
HETATM    9  C   UNL     1     -11.096   9.551  69.499  1.00  0.00    -0.142 A  
HETATM   10  C   UNL     1     -10.565   8.266  69.309  1.00  0.00    -0.191 A  
HETATM   11  N   UNL     1     -11.820   9.945  70.595  1.00  0.00    -0.291 NA 
HETATM   12  C   UNL     1     -11.468   9.511  71.931  1.00  0.00    -0.147 C  
HETATM   13  C   UNL     1     -10.038   7.885  68.081  1.00  0.00    -0.228 A  
HETATM   14  C   UNL     1     -10.108   8.787  67.035  1.00  0.00    -0.265 A  
HETATM   15  C   UNL     1     -10.574  10.093  67.254  1.00  0.00    -0.321 A  
ENDROOT
BRANCH  14  16
HETATM   16  O   UNL     1      -9.656   8.517  65.724  1.00  0.00    -0.152 OA 
BRANCH  16  17
HETATM   17  C   UNL     1      -8.450   7.879  65.440  1.00  0.00    -0.119 C  
HETATM   18  N   UNL     1      -8.703   6.668  64.866  1.00  0.00    -0.346 N  
HETATM   19  O   UNL     1      -7.330   8.320  65.671  1.00  0.00    -0.070 OA 
HETATM   20  H   UNL     1      -9.675   6.391  64.727  1.00  0.00     0.000 HD 
HETATM   21  C   UNL     1      -7.667   5.763  64.446  1.00  0.00    -0.100 C  
ENDBRANCH  16  17
ENDBRANCH  14  16
TORSDOF 2
ENDMDL
MODEL      108
REMARK 921   NORMALIZED FREE ENERGY PREDICTED BY IDOCK:   -4.16 KCAL/MOL
REMARK 922        TOTAL FREE ENERGY PREDICTED BY IDOCK:   -4.85 KCAL/MOL
REMARK 923 INTER-LIGAND FREE ENERGY PREDICTED BY IDOCK:   -4.73 KCAL/MOL
REMARK 924 INTRA-LIGAND FREE ENERGY PREDICTED BY IDOCK:   -0.12 KCAL/MOL
REMARK 927      BINDING AFFINITY PREDICTED BY RF-SCORE:    0.00 PKD
ROOT
HETATM    1  C   UNL     1     -10.610  12.596  67.254  1.00  0.00    -0.228 C  
HETATM    2  N   UNL     1     -11.540  13.734  67.182  1.00  0.00    -0.343 NA 
HETATM    3  C   UNL     1     -12.034  13.951  68.498  1.00  0.00    -0.359 C  
HETATM    4  C   UNL     1     -10.955  14.963  66.651  1.00  0.00    -0.325 C  
HETATM    5  C   UNL     1     -11.735  12.666  69.207  1.00  0.00    -0.379 C  
HETATM    6  C   UNL     1     -11.233  11.414  68.334  1.00  0.00    -0.324 C  
HETATM    7  C   UNL     1     -10.813  10.783  69.764  1.00  0.00    -0.284 C  
HETATM    8  C   UNL     1     -10.352  10.329  67.573  1.00  0.00    -0.276 A  
HETATM    9  C   UNL     1     -10.127  10.632  66.238  1.00  0.00    -0.235 A  
HETATM   10  C   UNL     1      -9.637   9.691  65.320  1.00  0.00    -0.347 A  
HETATM   11  N   UNL     1     -10.321  11.962  65.966  1.00  0.00    -0.225 NA 
HETATM   12  C   UNL     1     -10.852  12.406  64.694  1.00  0.00    -0.309 C  
HETATM   13  C   UNL     1      -9.262   8.419  65.734  1.00  0.00    -0.175 A  
HETATM   14  C   UNL     1      -9.326   8.129  67.085  1.00  0.00    -0.145 A  
HETATM   15  C   UNL     1      -9.884   9.050  67.983  1.00  0.00    -0.197 A  
ENDROOT
BRANCH  14  16
HETATM   16  O   UNL     1      -8.931   6.895  67.650  1.00  0.00    -0.118 OA 
BRANCH  16  17
HETATM   17  C   UNL     1      -8.187   6.787  68.824  1.00  0.00    -0.121 C  
HETATM   18  N   UNL     1      -9.013   6.444  69.853  1.00  0.00    -0.142 N  
HETATM   19  O   UNL     1      -6.980   6.976  68.931  1.00  0.00    -0.073 OA 
HETATM   20  H   UNL     1     -10.006   6.321  69.656  1.00  0.00     0.000 HD 
HETATM   21  C   UNL     1      -8.553   6.246  71.201  1.00  0.00    -0.125 C  
ENDBRANCH  16  17
ENDBRANCH  14  16
TORSDOF 2
ENDMDL
MODEL      109
REMARK 921   NORMALIZED FREE ENERGY PREDICTED BY IDOCK:   -4.13 KCAL/MOL
REMARK 922        TOTAL FREE ENERGY PREDICTED BY IDOCK:   -4.82 KCAL/MOL
REMARK 923 INTER-LIGAND FREE ENERGY PREDICTED BY IDOCK:   -4.57 KCAL/MOL
REMARK 924 INTRA-LIGAND FREE ENERGY PREDICTED BY IDOCK:   -0.24 KCAL/MOL
REMARK 927      BINDING AFFINITY PREDICTED BY RF-SCORE:    0.00 PKD
ROOT
HETATM    1  C   UNL     1     -11.752   9.788  70.955  1.00  0.00    -0.370 C  
HETATM    2  N   UNL     1     -13.085  10.271  71.345  1.00  0.00    -0.401 NA 
HETATM    3  C   UNL     1     -13.586   9.368  72.322  1.00  0.00    -0.462 C  
HETATM    4  C   UNL     1     -13.108  11.639  71.861  1.00  0.00    -0.385 C  
HETATM    5  C   UNL     1     -12.738   8.146  72.144  1.00  0.00    -0.332 C  
HETATM    6  C   UNL     1     -11.768   8.072  70.865  1.00  0.00    -0.265 C  
HETATM    7  C   UNL     1     -11.074   6.842  71.656  1.00  0.00    -0.271 C  
HETATM    8  C   UNL     1     -10.526   8.163  69.874  1.00  0.00    -0.226 A  
HETATM    9  C   UNL     1     -10.494   9.333  69.130  1.00  0.00    -0.217 A  
HETATM   10  C   UNL     1      -9.671   9.491  68.004  1.00  0.00    -0.168 A  
HETATM   11  N   UNL     1     -11.254  10.328  69.688  1.00  0.00    -0.255 NA 
HETATM   12  C   UNL     1     -11.962  11.291  68.870  1.00  0.00    -0.310 C  
HETATM   13  C   UNL     1      -8.768   8.501  67.635  1.00  0.00    -0.136 A  
HETATM   14  C   UNL     1      -8.660   7.384  68.444  1.00  0.00    -0.124 A  
HETATM   15  C   UNL     1      -9.537   7.203  69.524  1.00  0.00    -0.154 A  
ENDROOT
BRANCH  14  16
HETATM   16  O   UNL     1      -7.753   6.325  68.216  1.00  0.00    -0.100 OA 
BRANCH  16  17
HETATM   17  C   UNL     1      -7.656   5.638  67.007  1.00  0.00    -0.096 C  
HETATM   18  N   UNL     1      -8.819   4.965  66.775  1.00  0.00    -0.110 N  
HETATM   19  O   UNL     1      -6.682   5.626  66.263  1.00  0.00    -0.054 OA 
HETATM   20  H   UNL     1      -9.565   5.034  67.467  1.00  0.00     0.000 HD 
HETATM   21  C   UNL     1      -9.044   4.162  65.604  1.00  0.00    -0.137 C  
ENDBRANCH  16  17
ENDBRANCH  14  16
TORSDOF 2
ENDMDL
MODEL      110
REMARK 921   NORMALIZED FREE ENERGY PREDICTED BY IDOCK:   -4.10 KCAL/MOL
REMARK 922        TOTAL FREE ENERGY PREDICTED BY IDOCK:   -4.78 KCAL/MOL
REMARK 923 INTER-LIGAND FREE ENERGY PREDICTED BY IDOCK:   -4.56 KCAL/MOL
REMARK 924 INTRA-LIGAND FREE ENERGY PREDICTED BY IDOCK:   -0.22 KCAL/MOL
REMARK 927      BINDING AFFINITY PREDICTED BY RF-SCORE:    0.00 PKD
ROOT
HETATM    1  C   UNL     1      -8.840   6.577  71.347  1.00  0.00    -0.137 C  
HETATM    2  N   UNL     1      -8.897   5.906  72.655  1.00  0.00    -0.122 NA 
HETATM    3  C   UNL     1      -9.964   4.968  72.595  1.00  0.00    -0.166 C  
HETATM    4  C   UNL     1      -7.658   5.240  73.050  1.00  0.00    -0.097 C  
HETATM    5  C   UNL     1     -10.780   5.432  71.427  1.00  0.00    -0.258 C  
HETATM    6  C   UNL     1     -10.437   6.860  70.778  1.00  0.00    -0.238 C  
HETATM    7  C   UNL     1     -11.360   6.351  69.550  1.00  0.00    -0.460 C  
HETATM    8  C   UNL     1      -9.853   8.036  69.878  1.00  0.00    -0.186 A  
HETATM    9  C   UNL     1      -8.721   8.635  70.412  1.00  0.00    -0.155 A  
HETATM   10  C   UNL     1      -8.223   9.861  69.947  1.00  0.00    -0.199 A  
HETATM   11  N   UNL     1      -8.100   7.840  71.341  1.00  0.00    -0.096 NA 
HETATM   12  C   UNL     1      -7.429   8.405  72.494  1.00  0.00    -0.077 C  
HETATM   13  C   UNL     1      -8.795  10.494  68.850  1.00  0.00    -0.166 A  
HETATM   14  C   UNL     1      -9.829   9.851  68.194  1.00  0.00    -0.147 A  
HETATM   15  C   UNL     1     -10.367   8.662  68.710  1.00  0.00    -0.228 A  
ENDROOT
BRANCH  14  16
HETATM   16  O   UNL     1     -10.470  10.355  67.040  1.00  0.00    -0.231 OA 
BRANCH  16  17
HETATM   17  C   UNL     1     -11.403  11.391  67.065  1.00  0.00    -0.236 C  
HETATM   18  N   UNL     1     -11.341  12.085  65.893  1.00  0.00    -0.341 N  
HETATM   19  O   UNL     1     -12.162  11.653  67.992  1.00  0.00    -0.551 OA 
HETATM   20  H   UNL     1     -10.664  11.788  65.190  1.00  0.00     0.000 HD 
HETATM   21  C   UNL     1     -12.182  13.213  65.600  1.00  0.00    -0.466 C  
ENDBRANCH  16  17
ENDBRANCH  14  16
TORSDOF 2
ENDMDL
MODEL      111
REMARK 921   NORMALIZED FREE ENERGY PREDICTED BY IDOCK:   -4.10 KCAL/MOL
REMARK 922        TOTAL FREE ENERGY PREDICTED BY IDOCK:   -4.77 KCAL/MOL
REMARK 923 INTER-LIGAND FREE ENERGY PREDICTED BY IDOCK:   -4.72 KCAL/MOL
REMARK 924 INTRA-LIGAND FREE ENERGY PREDICTED BY IDOCK:   -0.06 KCAL/MOL
REMARK 927      BINDING AFFINITY PREDICTED BY RF-SCORE:    0.00 PKD
ROOT
HETATM    1  C   UNL     1     -10.822   9.883  69.632  1.00  0.00    -0.253 C  
HETATM    2  N   UNL     1     -11.361  11.020  68.870  1.00  0.00    -0.254 NA 
HETATM    3  C   UNL     1     -12.132  11.800  69.775  1.00  0.00    -0.269 C  
HETATM    4  C   UNL     1     -10.348  11.850  68.221  1.00  0.00    -0.201 C  
HETATM    5  C   UNL     1     -12.394  10.865  70.916  1.00  0.00    -0.501 C  
HETATM    6  C   UNL     1     -12.013   9.315  70.733  1.00  0.00    -0.269 C  
HETATM    7  C   UNL     1     -12.196   9.240  72.339  1.00  0.00    -0.203 C  
HETATM    8  C   UNL     1     -11.269   7.908  70.731  1.00  0.00    -0.274 A  
HETATM    9  C   UNL     1     -10.604   7.632  69.546  1.00  0.00    -0.227 A  
HETATM   10  C   UNL     1     -10.139   6.349  69.219  1.00  0.00    -0.203 A  
HETATM   11  N   UNL     1     -10.357   8.764  68.812  1.00  0.00    -0.214 NA 
HETATM   12  C   UNL     1     -10.370   8.745  67.363  1.00  0.00    -0.280 C  
HETATM   13  C   UNL     1     -10.243   5.301  70.125  1.00  0.00    -0.350 A  
HETATM   14  C   UNL     1     -10.761   5.572  71.379  1.00  0.00    -0.221 A  
HETATM   15  C   UNL     1     -11.289   6.839  71.669  1.00  0.00    -0.305 A  
ENDROOT
BRANCH  14  16
HETATM   16  O   UNL     1     -10.881   4.615  72.411  1.00  0.00    -0.162 OA 
BRANCH  16  17
HETATM   17  C   UNL     1      -9.950   4.468  73.439  1.00  0.00    -0.150 C  
HETATM   18  N   UNL     1      -8.723   4.867  72.999  1.00  0.00    -0.114 N  
HETATM   19  O   UNL     1     -10.182   4.041  74.564  1.00  0.00    -0.173 OA 
HETATM   20  H   UNL     1      -8.637   5.197  72.037  1.00  0.00     0.000 HD 
HETATM   21  C   UNL     1      -7.545   4.846  73.822  1.00  0.00    -0.091 C  
ENDBRANCH  16  17
ENDBRANCH  14  16
TORSDOF 2
ENDMDL
MODEL      112
REMARK 921   NORMALIZED FREE ENERGY PREDICTED BY IDOCK:   -4.10 KCAL/MOL
REMARK 922        TOTAL FREE ENERGY PREDICTED BY IDOCK:   -4.77 KCAL/MOL
REMARK 923 INTER-LIGAND FREE ENERGY PREDICTED BY IDOCK:   -4.56 KCAL/MOL
REMARK 924 INTRA-LIGAND FREE ENERGY PREDICTED BY IDOCK:   -0.22 KCAL/MOL
REMARK 927      BINDING AFFINITY PREDICTED BY RF-SCORE:    0.00 PKD
ROOT
HETATM    1  C   UNL     1     -10.438  13.461  65.515  1.00  0.00    -0.291 C  
HETATM    2  N   UNL     1     -11.576  14.373  65.707  1.00  0.00    -0.349 NA 
HETATM    3  C   UNL     1     -11.558  14.780  67.069  1.00  0.00    -0.339 C  
HETATM    4  C   UNL     1     -11.571  15.542  64.829  1.00  0.00    -0.256 C  
HETATM    5  C   UNL     1     -10.696  13.752  67.735  1.00  0.00    -0.254 C  
HETATM    6  C   UNL     1     -10.276  12.449  66.895  1.00  0.00    -0.238 C  
HETATM    7  C   UNL     1      -9.190  12.228  68.074  1.00  0.00    -0.195 C  
HETATM    8  C   UNL     1      -9.518  11.398  65.971  1.00  0.00    -0.245 A  
HETATM    9  C   UNL     1      -9.911  11.441  64.641  1.00  0.00    -0.268 A  
HETATM   10  C   UNL     1      -9.598  10.424  63.726  1.00  0.00    -0.366 A  
HETATM   11  N   UNL     1     -10.522  12.624  64.316  1.00  0.00    -0.371 NA 
HETATM   12  C   UNL     1     -11.598  12.681  63.348  1.00  0.00    -0.469 C  
HETATM   13  C   UNL     1      -8.785   9.359  64.094  1.00  0.00    -0.224 A  
HETATM   14  C   UNL     1      -8.245   9.361  65.367  1.00  0.00    -0.125 A  
HETATM   15  C   UNL     1      -8.623  10.342  66.297  1.00  0.00    -0.147 A  
ENDROOT
BRANCH  14  16
HETATM   16  O   UNL     1      -7.366   8.369  65.858  1.00  0.00    -0.071 OA 
BRANCH  16  17
HETATM   17  C   UNL     1      -7.204   7.119  65.262  1.00  0.00    -0.073 C  
HETATM   18  N   UNL     1      -8.137   6.257  65.758  1.00  0.00    -0.119 N  
HETATM   19  O   UNL     1      -6.355   6.824  64.428  1.00  0.00    -0.034 OA 
HETATM   20  H   UNL     1      -8.792   6.603  66.459  1.00  0.00     0.000 HD 
HETATM   21  C   UNL     1      -8.243   4.885  65.340  1.00  0.00    -0.121 C  
ENDBRANCH  16  17
ENDBRANCH  14  16
TORSDOF 2
ENDMDL
MODEL      113
REMARK 921   NORMALIZED FREE ENERGY PREDICTED BY IDOCK:   -4.07 KCAL/MOL
REMARK 922        TOTAL FREE ENERGY PREDICTED BY IDOCK:   -4.75 KCAL/MOL
REMARK 923 INTER-LIGAND FREE ENERGY PREDICTED BY IDOCK:   -4.57 KCAL/MOL
REMARK 924 INTRA-LIGAND FREE ENERGY PREDICTED BY IDOCK:   -0.18 KCAL/MOL
REMARK 927      BINDING AFFINITY PREDICTED BY RF-SCORE:    0.00 PKD
ROOT
HETATM    1  C   UNL     1     -10.754   8.288  69.921  1.00  0.00    -0.234 C  
HETATM    2  N   UNL     1     -11.743   7.887  70.933  1.00  0.00    -0.282 NA 
HETATM    3  C   UNL     1     -11.684   6.470  71.034  1.00  0.00    -0.343 C  
HETATM    4  C   UNL     1     -11.549   8.497  72.247  1.00  0.00    -0.374 C  
HETATM    5  C   UNL     1     -10.997   6.052  69.770  1.00  0.00    -0.471 C  
HETATM    6  C   UNL     1     -10.767   7.157  68.627  1.00  0.00    -0.198 C  
HETATM    7  C   UNL     1      -9.745   6.071  67.999  1.00  0.00    -0.126 C  
HETATM    8  C   UNL     1     -10.163   8.297  67.694  1.00  0.00    -0.294 A  
HETATM    9  C   UNL     1     -10.527   9.579  68.076  1.00  0.00    -0.230 A  
HETATM   10  C   UNL     1     -10.357  10.694  67.242  1.00  0.00    -0.265 A  
HETATM   11  N   UNL     1     -10.947   9.635  69.380  1.00  0.00    -0.219 NA 
HETATM   12  C   UNL     1     -11.987  10.550  69.803  1.00  0.00    -0.238 C  
HETATM   13  C   UNL     1      -9.721  10.576  66.012  1.00  0.00    -0.257 A  
HETATM   14  C   UNL     1      -9.205   9.341  65.663  1.00  0.00    -0.231 A  
HETATM   15  C   UNL     1      -9.444   8.218  66.470  1.00  0.00    -0.284 A  
ENDROOT
BRANCH  14  16
HETATM   16  O   UNL     1      -8.494   9.087  64.468  1.00  0.00    -0.167 OA 
BRANCH  16  17
HETATM   17  C   UNL     1      -7.104   9.124  64.375  1.00  0.00    -0.091 C  
HETATM   18  N   UNL     1      -6.744   9.764  63.226  1.00  0.00    -0.112 N  
HETATM   19  O   UNL     1      -6.316   8.651  65.186  1.00  0.00    -0.059 OA 
HETATM   20  H   UNL     1      -7.481  10.111  62.613  1.00  0.00     0.000 HD 
HETATM   21  C   UNL     1      -5.376   9.974  62.837  1.00  0.00    -0.099 C  
ENDBRANCH  16  17
ENDBRANCH  14  16
TORSDOF 2
ENDMDL
MODEL      114
REMARK 921   NORMALIZED FREE ENERGY PREDICTED BY IDOCK:   -4.07 KCAL/MOL
REMARK 922        TOTAL FREE ENERGY PREDICTED BY IDOCK:   -4.75 KCAL/MOL
REMARK 923 INTER-LIGAND FREE ENERGY PREDICTED BY IDOCK:   -4.52 KCAL/MOL
REMARK 924 INTRA-LIGAND FREE ENERGY PREDICTED BY IDOCK:   -0.23 KCAL/MOL
REMARK 927      BINDING AFFINITY PREDICTED BY RF-SCORE:    0.00 PKD
ROOT
HETATM    1  C   UNL     1     -10.138  13.875  67.645  1.00  0.00    -0.241 C  
HETATM    2  N   UNL     1     -10.498  14.773  66.536  1.00  0.00    -0.285 NA 
HETATM    3  C   UNL     1     -11.756  14.337  66.039  1.00  0.00    -0.379 C  
HETATM    4  C   UNL     1     -10.558  16.189  66.896  1.00  0.00    -0.283 C  
HETATM    5  C   UNL     1     -11.880  12.939  66.563  1.00  0.00    -0.473 C  
HETATM    6  C   UNL     1     -10.594  12.266  67.249  1.00  0.00    -0.249 C  
HETATM    7  C   UNL     1     -11.651  11.171  67.798  1.00  0.00    -0.303 C  
HETATM    8  C   UNL     1      -9.497  11.757  68.284  1.00  0.00    -0.193 A  
HETATM    9  C   UNL     1      -8.424  12.623  68.430  1.00  0.00    -0.121 A  
HETATM   10  C   UNL     1      -7.224  12.245  69.051  1.00  0.00    -0.023 A  
HETATM   11  N   UNL     1      -8.721  13.895  68.010  1.00  0.00    -0.173 NA 
HETATM   12  C   UNL     1      -7.722  14.740  67.387  1.00  0.00    -0.204 C  
HETATM   13  C   UNL     1      -7.090  10.995  69.643  1.00  0.00    -0.089 A  
HETATM   14  C   UNL     1      -8.192  10.159  69.655  1.00  0.00    -0.165 A  
HETATM   15  C   UNL     1      -9.362  10.517  68.968  1.00  0.00    -0.205 A  
ENDROOT
BRANCH  14  16
HETATM   16  O   UNL     1      -8.212   8.883  70.262  1.00  0.00    -0.104 OA 
BRANCH  16  17
HETATM   17  C   UNL     1      -8.434   8.679  71.623  1.00  0.00    -0.167 C  
HETATM   18  N   UNL     1      -9.680   8.155  71.804  1.00  0.00    -0.175 N  
HETATM   19  O   UNL     1      -7.646   8.934  72.526  1.00  0.00    -0.356 OA 
HETATM   20  H   UNL     1     -10.261   7.991  70.982  1.00  0.00     0.000 HD 
HETATM   21  C   UNL     1     -10.214   7.822  73.097  1.00  0.00    -0.335 C  
ENDBRANCH  16  17
ENDBRANCH  14  16
TORSDOF 2
ENDMDL
MODEL      115
REMARK 921   NORMALIZED FREE ENERGY PREDICTED BY IDOCK:   -4.06 KCAL/MOL
REMARK 922        TOTAL FREE ENERGY PREDICTED BY IDOCK:   -4.73 KCAL/MOL
REMARK 923 INTER-LIGAND FREE ENERGY PREDICTED BY IDOCK:   -4.84 KCAL/MOL
REMARK 924 INTRA-LIGAND FREE ENERGY PREDICTED BY IDOCK:    0.11 KCAL/MOL
REMARK 927      BINDING AFFINITY PREDICTED BY RF-SCORE:    0.00 PKD
ROOT
HETATM    1  C   UNL     1      -8.498   8.740  64.622  1.00  0.00    -0.151 C  
HETATM    2  N   UNL     1      -8.327   7.399  64.043  1.00  0.00     0.067 NA 
HETATM    3  C   UNL     1      -7.987   7.576  62.674  1.00  0.00    -0.127 C  
HETATM    4  C   UNL     1      -7.323   6.573  64.712  1.00  0.00    -0.077 C  
HETATM    5  C   UNL     1      -8.410   8.984  62.382  1.00  0.00    -0.191 C  
HETATM    6  C   UNL     1      -9.286   9.759  63.484  1.00  0.00    -0.227 C  
HETATM    7  C   UNL     1      -8.913  11.079  62.626  1.00  0.00    -0.355 C  
HETATM    8  C   UNL     1      -9.768  10.662  64.703  1.00  0.00    -0.360 A  
HETATM    9  C   UNL     1      -9.926   9.957  65.887  1.00  0.00    -0.277 A  
HETATM   10  C   UNL     1     -10.614  10.481  66.993  1.00  0.00    -0.310 A  
HETATM   11  N   UNL     1      -9.241   8.770  65.883  1.00  0.00    -0.218 NA 
HETATM   12  C   UNL     1      -9.751   7.598  66.565  1.00  0.00    -0.181 C  
HETATM   13  C   UNL     1     -11.093  11.785  66.983  1.00  0.00    -0.358 A  
HETATM   14  C   UNL     1     -10.819  12.571  65.878  1.00  0.00    -0.269 A  
HETATM   15  C   UNL     1     -10.195  12.017  64.750  1.00  0.00    -0.311 A  
ENDROOT
BRANCH  14  16
HETATM   16  O   UNL     1     -11.202  13.926  65.754  1.00  0.00    -0.299 OA 
BRANCH  16  17
HETATM   17  C   UNL     1     -11.138  14.845  66.801  1.00  0.00    -0.335 C  
HETATM   18  N   UNL     1     -10.680  16.038  66.327  1.00  0.00    -0.276 N  
HETATM   19  O   UNL     1     -11.436  14.626  67.969  1.00  0.00    -0.295 OA 
HETATM   20  H   UNL     1     -10.450  16.110  65.336  1.00  0.00     0.000 HD 
HETATM   21  C   UNL     1     -10.505  17.200  67.156  1.00  0.00    -0.291 C  
ENDBRANCH  16  17
ENDBRANCH  14  16
TORSDOF 2
ENDMDL
MODEL      116
REMARK 921   NORMALIZED FREE ENERGY PREDICTED BY IDOCK:   -4.05 KCAL/MOL
REMARK 922        TOTAL FREE ENERGY PREDICTED BY IDOCK:   -4.73 KCAL/MOL
REMARK 923 INTER-LIGAND FREE ENERGY PREDICTED BY IDOCK:   -4.55 KCAL/MOL
REMARK 924 INTRA-LIGAND FREE ENERGY PREDICTED BY IDOCK:   -0.18 KCAL/MOL
REMARK 927      BINDING AFFINITY PREDICTED BY RF-SCORE:    0.00 PKD
ROOT
HETATM    1  C   UNL     1     -12.176   9.344  70.989  1.00  0.00    -0.279 C  
HETATM    2  N   UNL     1     -12.943   9.781  72.165  1.00  0.00    -0.409 NA 
HETATM    3  C   UNL     1     -13.342  11.124  71.927  1.00  0.00    -0.304 C  
HETATM    4  C   UNL     1     -14.108   8.952  72.472  1.00  0.00    -0.367 C  
HETATM    5  C   UNL     1     -12.423  11.579  70.835  1.00  0.00    -0.464 C  
HETATM    6  C   UNL     1     -11.184  10.635  70.440  1.00  0.00    -0.334 C  
HETATM    7  C   UNL     1     -11.089  11.573  69.124  1.00  0.00    -0.316 C  
HETATM    8  C   UNL     1     -10.236   9.551  69.761  1.00  0.00    -0.249 A  
HETATM    9  C   UNL     1     -10.238   8.327  70.413  1.00  0.00    -0.201 A  
HETATM   10  C   UNL     1      -9.271   7.339  70.169  1.00  0.00    -0.152 A  
HETATM   11  N   UNL     1     -11.341   8.161  71.210  1.00  0.00    -0.259 NA 
HETATM   12  C   UNL     1     -11.272   7.424  72.455  1.00  0.00    -0.317 C  
HETATM   13  C   UNL     1      -8.310   7.510  69.181  1.00  0.00    -0.135 A  
HETATM   14  C   UNL     1      -8.371   8.653  68.404  1.00  0.00    -0.127 A  
HETATM   15  C   UNL     1      -9.295   9.666  68.702  1.00  0.00    -0.143 A  
ENDROOT
BRANCH  14  16
HETATM   16  O   UNL     1      -7.489   8.933  67.335  1.00  0.00    -0.084 OA 
BRANCH  16  17
HETATM   17  C   UNL     1      -7.754   8.598  66.008  1.00  0.00    -0.100 C  
HETATM   18  N   UNL     1      -7.531   7.266  65.824  1.00  0.00    -0.081 N  
HETATM   19  O   UNL     1      -8.121   9.372  65.131  1.00  0.00    -0.117 OA 
HETATM   20  H   UNL     1      -7.215   6.713  66.621  1.00  0.00     0.000 HD 
HETATM   21  C   UNL     1      -7.720   6.602  64.563  1.00  0.00    -0.112 C  
ENDBRANCH  16  17
ENDBRANCH  14  16
TORSDOF 2
ENDMDL
MODEL      117
REMARK 921   NORMALIZED FREE ENERGY PREDICTED BY IDOCK:   -4.04 KCAL/MOL
REMARK 922        TOTAL FREE ENERGY PREDICTED BY IDOCK:   -4.71 KCAL/MOL
REMARK 923 INTER-LIGAND FREE ENERGY PREDICTED BY IDOCK:   -4.47 KCAL/MOL
REMARK 924 INTRA-LIGAND FREE ENERGY PREDICTED BY IDOCK:   -0.24 KCAL/MOL
REMARK 927      BINDING AFFINITY PREDICTED BY RF-SCORE:    0.00 PKD
ROOT
HETATM    1  C   UNL     1     -10.100  10.111  66.708  1.00  0.00    -0.219 C  
HETATM    2  N   UNL     1     -10.514  10.396  65.326  1.00  0.00    -0.196 NA 
HETATM    3  C   UNL     1     -11.136  11.675  65.332  1.00  0.00    -0.239 C  
HETATM    4  C   UNL     1      -9.427  10.367  64.348  1.00  0.00    -0.287 C  
HETATM    5  C   UNL     1     -11.473  11.898  66.775  1.00  0.00    -0.384 C  
HETATM    6  C   UNL     1     -11.310  10.668  67.794  1.00  0.00    -0.320 C  
HETATM    7  C   UNL     1     -11.434  11.802  68.942  1.00  0.00    -0.357 C  
HETATM    8  C   UNL     1     -10.761   9.620  68.860  1.00  0.00    -0.230 A  
HETATM    9  C   UNL     1     -10.188   8.494  68.289  1.00  0.00    -0.205 A  
HETATM   10  C   UNL     1      -9.912   7.330  69.023  1.00  0.00    -0.177 A  
HETATM   11  N   UNL     1      -9.823   8.700  66.983  1.00  0.00    -0.197 NA 
HETATM   12  C   UNL     1      -9.898   7.640  65.999  1.00  0.00     0.267 C  
HETATM   13  C   UNL     1     -10.118   7.287  70.396  1.00  0.00    -0.196 A  
HETATM   14  C   UNL     1     -10.543   8.442  71.027  1.00  0.00    -0.214 A  
HETATM   15  C   UNL     1     -10.884   9.577  70.276  1.00  0.00    -0.319 A  
ENDROOT
BRANCH  14  16
HETATM   16  O   UNL     1     -10.746   8.555  72.421  1.00  0.00    -0.341 OA 
BRANCH  16  17
HETATM   17  C   UNL     1      -9.964   7.899  73.371  1.00  0.00    -0.206 C  
HETATM   18  N   UNL     1      -8.770   8.545  73.498  1.00  0.00    -0.071 N  
HETATM   19  O   UNL     1     -10.282   6.893  73.995  1.00  0.00    -0.341 OA 
HETATM   20  H   UNL     1      -8.601   9.370  72.921  1.00  0.00     0.000 HD 
HETATM   21  C   UNL     1      -7.738   8.123  74.405  1.00  0.00    -0.232 C  
ENDBRANCH  16  17
ENDBRANCH  14  16
TORSDOF 2
ENDMDL
MODEL      118
REMARK 921   NORMALIZED FREE ENERGY PREDICTED BY IDOCK:   -4.00 KCAL/MOL
REMARK 922        TOTAL FREE ENERGY PREDICTED BY IDOCK:   -4.66 KCAL/MOL
REMARK 923 INTER-LIGAND FREE ENERGY PREDICTED BY IDOCK:   -4.55 KCAL/MOL
REMARK 924 INTRA-LIGAND FREE ENERGY PREDICTED BY IDOCK:   -0.11 KCAL/MOL
REMARK 927      BINDING AFFINITY PREDICTED BY RF-SCORE:    0.00 PKD
ROOT
HETATM    1  C   UNL     1      -9.650   3.345  69.274  1.00  0.00    -0.066 C  
HETATM    2  N   UNL     1      -8.631   2.402  68.789  1.00  0.00    -0.068 NA 
HETATM    3  C   UNL     1      -8.346   1.510  69.858  1.00  0.00    -0.045 C  
HETATM    4  C   UNL     1      -9.015   1.654  67.593  1.00  0.00    -0.133 C  
HETATM    5  C   UNL     1      -8.864   2.227  71.067  1.00  0.00    -0.127 C  
HETATM    6  C   UNL     1      -9.315   3.760  70.907  1.00  0.00    -0.215 C  
HETATM    7  C   UNL     1     -10.018   3.543  72.348  1.00  0.00    -0.237 C  
HETATM    8  C   UNL     1     -10.144   5.101  70.682  1.00  0.00    -0.309 A  
HETATM    9  C   UNL     1     -10.118   5.557  69.373  1.00  0.00    -0.236 A  
HETATM   10  C   UNL     1     -10.524   6.851  69.014  1.00  0.00    -0.223 A  
HETATM   11  N   UNL     1      -9.772   4.571  68.484  1.00  0.00    -0.151 NA 
HETATM   12  C   UNL     1      -9.002   4.862  67.292  1.00  0.00    -0.111 C  
HETATM   13  C   UNL     1     -11.068   7.716  69.957  1.00  0.00    -0.201 A  
HETATM   14  C   UNL     1     -11.254   7.242  71.243  1.00  0.00    -0.256 A  
HETATM   15  C   UNL     1     -10.778   5.974  71.608  1.00  0.00    -0.303 A  
ENDROOT
BRANCH  14  16
HETATM   16  O   UNL     1     -11.838   7.994  72.288  1.00  0.00    -0.327 OA 
BRANCH  16  17
HETATM   17  C   UNL     1     -12.867   8.914  72.094  1.00  0.00    -0.409 C  
HETATM   18  N   UNL     1     -12.335  10.155  71.904  1.00  0.00    -0.305 N  
HETATM   19  O   UNL     1     -14.067   8.663  72.099  1.00  0.00    -0.417 OA 
HETATM   20  H   UNL     1     -11.320  10.256  71.930  1.00  0.00     0.000 HD 
HETATM   21  C   UNL     1     -13.133  11.328  71.670  1.00  0.00    -0.408 C  
ENDBRANCH  16  17
ENDBRANCH  14  16
TORSDOF 2
ENDMDL
MODEL      119
REMARK 921   NORMALIZED FREE ENERGY PREDICTED BY IDOCK:   -3.99 KCAL/MOL
REMARK 922        TOTAL FREE ENERGY PREDICTED BY IDOCK:   -4.66 KCAL/MOL
REMARK 923 INTER-LIGAND FREE ENERGY PREDICTED BY IDOCK:   -4.44 KCAL/MOL
REMARK 924 INTRA-LIGAND FREE ENERGY PREDICTED BY IDOCK:   -0.22 KCAL/MOL
REMARK 927      BINDING AFFINITY PREDICTED BY RF-SCORE:    0.00 PKD
ROOT
HETATM    1  C   UNL     1      -8.683   8.862  66.773  1.00  0.00    -0.119 C  
HETATM    2  N   UNL     1      -8.207   7.763  65.919  1.00  0.00    -0.120 NA 
HETATM    3  C   UNL     1      -8.292   8.214  64.574  1.00  0.00    -0.058 C  
HETATM    4  C   UNL     1      -6.851   7.307  66.216  1.00  0.00    -0.058 C  
HETATM    5  C   UNL     1      -9.231   9.380  64.649  1.00  0.00    -0.185 C  
HETATM    6  C   UNL     1     -10.024   9.632  66.023  1.00  0.00    -0.344 C  
HETATM    7  C   UNL     1     -10.347  11.086  65.390  1.00  0.00    -0.330 C  
HETATM    8  C   UNL     1     -10.475  10.136  67.464  1.00  0.00    -0.304 A  
HETATM    9  C   UNL     1     -10.089   9.292  68.494  1.00  0.00    -0.190 A  
HETATM   10  C   UNL     1     -10.624   9.383  69.788  1.00  0.00    -0.247 A  
HETATM   11  N   UNL     1      -9.060   8.461  68.130  1.00  0.00    -0.138 NA 
HETATM   12  C   UNL     1      -8.955   7.113  68.648  1.00  0.00    -0.131 C  
HETATM   13  C   UNL     1     -11.509  10.400  70.124  1.00  0.00    -0.396 A  
HETATM   14  C   UNL     1     -11.798  11.354  69.166  1.00  0.00    -0.345 A  
HETATM   15  C   UNL     1     -11.316  11.213  67.855  1.00  0.00    -0.378 A  
ENDROOT
BRANCH  14  16
HETATM   16  O   UNL     1     -12.642  12.467  69.384  1.00  0.00     0.174 OA 
BRANCH  16  17
HETATM   17  C   UNL     1     -12.307  13.539  70.211  1.00  0.00    -0.300 C  
HETATM   18  N   UNL     1     -11.906  14.593  69.445  1.00  0.00    -0.312 N  
HETATM   19  O   UNL     1     -12.352  13.544  71.436  1.00  0.00    -0.305 OA 
HETATM   20  H   UNL     1     -11.895  14.479  68.431  1.00  0.00     0.000 HD 
HETATM   21  C   UNL     1     -11.499  15.857  69.995  1.00  0.00    -0.354 C  
ENDBRANCH  16  17
ENDBRANCH  14  16
TORSDOF 2
ENDMDL
MODEL      120
REMARK 921   NORMALIZED FREE ENERGY PREDICTED BY IDOCK:   -3.98 KCAL/MOL
REMARK 922        TOTAL FREE ENERGY PREDICTED BY IDOCK:   -4.64 KCAL/MOL
REMARK 923 INTER-LIGAND FREE ENERGY PREDICTED BY IDOCK:   -4.74 KCAL/MOL
REMARK 924 INTRA-LIGAND FREE ENERGY PREDICTED BY IDOCK:    0.10 KCAL/MOL
REMARK 927      BINDING AFFINITY PREDICTED BY RF-SCORE:    0.00 PKD
ROOT
HETATM    1  C   UNL     1     -11.013  10.042  70.280  1.00  0.00    -0.316 C  
HETATM    2  N   UNL     1     -12.063  11.053  70.083  1.00  0.00    -0.326 NA 
HETATM    3  C   UNL     1     -12.852  11.071  71.266  1.00  0.00    -0.425 C  
HETATM    4  C   UNL     1     -11.565  12.395  69.786  1.00  0.00    -0.232 C  
HETATM    5  C   UNL     1     -12.525   9.768  71.930  1.00  0.00    -0.451 C  
HETATM    6  C   UNL     1     -11.672   8.686  71.105  1.00  0.00    -0.334 C  
HETATM    7  C   UNL     1     -11.477   7.971  72.544  1.00  0.00    -0.471 C  
HETATM    8  C   UNL     1     -10.500   7.805  70.485  1.00  0.00    -0.217 A  
HETATM    9  C   UNL     1     -10.043   8.269  69.261  1.00  0.00    -0.199 A  
HETATM   10  C   UNL     1      -9.238   7.497  68.411  1.00  0.00    -0.139 A  
HETATM   11  N   UNL     1     -10.368   9.585  69.048  1.00  0.00    -0.199 NA 
HETATM   12  C   UNL     1     -10.676  10.084  67.724  1.00  0.00    -0.280 C  
HETATM   13  C   UNL     1      -8.776   6.247  68.806  1.00  0.00    -0.121 A  
HETATM   14  C   UNL     1      -9.082   5.815  70.084  1.00  0.00    -0.140 A  
HETATM   15  C   UNL     1      -9.948   6.561  70.898  1.00  0.00    -0.204 A  
ENDROOT
BRANCH  14  16
HETATM   16  O   UNL     1      -8.640   4.590  70.634  1.00  0.00    -0.090 OA 
BRANCH  16  17
HETATM   17  C   UNL     1      -9.151   3.347  70.261  1.00  0.00    -0.131 C  
HETATM   18  N   UNL     1      -8.982   3.173  68.919  1.00  0.00    -0.117 N  
HETATM   19  O   UNL     1      -9.679   2.533  71.009  1.00  0.00    -0.149 OA 
HETATM   20  H   UNL     1      -8.539   3.921  68.385  1.00  0.00     0.000 HD 
HETATM   21  C   UNL     1      -9.399   1.988  68.220  1.00  0.00    -0.198 C  
ENDBRANCH  16  17
ENDBRANCH  14  16
TORSDOF 2
ENDMDL
MODEL      121
REMARK 921   NORMALIZED FREE ENERGY PREDICTED BY IDOCK:   -3.97 KCAL/MOL
REMARK 922        TOTAL FREE ENERGY PREDICTED BY IDOCK:   -4.63 KCAL/MOL
REMARK 923 INTER-LIGAND FREE ENERGY PREDICTED BY IDOCK:   -4.43 KCAL/MOL
REMARK 924 INTRA-LIGAND FREE ENERGY PREDICTED BY IDOCK:   -0.20 KCAL/MOL
REMARK 927      BINDING AFFINITY PREDICTED BY RF-SCORE:    0.00 PKD
ROOT
HETATM    1  C   UNL     1      -8.415   6.553  68.884  1.00  0.00    -0.122 C  
HETATM    2  N   UNL     1      -8.120   5.262  69.523  1.00  0.00    -0.093 NA 
HETATM    3  C   UNL     1      -8.658   4.249  68.682  1.00  0.00    -0.093 C  
HETATM    4  C   UNL     1      -6.701   5.016  69.769  1.00  0.00    -0.047 C  
HETATM    5  C   UNL     1      -9.636   4.986  67.819  1.00  0.00    -0.178 C  
HETATM    6  C   UNL     1      -9.989   6.507  68.196  1.00  0.00    -0.145 C  
HETATM    7  C   UNL     1     -10.630   6.563  66.712  1.00  0.00    -0.323 C  
HETATM    8  C   UNL     1     -10.022   8.095  68.294  1.00  0.00    -0.212 A  
HETATM    9  C   UNL     1      -9.259   8.604  69.333  1.00  0.00    -0.150 A  
HETATM   10  C   UNL     1      -9.377   9.929  69.781  1.00  0.00    -0.248 A  
HETATM   11  N   UNL     1      -8.316   7.711  69.774  1.00  0.00    -0.131 NA 
HETATM   12  C   UNL     1      -7.927   7.646  71.168  1.00  0.00    -0.091 C  
HETATM   13  C   UNL     1     -10.209  10.831  69.129  1.00  0.00    -0.229 A  
HETATM   14  C   UNL     1     -10.870  10.402  67.992  1.00  0.00    -0.270 A  
HETATM   15  C   UNL     1     -10.803   9.058  67.597  1.00  0.00    -0.133 A  
ENDROOT
BRANCH  14  16
HETATM   16  O   UNL     1     -11.709  11.224  67.206  1.00  0.00    -0.566 OA 
BRANCH  16  17
HETATM   17  C   UNL     1     -11.242  12.055  66.189  1.00  0.00    -0.343 C  
HETATM   18  N   UNL     1     -12.276  12.389  65.366  1.00  0.00    -0.397 N  
HETATM   19  O   UNL     1     -10.083  12.428  66.040  1.00  0.00    -0.241 OA 
HETATM   20  H   UNL     1     -13.202  12.015  65.575  1.00  0.00     0.000 HD 
HETATM   21  C   UNL     1     -12.127  13.244  64.220  1.00  0.00    -0.416 C  
ENDBRANCH  16  17
ENDBRANCH  14  16
TORSDOF 2
ENDMDL
MODEL      122
REMARK 921   NORMALIZED FREE ENERGY PREDICTED BY IDOCK:   -3.93 KCAL/MOL
REMARK 922        TOTAL FREE ENERGY PREDICTED BY IDOCK:   -4.59 KCAL/MOL
REMARK 923 INTER-LIGAND FREE ENERGY PREDICTED BY IDOCK:   -4.38 KCAL/MOL
REMARK 924 INTRA-LIGAND FREE ENERGY PREDICTED BY IDOCK:   -0.22 KCAL/MOL
REMARK 927      BINDING AFFINITY PREDICTED BY RF-SCORE:    0.00 PKD
ROOT
HETATM    1  C   UNL     1      -8.889   8.539  67.159  1.00  0.00    -0.129 C  
HETATM    2  N   UNL     1      -8.897   7.069  67.141  1.00  0.00    -0.119 NA 
HETATM    3  C   UNL     1      -8.344   6.664  65.895  1.00  0.00    -0.137 C  
HETATM    4  C   UNL     1      -8.169   6.445  68.245  1.00  0.00    -0.116 C  
HETATM    5  C   UNL     1      -8.450   7.893  65.045  1.00  0.00    -0.072 C  
HETATM    6  C   UNL     1      -9.306   9.133  65.601  1.00  0.00    -0.300 C  
HETATM    7  C   UNL     1      -8.575   9.967  64.422  1.00  0.00    -0.199 C  
HETATM    8  C   UNL     1      -9.772  10.486  66.298  1.00  0.00    -0.254 A  
HETATM    9  C   UNL     1     -10.222  10.315  67.599  1.00  0.00    -0.205 A  
HETATM   10  C   UNL     1     -10.944  11.303  68.286  1.00  0.00    -0.275 A  
HETATM   11  N   UNL     1      -9.779   9.142  68.153  1.00  0.00    -0.151 NA 
HETATM   12  C   UNL     1     -10.591   8.394  69.091  1.00  0.00    -0.163 C  
HETATM   13  C   UNL     1     -11.162  12.553  67.718  1.00  0.00    -0.318 A  
HETATM   14  C   UNL     1     -10.594  12.815  66.484  1.00  0.00    -0.254 A  
HETATM   15  C   UNL     1      -9.937  11.798  65.774  1.00  0.00    -0.269 A  
ENDROOT
BRANCH  14  16
HETATM   16  O   UNL     1     -10.694  14.055  65.813  1.00  0.00    -0.282 OA 
BRANCH  16  17
HETATM   17  C   UNL     1      -9.908  15.164  66.120  1.00  0.00    -0.300 C  
HETATM   18  N   UNL     1     -10.702  16.267  66.224  1.00  0.00    -0.239 N  
HETATM   19  O   UNL     1      -8.691  15.164  66.269  1.00  0.00    -0.251 OA 
HETATM   20  H   UNL     1     -11.705  16.158  66.070  1.00  0.00     0.000 HD 
HETATM   21  C   UNL     1     -10.197  17.575  66.539  1.00  0.00    -0.342 C  
ENDBRANCH  16  17
ENDBRANCH  14  16
TORSDOF 2
ENDMDL
MODEL      123
REMARK 921   NORMALIZED FREE ENERGY PREDICTED BY IDOCK:   -3.92 KCAL/MOL
REMARK 922        TOTAL FREE ENERGY PREDICTED BY IDOCK:   -4.58 KCAL/MOL
REMARK 923 INTER-LIGAND FREE ENERGY PREDICTED BY IDOCK:   -4.64 KCAL/MOL
REMARK 924 INTRA-LIGAND FREE ENERGY PREDICTED BY IDOCK:    0.06 KCAL/MOL
REMARK 927      BINDING AFFINITY PREDICTED BY RF-SCORE:    0.00 PKD
ROOT
HETATM    1  C   UNL     1      -9.937   5.737  68.710  1.00  0.00    -0.159 C  
HETATM    2  N   UNL     1      -9.081   4.543  68.642  1.00  0.00    -0.113 NA 
HETATM    3  C   UNL     1      -8.923   4.068  69.972  1.00  0.00    -0.097 C  
HETATM    4  C   UNL     1      -9.591   3.478  67.781  1.00  0.00    -0.123 C  
HETATM    5  C   UNL     1      -9.309   5.244  70.817  1.00  0.00    -0.205 C  
HETATM    6  C   UNL     1      -9.521   6.663  70.096  1.00  0.00    -0.162 C  
HETATM    7  C   UNL     1     -10.230   7.090  71.486  1.00  0.00    -0.211 C  
HETATM    8  C   UNL     1     -10.137   7.937  69.367  1.00  0.00    -0.196 A  
HETATM    9  C   UNL     1     -10.059   7.877  67.983  1.00  0.00    -0.192 A  
HETATM   10  C   UNL     1     -10.266   8.998  67.165  1.00  0.00    -0.334 A  
HETATM   11  N   UNL     1      -9.880   6.597  67.526  1.00  0.00    -0.124 NA 
HETATM   12  C   UNL     1      -9.090   6.318  66.344  1.00  0.00    -0.153 C  
HETATM   13  C   UNL     1     -10.658  10.215  67.707  1.00  0.00    -0.304 A  
HETATM   14  C   UNL     1     -10.897  10.275  69.068  1.00  0.00    -0.230 A  
HETATM   15  C   UNL     1     -10.617   9.170  69.887  1.00  0.00    -0.246 A  
ENDROOT
BRANCH  14  16
HETATM   16  O   UNL     1     -11.345  11.432  69.745  1.00  0.00    -0.274 OA 
BRANCH  16  17
HETATM   17  C   UNL     1     -12.399  11.433  70.658  1.00  0.00    -0.373 C  
HETATM   18  N   UNL     1     -12.447  12.639  71.291  1.00  0.00    -0.263 N  
HETATM   19  O   UNL     1     -13.164  10.500  70.874  1.00  0.00    -0.353 OA 
HETATM   20  H   UNL     1     -11.754  13.345  71.043  1.00  0.00     0.000 HD 
HETATM   21  C   UNL     1     -13.428  12.965  72.291  1.00  0.00    -0.531 C  
ENDBRANCH  16  17
ENDBRANCH  14  16
TORSDOF 2
ENDMDL
MODEL      124
REMARK 921   NORMALIZED FREE ENERGY PREDICTED BY IDOCK:   -3.89 KCAL/MOL
REMARK 922        TOTAL FREE ENERGY PREDICTED BY IDOCK:   -4.54 KCAL/MOL
REMARK 923 INTER-LIGAND FREE ENERGY PREDICTED BY IDOCK:   -4.32 KCAL/MOL
REMARK 924 INTRA-LIGAND FREE ENERGY PREDICTED BY IDOCK:   -0.22 KCAL/MOL
REMARK 927      BINDING AFFINITY PREDICTED BY RF-SCORE:    0.00 PKD
ROOT
HETATM    1  C   UNL     1     -11.079  11.264  67.288  1.00  0.00    -0.305 C  
HETATM    2  N   UNL     1     -10.825  12.707  67.414  1.00  0.00    -0.238 NA 
HETATM    3  C   UNL     1     -10.268  13.141  66.181  1.00  0.00    -0.290 C  
HETATM    4  C   UNL     1     -12.005  13.504  67.747  1.00  0.00    -0.334 C  
HETATM    5  C   UNL     1      -9.794  11.873  65.539  1.00  0.00    -0.257 C  
HETATM    6  C   UNL     1      -9.791  10.529  66.419  1.00  0.00    -0.260 C  
HETATM    7  C   UNL     1      -9.603   9.782  64.996  1.00  0.00    -0.333 C  
HETATM    8  C   UNL     1     -10.175   9.151  67.116  1.00  0.00    -0.329 A  
HETATM    9  C   UNL     1     -10.749   9.303  68.369  1.00  0.00    -0.145 A  
HETATM   10  C   UNL     1     -10.890   8.237  69.271  1.00  0.00    -0.063 A  
HETATM   11  N   UNL     1     -11.257  10.562  68.561  1.00  0.00    -0.273 NA 
HETATM   12  C   UNL     1     -11.233  11.199  69.861  1.00  0.00    -0.217 C  
HETATM   13  C   UNL     1     -10.541   6.943  68.907  1.00  0.00    -0.244 A  
HETATM   14  C   UNL     1     -10.110   6.725  67.611  1.00  0.00    -0.161 A  
HETATM   15  C   UNL     1      -9.903   7.807  66.740  1.00  0.00    -0.312 A  
ENDROOT
BRANCH  14  16
HETATM   16  O   UNL     1      -9.768   5.456  67.091  1.00  0.00    -0.129 OA 
BRANCH  16  17
HETATM   17  C   UNL     1      -8.791   4.632  67.647  1.00  0.00    -0.106 C  
HETATM   18  N   UNL     1      -9.260   3.354  67.711  1.00  0.00    -0.174 N  
HETATM   19  O   UNL     1      -7.682   4.989  68.030  1.00  0.00    -0.082 OA 
HETATM   20  H   UNL     1     -10.204   3.166  67.374  1.00  0.00     0.000 HD 
HETATM   21  C   UNL     1      -8.489   2.257  68.230  1.00  0.00    -0.070 C  
ENDBRANCH  16  17
ENDBRANCH  14  16
TORSDOF 2
ENDMDL
MODEL      125
REMARK 921   NORMALIZED FREE ENERGY PREDICTED BY IDOCK:   -3.86 KCAL/MOL
REMARK 922        TOTAL FREE ENERGY PREDICTED BY IDOCK:   -4.51 KCAL/MOL
REMARK 923 INTER-LIGAND FREE ENERGY PREDICTED BY IDOCK:   -4.27 KCAL/MOL
REMARK 924 INTRA-LIGAND FREE ENERGY PREDICTED BY IDOCK:   -0.24 KCAL/MOL
REMARK 927      BINDING AFFINITY PREDICTED BY RF-SCORE:    0.00 PKD
ROOT
HETATM    1  C   UNL     1     -10.921  10.315  70.158  1.00  0.00    -0.314 C  
HETATM    2  N   UNL     1     -12.085  11.185  69.929  1.00  0.00    -0.330 NA 
HETATM    3  C   UNL     1     -12.892  11.117  71.097  1.00  0.00    -0.374 C  
HETATM    4  C   UNL     1     -11.752  12.575  69.622  1.00  0.00    -0.302 C  
HETATM    5  C   UNL     1     -12.419   9.873  71.784  1.00  0.00    -0.487 C  
HETATM    6  C   UNL     1     -11.422   8.896  70.989  1.00  0.00    -0.351 C  
HETATM    7  C   UNL     1     -11.168   8.227  72.440  1.00  0.00    -0.451 C  
HETATM    8  C   UNL     1     -10.138   8.162  70.402  1.00  0.00    -0.196 A  
HETATM    9  C   UNL     1      -9.718   8.666  69.180  1.00  0.00    -0.173 A  
HETATM   10  C   UNL     1      -8.806   7.991  68.355  1.00  0.00    -0.134 A  
HETATM   11  N   UNL     1     -10.200   9.928  68.944  1.00  0.00    -0.186 NA 
HETATM   12  C   UNL     1     -10.541  10.371  67.608  1.00  0.00    -0.257 C  
HETATM   13  C   UNL     1      -8.201   6.813  68.775  1.00  0.00    -0.121 A  
HETATM   14  C   UNL     1      -8.476   6.359  70.053  1.00  0.00    -0.135 A  
HETATM   15  C   UNL     1      -9.443   7.001  70.841  1.00  0.00    -0.160 A  
ENDROOT
BRANCH  14  16
HETATM   16  O   UNL     1      -7.895   5.205  70.626  1.00  0.00    -0.076 OA 
BRANCH  16  17
HETATM   17  C   UNL     1      -6.998   5.241  71.693  1.00  0.00    -0.066 C  
HETATM   18  N   UNL     1      -7.345   4.293  72.609  1.00  0.00    -0.071 N  
HETATM   19  O   UNL     1      -6.046   6.006  71.806  1.00  0.00    -0.037 OA 
HETATM   20  H   UNL     1      -8.164   3.715  72.421  1.00  0.00     0.000 HD 
HETATM   21  C   UNL     1      -6.614   4.068  73.826  1.00  0.00    -0.047 C  
ENDBRANCH  16  17
ENDBRANCH  14  16
TORSDOF 2
ENDMDL
MODEL      126
REMARK 921   NORMALIZED FREE ENERGY PREDICTED BY IDOCK:   -3.84 KCAL/MOL
REMARK 922        TOTAL FREE ENERGY PREDICTED BY IDOCK:   -4.49 KCAL/MOL
REMARK 923 INTER-LIGAND FREE ENERGY PREDICTED BY IDOCK:   -4.32 KCAL/MOL
REMARK 924 INTRA-LIGAND FREE ENERGY PREDICTED BY IDOCK:   -0.17 KCAL/MOL
REMARK 927      BINDING AFFINITY PREDICTED BY RF-SCORE:    0.00 PKD
ROOT
HETATM    1  C   UNL     1      -9.517   8.729  66.831  1.00  0.00    -0.177 C  
HETATM    2  N   UNL     1      -8.440   9.001  65.866  1.00  0.00    -0.133 NA 
HETATM    3  C   UNL     1      -7.648   7.823  65.784  1.00  0.00    -0.084 C  
HETATM    4  C   UNL     1      -8.901   9.396  64.537  1.00  0.00    -0.198 C  
HETATM    5  C   UNL     1      -8.009   7.064  67.025  1.00  0.00    -0.116 C  
HETATM    6  C   UNL     1      -8.894   7.807  68.141  1.00  0.00    -0.125 C  
HETATM    7  C   UNL     1      -9.105   6.320  68.742  1.00  0.00    -0.127 C  
HETATM    8  C   UNL     1     -10.091   8.360  69.032  1.00  0.00    -0.209 A  
HETATM    9  C   UNL     1     -10.538   9.615  68.646  1.00  0.00    -0.217 A  
HETATM   10  C   UNL     1     -11.367  10.405  69.456  1.00  0.00    -0.325 A  
HETATM   11  N   UNL     1     -10.178   9.924  67.359  1.00  0.00    -0.208 NA 
HETATM   12  C   UNL     1      -9.860  11.281  66.967  1.00  0.00    -0.191 C  
HETATM   13  C   UNL     1     -11.862   9.919  70.660  1.00  0.00    -0.386 A  
HETATM   14  C   UNL     1     -11.565   8.613  71.006  1.00  0.00    -0.281 A  
HETATM   15  C   UNL     1     -10.677   7.857  70.226  1.00  0.00    -0.236 A  
ENDROOT
BRANCH  14  16
HETATM   16  O   UNL     1     -12.039   7.975  72.174  1.00  0.00    -0.313 OA 
BRANCH  16  17
HETATM   17  C   UNL     1     -11.313   7.015  72.879  1.00  0.00    -0.181 C  
HETATM   18  N   UNL     1     -10.370   7.634  73.645  1.00  0.00    -0.335 N  
HETATM   19  O   UNL     1     -11.480   5.802  72.821  1.00  0.00    -0.290 OA 
HETATM   20  H   UNL     1     -10.309   8.651  73.610  1.00  0.00     0.000 HD 
HETATM   21  C   UNL     1      -9.458   6.922  74.499  1.00  0.00    -0.188 C  
ENDBRANCH  16  17
ENDBRANCH  14  16
TORSDOF 2
ENDMDL
MODEL      127
REMARK 921   NORMALIZED FREE ENERGY PREDICTED BY IDOCK:   -3.81 KCAL/MOL
REMARK 922        TOTAL FREE ENERGY PREDICTED BY IDOCK:   -4.45 KCAL/MOL
REMARK 923 INTER-LIGAND FREE ENERGY PREDICTED BY IDOCK:   -4.27 KCAL/MOL
REMARK 924 INTRA-LIGAND FREE ENERGY PREDICTED BY IDOCK:   -0.18 KCAL/MOL
REMARK 927      BINDING AFFINITY PREDICTED BY RF-SCORE:    0.00 PKD
ROOT
HETATM    1  C   UNL     1     -10.161  14.736  66.014  1.00  0.00    -0.308 C  
HETATM    2  N   UNL     1     -10.576  16.126  65.774  1.00  0.00    -0.346 NA 
HETATM    3  C   UNL     1      -9.483  16.957  66.142  1.00  0.00    -0.245 C  
HETATM    4  C   UNL     1     -10.987  16.408  64.399  1.00  0.00     0.202 C  
HETATM    5  C   UNL     1      -8.637  16.070  67.004  1.00  0.00    -0.238 C  
HETATM    6  C   UNL     1      -9.242  14.655  67.464  1.00  0.00    -0.192 C  
HETATM    7  C   UNL     1      -7.715  14.311  67.876  1.00  0.00    -0.157 C  
HETATM    8  C   UNL     1      -9.638  13.117  67.569  1.00  0.00    -0.208 A  
HETATM    9  C   UNL     1     -10.862  12.818  66.990  1.00  0.00    -0.257 A  
HETATM   10  C   UNL     1     -11.533  11.607  67.221  1.00  0.00    -0.350 A  
HETATM   11  N   UNL     1     -11.262  13.775  66.093  1.00  0.00    -0.297 NA 
HETATM   12  C   UNL     1     -12.660  14.110  65.916  1.00  0.00    -0.417 C  
HETATM   13  C   UNL     1     -10.948  10.600  67.978  1.00  0.00    -0.336 A  
HETATM   14  C   UNL     1      -9.661  10.800  68.444  1.00  0.00    -0.176 A  
HETATM   15  C   UNL     1      -9.028  12.041  68.269  1.00  0.00    -0.186 A  
ENDROOT
BRANCH  14  16
HETATM   16  O   UNL     1      -8.928   9.845  69.184  1.00  0.00    -0.147 OA 
BRANCH  16  17
HETATM   17  C   UNL     1      -9.418   8.582  69.514  1.00  0.00    -0.165 C  
HETATM   18  N   UNL     1      -9.066   7.692  68.543  1.00  0.00    -0.132 N  
HETATM   19  O   UNL     1     -10.072   8.303  70.512  1.00  0.00    -0.192 OA 
HETATM   20  H   UNL     1      -8.528   8.033  67.745  1.00  0.00     0.000 HD 
HETATM   21  C   UNL     1      -9.414   6.298  68.588  1.00  0.00    -0.121 C  
ENDBRANCH  16  17
ENDBRANCH  14  16
TORSDOF 2
ENDMDL
MODEL      128
REMARK 921   NORMALIZED FREE ENERGY PREDICTED BY IDOCK:   -3.77 KCAL/MOL
REMARK 922        TOTAL FREE ENERGY PREDICTED BY IDOCK:   -4.41 KCAL/MOL
REMARK 923 INTER-LIGAND FREE ENERGY PREDICTED BY IDOCK:   -4.20 KCAL/MOL
REMARK 924 INTRA-LIGAND FREE ENERGY PREDICTED BY IDOCK:   -0.21 KCAL/MOL
REMARK 927      BINDING AFFINITY PREDICTED BY RF-SCORE:    0.00 PKD
ROOT
HETATM    1  C   UNL     1      -7.413  11.863  68.425  1.00  0.00    -0.102 C  
HETATM    2  N   UNL     1      -7.575  10.794  69.422  1.00  0.00    -0.132 NA 
HETATM    3  C   UNL     1      -8.713  10.034  69.038  1.00  0.00    -0.158 C  
HETATM    4  C   UNL     1      -6.410   9.923  69.572  1.00  0.00    -0.047 C  
HETATM    5  C   UNL     1      -9.444  10.941  68.096  1.00  0.00    -0.167 C  
HETATM    6  C   UNL     1      -8.959  12.468  67.978  1.00  0.00    -0.192 C  
HETATM    7  C   UNL     1      -9.875  12.494  66.644  1.00  0.00    -0.245 C  
HETATM    8  C   UNL     1      -8.245  13.822  67.540  1.00  0.00    -0.194 A  
HETATM    9  C   UNL     1      -7.088  14.096  68.253  1.00  0.00    -0.112 A  
HETATM   10  C   UNL     1      -6.472  15.357  68.240  1.00  0.00    -0.120 A  
HETATM   11  N   UNL     1      -6.570  12.979  68.857  1.00  0.00    -0.090 NA 
HETATM   12  C   UNL     1      -5.897  13.053  70.137  1.00  0.00    -0.153 C  
HETATM   13  C   UNL     1      -6.948  16.375  67.423  1.00  0.00    -0.196 A  
HETATM   14  C   UNL     1      -8.008  16.092  66.580  1.00  0.00    -0.270 A  
HETATM   15  C   UNL     1      -8.662  14.853  66.654  1.00  0.00    -0.262 A  
ENDROOT
BRANCH  14  16
HETATM   16  O   UNL     1      -8.561  17.016  65.665  1.00  0.00    -0.456 OA 
BRANCH  16  17
HETATM   17  C   UNL     1      -9.727  17.740  65.910  1.00  0.00    -0.017 C  
HETATM   18  N   UNL     1      -9.485  18.675  66.873  1.00  0.00    -0.291 N  
HETATM   19  O   UNL     1     -10.809  17.569  65.359  1.00  0.00    -0.528 OA 
HETATM   20  H   UNL     1      -8.549  18.726  67.274  1.00  0.00     0.000 HD 
HETATM   21  C   UNL     1     -10.485  19.591  67.349  1.00  0.00    -0.471 C  
ENDBRANCH  16  17
ENDBRANCH  14  16
TORSDOF 2
ENDMDL
MODEL      129
REMARK 921   NORMALIZED FREE ENERGY PREDICTED BY IDOCK:   -3.75 KCAL/MOL
REMARK 922        TOTAL FREE ENERGY PREDICTED BY IDOCK:   -4.39 KCAL/MOL
REMARK 923 INTER-LIGAND FREE ENERGY PREDICTED BY IDOCK:   -4.29 KCAL/MOL
REMARK 924 INTRA-LIGAND FREE ENERGY PREDICTED BY IDOCK:   -0.10 KCAL/MOL
REMARK 927      BINDING AFFINITY PREDICTED BY RF-SCORE:    0.00 PKD
ROOT
HETATM    1  C   UNL     1      -7.939   6.410  68.720  1.00  0.00    -0.110 C  
HETATM    2  N   UNL     1      -7.400   5.417  67.778  1.00  0.00    -0.072 NA 
HETATM    3  C   UNL     1      -6.597   6.124  66.842  1.00  0.00    -0.059 C  
HETATM    4  C   UNL     1      -6.627   4.345  68.402  1.00  0.00    -0.046 C  
HETATM    5  C   UNL     1      -7.051   7.545  66.987  1.00  0.00    -0.084 C  
HETATM    6  C   UNL     1      -8.362   7.839  67.865  1.00  0.00    -0.123 C  
HETATM    7  C   UNL     1      -7.861   9.377  67.817  1.00  0.00    -0.095 C  
HETATM    8  C   UNL     1      -9.373   8.184  69.046  1.00  0.00    -0.147 A  
HETATM    9  C   UNL     1      -9.875   7.065  69.693  1.00  0.00    -0.164 A  
HETATM   10  C   UNL     1     -10.985   7.120  70.549  1.00  0.00    -0.287 A  
HETATM   11  N   UNL     1      -9.098   5.953  69.491  1.00  0.00    -0.131 NA 
HETATM   12  C   UNL     1      -9.678   4.630  69.397  1.00  0.00    -0.202 C  
HETATM   13  C   UNL     1     -11.582   8.334  70.867  1.00  0.00    -0.282 A  
HETATM   14  C   UNL     1     -11.013   9.490  70.364  1.00  0.00    -0.278 A  
HETATM   15  C   UNL     1      -9.950   9.419  69.451  1.00  0.00    -0.189 A  
ENDROOT
BRANCH  14  16
HETATM   16  O   UNL     1     -11.486  10.792  70.643  1.00  0.00    -0.325 OA 
BRANCH  16  17
HETATM   17  C   UNL     1     -11.776  11.736  69.659  1.00  0.00    -0.344 C  
HETATM   18  N   UNL     1     -11.504  12.984  70.134  1.00  0.00    -0.519 N  
HETATM   19  O   UNL     1     -12.215  11.496  68.540  1.00  0.00    -0.524 OA 
HETATM   20  H   UNL     1     -11.151  13.073  71.087  1.00  0.00     0.000 HD 
HETATM   21  C   UNL     1     -11.690  14.180  69.359  1.00  0.00    -0.313 C  
ENDBRANCH  16  17
ENDBRANCH  14  16
TORSDOF 2
ENDMDL
MODEL      130
REMARK 921   NORMALIZED FREE ENERGY PREDICTED BY IDOCK:   -3.73 KCAL/MOL
REMARK 922        TOTAL FREE ENERGY PREDICTED BY IDOCK:   -4.37 KCAL/MOL
REMARK 923 INTER-LIGAND FREE ENERGY PREDICTED BY IDOCK:   -4.19 KCAL/MOL
REMARK 924 INTRA-LIGAND FREE ENERGY PREDICTED BY IDOCK:   -0.17 KCAL/MOL
REMARK 927      BINDING AFFINITY PREDICTED BY RF-SCORE:    0.00 PKD
ROOT
HETATM    1  C   UNL     1      -9.003   4.987  66.100  1.00  0.00    -0.131 C  
HETATM    2  N   UNL     1      -7.913   4.655  65.170  1.00  0.00    -0.094 NA 
HETATM    3  C   UNL     1      -7.536   3.310  65.433  1.00  0.00    -0.076 C  
HETATM    4  C   UNL     1      -8.249   4.820  63.757  1.00  0.00    -0.115 C  
HETATM    5  C   UNL     1      -8.096   3.045  66.797  1.00  0.00    -0.081 C  
HETATM    6  C   UNL     1      -8.681   4.284  67.635  1.00  0.00    -0.116 C  
HETATM    7  C   UNL     1      -9.341   3.141  68.571  1.00  0.00    -0.240 C  
HETATM    8  C   UNL     1      -9.627   5.389  68.282  1.00  0.00    -0.158 A  
HETATM    9  C   UNL     1      -9.661   6.578  67.569  1.00  0.00    -0.124 A  
HETATM   10  C   UNL     1     -10.183   7.766  68.103  1.00  0.00    -0.244 A  
HETATM   11  N   UNL     1      -9.244   6.421  66.272  1.00  0.00    -0.157 NA 
HETATM   12  C   UNL     1      -8.520   7.465  65.577  1.00  0.00    -0.118 C  
HETATM   13  C   UNL     1     -10.785   7.781  69.356  1.00  0.00    -0.177 A  
HETATM   14  C   UNL     1     -10.909   6.582  70.033  1.00  0.00    -0.287 A  
HETATM   15  C   UNL     1     -10.320   5.415  69.523  1.00  0.00    -0.350 A  
ENDROOT
BRANCH  14  16
HETATM   16  O   UNL     1     -11.541   6.442  71.290  1.00  0.00    -0.305 OA 
BRANCH  16  17
HETATM   17  C   UNL     1     -11.863   7.519  72.115  1.00  0.00    -0.298 C  
HETATM   18  N   UNL     1     -13.158   7.885  71.895  1.00  0.00    -0.405 N  
HETATM   19  O   UNL     1     -11.109   8.066  72.911  1.00  0.00    -0.392 OA 
HETATM   20  H   UNL     1     -13.696   7.369  71.199  1.00  0.00     0.000 HD 
HETATM   21  C   UNL     1     -13.801   8.963  72.596  1.00  0.00    -0.326 C  
ENDBRANCH  16  17
ENDBRANCH  14  16
TORSDOF 2
ENDMDL
MODEL      131
REMARK 921   NORMALIZED FREE ENERGY PREDICTED BY IDOCK:   -3.71 KCAL/MOL
REMARK 922        TOTAL FREE ENERGY PREDICTED BY IDOCK:   -4.35 KCAL/MOL
REMARK 923 INTER-LIGAND FREE ENERGY PREDICTED BY IDOCK:   -4.09 KCAL/MOL
REMARK 924 INTRA-LIGAND FREE ENERGY PREDICTED BY IDOCK:   -0.26 KCAL/MOL
REMARK 927      BINDING AFFINITY PREDICTED BY RF-SCORE:    0.00 PKD
ROOT
HETATM    1  C   UNL     1      -8.278  11.763  67.468  1.00  0.00    -0.152 C  
HETATM    2  N   UNL     1      -8.481  10.315  67.623  1.00  0.00    -0.118 NA 
HETATM    3  C   UNL     1      -9.709   9.995  66.981  1.00  0.00    -0.181 C  
HETATM    4  C   UNL     1      -7.399   9.490  67.088  1.00  0.00    -0.088 C  
HETATM    5  C   UNL     1     -10.405  11.317  66.868  1.00  0.00    -0.272 C  
HETATM    6  C   UNL     1      -9.782  12.575  67.649  1.00  0.00    -0.196 C  
HETATM    7  C   UNL     1     -10.771  13.449  66.713  1.00  0.00    -0.277 C  
HETATM    8  C   UNL     1      -8.970  13.884  68.049  1.00  0.00    -0.184 A  
HETATM    9  C   UNL     1      -7.750  13.618  68.654  1.00  0.00    -0.107 A  
HETATM   10  C   UNL     1      -7.017  14.596  69.342  1.00  0.00    -0.163 A  
HETATM   11  N   UNL     1      -7.307  12.346  68.396  1.00  0.00    -0.107 NA 
HETATM   12  C   UNL     1      -6.553  11.593  69.377  1.00  0.00    -0.115 C  
HETATM   13  C   UNL     1      -7.442  15.919  69.369  1.00  0.00    -0.213 A  
HETATM   14  C   UNL     1      -8.573  16.254  68.646  1.00  0.00    -0.222 A  
HETATM   15  C   UNL     1      -9.338  15.257  68.022  1.00  0.00    -0.197 A  
ENDROOT
BRANCH  14  16
HETATM   16  O   UNL     1      -9.089  17.566  68.545  1.00  0.00    -0.268 OA 
BRANCH  16  17
HETATM   17  C   UNL     1      -8.330  18.666  68.152  1.00  0.00    -0.307 C  
HETATM   18  N   UNL     1      -8.183  18.653  66.796  1.00  0.00    -0.258 N  
HETATM   19  O   UNL     1      -7.855  19.516  68.896  1.00  0.00    -0.356 OA 
HETATM   20  H   UNL     1      -8.611  17.891  66.270  1.00  0.00     0.000 HD 
HETATM   21  C   UNL     1      -7.454  19.659  66.073  1.00  0.00    -0.311 C  
ENDBRANCH  16  17
ENDBRANCH  14  16
TORSDOF 2
ENDMDL
MODEL      132
REMARK 921   NORMALIZED FREE ENERGY PREDICTED BY IDOCK:   -3.69 KCAL/MOL
REMARK 922        TOTAL FREE ENERGY PREDICTED BY IDOCK:   -4.32 KCAL/MOL
REMARK 923 INTER-LIGAND FREE ENERGY PREDICTED BY IDOCK:   -4.25 KCAL/MOL
REMARK 924 INTRA-LIGAND FREE ENERGY PREDICTED BY IDOCK:   -0.07 KCAL/MOL
REMARK 927      BINDING AFFINITY PREDICTED BY RF-SCORE:    0.00 PKD
ROOT
HETATM    1  C   UNL     1     -11.725   9.858  70.963  1.00  0.00    -0.382 C  
HETATM    2  N   UNL     1     -13.046  10.443  71.239  1.00  0.00    -0.397 NA 
HETATM    3  C   UNL     1     -13.690   9.591  72.178  1.00  0.00    -0.372 C  
HETATM    4  C   UNL     1     -13.009  11.815  71.741  1.00  0.00    -0.361 C  
HETATM    5  C   UNL     1     -12.922   8.308  72.078  1.00  0.00    -0.355 C  
HETATM    6  C   UNL     1     -11.860   8.147  70.884  1.00  0.00    -0.232 C  
HETATM    7  C   UNL     1     -11.325   6.881  71.738  1.00  0.00    -0.295 C  
HETATM    8  C   UNL     1     -10.538   8.134  69.998  1.00  0.00    -0.239 A  
HETATM    9  C   UNL     1     -10.359   9.288  69.250  1.00  0.00    -0.215 A  
HETATM   10  C   UNL     1      -9.438   9.371  68.195  1.00  0.00    -0.146 A  
HETATM   11  N   UNL     1     -11.087  10.344  69.738  1.00  0.00    -0.275 NA 
HETATM   12  C   UNL     1     -11.652  11.345  68.857  1.00  0.00    -0.323 C  
HETATM   13  C   UNL     1      -8.584   8.313  67.908  1.00  0.00    -0.132 A  
HETATM   14  C   UNL     1      -8.625   7.202  68.731  1.00  0.00    -0.125 A  
HETATM   15  C   UNL     1      -9.598   7.100  69.737  1.00  0.00    -0.155 A  
ENDROOT
BRANCH  14  16
HETATM   16  O   UNL     1      -7.783   6.077  68.587  1.00  0.00    -0.092 OA 
BRANCH  16  17
HETATM   17  C   UNL     1      -6.814   5.713  69.521  1.00  0.00    -0.061 C  
HETATM   18  N   UNL     1      -6.352   6.829  70.152  1.00  0.00    -0.038 N  
HETATM   19  O   UNL     1      -6.423   4.573  69.744  1.00  0.00    -0.030 OA 
HETATM   20  H   UNL     1      -6.739   7.734  69.882  1.00  0.00     0.000 HD 
HETATM   21  C   UNL     1      -5.347   6.794  71.180  1.00  0.00    -0.027 C  
ENDBRANCH  16  17
ENDBRANCH  14  16
TORSDOF 2
ENDMDL
MODEL      133
REMARK 921   NORMALIZED FREE ENERGY PREDICTED BY IDOCK:   -3.66 KCAL/MOL
REMARK 922        TOTAL FREE ENERGY PREDICTED BY IDOCK:   -4.29 KCAL/MOL
REMARK 923 INTER-LIGAND FREE ENERGY PREDICTED BY IDOCK:   -4.05 KCAL/MOL
REMARK 924 INTRA-LIGAND FREE ENERGY PREDICTED BY IDOCK:   -0.24 KCAL/MOL
REMARK 927      BINDING AFFINITY PREDICTED BY RF-SCORE:    0.00 PKD
ROOT
HETATM    1  C   UNL     1      -9.867   4.946  71.892  1.00  0.00    -0.184 C  
HETATM    2  N   UNL     1     -10.291   4.518  73.233  1.00  0.00    -0.167 NA 
HETATM    3  C   UNL     1      -9.605   3.306  73.520  1.00  0.00    -0.106 C  
HETATM    4  C   UNL     1     -10.050   5.500  74.289  1.00  0.00    -0.256 C  
HETATM    5  C   UNL     1      -9.154   2.827  72.174  1.00  0.00    -0.139 C  
HETATM    6  C   UNL     1      -9.722   3.572  70.870  1.00  0.00    -0.213 C  
HETATM    7  C   UNL     1      -8.531   2.796  70.097  1.00  0.00    -0.087 C  
HETATM    8  C   UNL     1      -9.929   4.540  69.624  1.00  0.00    -0.251 A  
HETATM    9  C   UNL     1     -10.698   5.659  69.911  1.00  0.00    -0.329 A  
HETATM   10  C   UNL     1     -11.245   6.478  68.911  1.00  0.00    -0.341 A  
HETATM   11  N   UNL     1     -10.752   5.924  71.255  1.00  0.00    -0.255 NA 
HETATM   12  C   UNL     1     -11.938   6.482  71.870  1.00  0.00    -0.341 C  
HETATM   13  C   UNL     1     -10.957   6.255  67.570  1.00  0.00    -0.444 A  
HETATM   14  C   UNL     1     -10.069   5.243  67.254  1.00  0.00    -0.195 A  
HETATM   15  C   UNL     1      -9.585   4.385  68.253  1.00  0.00    -0.199 A  
ENDROOT
BRANCH  14  16
HETATM   16  O   UNL     1      -9.650   4.938  65.939  1.00  0.00    -0.158 OA 
BRANCH  16  17
HETATM   17  C   UNL     1      -8.435   5.356  65.399  1.00  0.00    -0.144 C  
HETATM   18  N   UNL     1      -7.700   4.265  65.040  1.00  0.00    -0.084 N  
HETATM   19  O   UNL     1      -8.067   6.518  65.269  1.00  0.00    -0.123 OA 
HETATM   20  H   UNL     1      -8.096   3.339  65.203  1.00  0.00     0.000 HD 
HETATM   21  C   UNL     1      -6.394   4.355  64.445  1.00  0.00    -0.034 C  
ENDBRANCH  16  17
ENDBRANCH  14  16
TORSDOF 2
ENDMDL
MODEL      134
REMARK 921   NORMALIZED FREE ENERGY PREDICTED BY IDOCK:   -3.63 KCAL/MOL
REMARK 922        TOTAL FREE ENERGY PREDICTED BY IDOCK:   -4.26 KCAL/MOL
REMARK 923 INTER-LIGAND FREE ENERGY PREDICTED BY IDOCK:   -4.01 KCAL/MOL
REMARK 924 INTRA-LIGAND FREE ENERGY PREDICTED BY IDOCK:   -0.24 KCAL/MOL
REMARK 927      BINDING AFFINITY PREDICTED BY RF-SCORE:    0.00 PKD
ROOT
HETATM    1  C   UNL     1      -9.144   6.857  70.652  1.00  0.00    -0.155 C  
HETATM    2  N   UNL     1      -9.679   6.836  72.022  1.00  0.00    -0.154 NA 
HETATM    3  C   UNL     1     -10.915   6.135  71.976  1.00  0.00    -0.258 C  
HETATM    4  C   UNL     1      -8.790   6.230  73.012  1.00  0.00    -0.123 C  
HETATM    5  C   UNL     1     -11.286   6.164  70.524  1.00  0.00    -0.403 C  
HETATM    6  C   UNL     1     -10.431   7.100  69.539  1.00  0.00    -0.236 C  
HETATM    7  C   UNL     1     -11.148   6.253  68.362  1.00  0.00    -0.371 C  
HETATM    8  C   UNL     1      -9.361   7.668  68.506  1.00  0.00    -0.147 A  
HETATM    9  C   UNL     1      -8.264   8.262  69.112  1.00  0.00    -0.121 A  
HETATM   10  C   UNL     1      -7.361   9.076  68.412  1.00  0.00    -0.078 A  
HETATM   11  N   UNL     1      -8.111   7.866  70.416  1.00  0.00    -0.111 NA 
HETATM   12  C   UNL     1      -7.596   8.768  71.426  1.00  0.00    -0.102 C  
HETATM   13  C   UNL     1      -7.474   9.249  67.038  1.00  0.00    -0.091 A  
HETATM   14  C   UNL     1      -8.463   8.547  66.372  1.00  0.00    -0.117 A  
HETATM   15  C   UNL     1      -9.404   7.795  67.091  1.00  0.00    -0.185 A  
ENDROOT
BRANCH  14  16
HETATM   16  O   UNL     1      -8.661   8.591  64.974  1.00  0.00    -0.169 OA 
BRANCH  16  17
HETATM   17  C   UNL     1      -8.809   9.774  64.251  1.00  0.00    -0.228 C  
HETATM   18  N   UNL     1     -10.128  10.116  64.208  1.00  0.00    -0.449 N  
HETATM   19  O   UNL     1      -7.905  10.413  63.725  1.00  0.00    -0.144 OA 
HETATM   20  H   UNL     1     -10.802   9.506  64.671  1.00  0.00     0.000 HD 
HETATM   21  C   UNL     1     -10.616  11.293  63.542  1.00  0.00    -0.369 C  
ENDBRANCH  16  17
ENDBRANCH  14  16
TORSDOF 2
ENDMDL
MODEL      135
REMARK 921   NORMALIZED FREE ENERGY PREDICTED BY IDOCK:   -3.59 KCAL/MOL
REMARK 922        TOTAL FREE ENERGY PREDICTED BY IDOCK:   -4.21 KCAL/MOL
REMARK 923 INTER-LIGAND FREE ENERGY PREDICTED BY IDOCK:   -4.01 KCAL/MOL
REMARK 924 INTRA-LIGAND FREE ENERGY PREDICTED BY IDOCK:   -0.20 KCAL/MOL
REMARK 927      BINDING AFFINITY PREDICTED BY RF-SCORE:    0.00 PKD
ROOT
HETATM    1  C   UNL     1      -7.862   5.846  67.105  1.00  0.00    -0.102 C  
HETATM    2  N   UNL     1      -7.444   5.495  65.739  1.00  0.00    -0.080 NA 
HETATM    3  C   UNL     1      -6.470   6.451  65.342  1.00  0.00    -0.039 C  
HETATM    4  C   UNL     1      -6.913   4.141  65.596  1.00  0.00    -0.062 C  
HETATM    5  C   UNL     1      -6.676   7.586  66.299  1.00  0.00    -0.057 C  
HETATM    6  C   UNL     1      -7.970   7.555  67.249  1.00  0.00    -0.118 C  
HETATM    7  C   UNL     1      -7.205   8.721  68.070  1.00  0.00    -0.083 C  
HETATM    8  C   UNL     1      -8.980   7.337  68.460  1.00  0.00    -0.130 A  
HETATM    9  C   UNL     1      -9.712   6.162  68.369  1.00  0.00    -0.122 A  
HETATM   10  C   UNL     1     -10.849   5.916  69.154  1.00  0.00    -0.406 A  
HETATM   11  N   UNL     1      -9.130   5.249  67.528  1.00  0.00    -0.108 NA 
HETATM   12  C   UNL     1      -9.926   4.349  66.719  1.00  0.00    -0.195 C  
HETATM   13  C   UNL     1     -11.243   6.812  70.140  1.00  0.00    -0.387 A  
HETATM   14  C   UNL     1     -10.449   7.922  70.366  1.00  0.00    -0.218 A  
HETATM   15  C   UNL     1      -9.357   8.196  69.529  1.00  0.00    -0.155 A  
ENDROOT
BRANCH  14  16
HETATM   16  O   UNL     1     -10.703   8.888  71.366  1.00  0.00    -0.259 OA 
BRANCH  16  17
HETATM   17  C   UNL     1     -11.758   9.798  71.310  1.00  0.00    -0.394 C  
HETATM   18  N   UNL     1     -11.405  10.851  70.518  1.00  0.00    -0.450 N  
HETATM   19  O   UNL     1     -12.836   9.686  71.883  1.00  0.00    -0.373 OA 
HETATM   20  H   UNL     1     -10.477  10.850  70.096  1.00  0.00     0.000 HD 
HETATM   21  C   UNL     1     -12.278  11.961  70.249  1.00  0.00    -0.271 C  
ENDBRANCH  16  17
ENDBRANCH  14  16
TORSDOF 2
ENDMDL
MODEL      136
REMARK 921   NORMALIZED FREE ENERGY PREDICTED BY IDOCK:   -3.58 KCAL/MOL
REMARK 922        TOTAL FREE ENERGY PREDICTED BY IDOCK:   -4.19 KCAL/MOL
REMARK 923 INTER-LIGAND FREE ENERGY PREDICTED BY IDOCK:   -4.01 KCAL/MOL
REMARK 924 INTRA-LIGAND FREE ENERGY PREDICTED BY IDOCK:   -0.19 KCAL/MOL
REMARK 927      BINDING AFFINITY PREDICTED BY RF-SCORE:    0.00 PKD
ROOT
HETATM    1  C   UNL     1      -9.716   4.830  68.462  1.00  0.00    -0.151 C  
HETATM    2  N   UNL     1      -9.041   3.558  68.760  1.00  0.00    -0.132 NA 
HETATM    3  C   UNL     1      -9.367   3.218  70.101  1.00  0.00    -0.172 C  
HETATM    4  C   UNL     1      -9.389   2.460  67.860  1.00  0.00    -0.188 C  
HETATM    5  C   UNL     1      -9.843   4.511  70.690  1.00  0.00    -0.292 C  
HETATM    6  C   UNL     1      -9.637   5.857  69.837  1.00  0.00    -0.194 C  
HETATM    7  C   UNL     1     -10.684   6.501  70.891  1.00  0.00    -0.289 C  
HETATM    8  C   UNL     1      -9.828   7.098  68.858  1.00  0.00    -0.156 A  
HETATM    9  C   UNL     1      -9.331   6.880  67.582  1.00  0.00    -0.121 A  
HETATM   10  C   UNL     1      -9.128   7.919  66.661  1.00  0.00    -0.199 A  
HETATM   11  N   UNL     1      -9.183   5.546  67.301  1.00  0.00    -0.110 NA 
HETATM   12  C   UNL     1      -8.107   5.063  66.460  1.00  0.00    -0.108 C  
HETATM   13  C   UNL     1      -9.510   9.221  66.959  1.00  0.00    -0.205 A  
HETATM   14  C   UNL     1     -10.152   9.452  68.163  1.00  0.00    -0.181 A  
HETATM   15  C   UNL     1     -10.285   8.421  69.105  1.00  0.00    -0.217 A  
ENDROOT
BRANCH  14  16
HETATM   16  O   UNL     1     -10.637  10.714  68.573  1.00  0.00    -0.178 OA 
BRANCH  16  17
HETATM   17  C   UNL     1     -10.494  11.878  67.819  1.00  0.00    -0.202 C  
HETATM   18  N   UNL     1     -11.668  12.152  67.183  1.00  0.00    -0.335 N  
HETATM   19  O   UNL     1      -9.476  12.555  67.727  1.00  0.00    -0.184 OA 
HETATM   20  H   UNL     1     -12.454  11.516  67.320  1.00  0.00     0.000 HD 
HETATM   21  C   UNL     1     -11.854  13.293  66.328  1.00  0.00    -0.395 C  
ENDBRANCH  16  17
ENDBRANCH  14  16
TORSDOF 2
ENDMDL
MODEL      137
REMARK 921   NORMALIZED FREE ENERGY PREDICTED BY IDOCK:   -3.56 KCAL/MOL
REMARK 922        TOTAL FREE ENERGY PREDICTED BY IDOCK:   -4.17 KCAL/MOL
REMARK 923 INTER-LIGAND FREE ENERGY PREDICTED BY IDOCK:   -3.94 KCAL/MOL
REMARK 924 INTRA-LIGAND FREE ENERGY PREDICTED BY IDOCK:   -0.23 KCAL/MOL
REMARK 927      BINDING AFFINITY PREDICTED BY RF-SCORE:    0.00 PKD
ROOT
HETATM    1  C   UNL     1      -8.007   6.704  66.649  1.00  0.00    -0.105 C  
HETATM    2  N   UNL     1      -7.885   5.272  66.335  1.00  0.00    -0.103 NA 
HETATM    3  C   UNL     1      -7.114   5.171  65.145  1.00  0.00    -0.063 C  
HETATM    4  C   UNL     1      -7.286   4.466  67.397  1.00  0.00    -0.069 C  
HETATM    5  C   UNL     1      -7.193   6.545  64.553  1.00  0.00    -0.064 C  
HETATM    6  C   UNL     1      -8.228   7.592  65.194  1.00  0.00    -0.130 C  
HETATM    7  C   UNL     1      -7.399   8.694  64.348  1.00  0.00    -0.103 C  
HETATM    8  C   UNL     1      -8.911   8.740  66.060  1.00  0.00    -0.235 A  
HETATM    9  C   UNL     1      -9.540   8.274  67.205  1.00  0.00    -0.180 A  
HETATM   10  C   UNL     1     -10.441   9.054  67.944  1.00  0.00    -0.291 A  
HETATM   11  N   UNL     1      -9.089   7.034  67.579  1.00  0.00    -0.123 NA 
HETATM   12  C   UNL     1      -9.968   6.063  68.196  1.00  0.00    -0.147 C  
HETATM   13  C   UNL     1     -10.676  10.382  67.611  1.00  0.00    -0.335 A  
HETATM   14  C   UNL     1      -9.950  10.930  66.569  1.00  0.00    -0.211 A  
HETATM   15  C   UNL     1      -9.106  10.123  65.791  1.00  0.00    -0.206 A  
ENDROOT
BRANCH  14  16
HETATM   16  O   UNL     1     -10.051  12.277  66.153  1.00  0.00    -0.234 OA 
BRANCH  16  17
HETATM   17  C   UNL     1     -10.550  12.666  64.911  1.00  0.00    -0.307 C  
HETATM   18  N   UNL     1     -11.805  12.159  64.749  1.00  0.00    -0.344 N  
HETATM   19  O   UNL     1      -9.961  13.350  64.082  1.00  0.00    -0.269 OA 
HETATM   20  H   UNL     1     -12.199  11.592  65.499  1.00  0.00     0.000 HD 
HETATM   21  C   UNL     1     -12.600  12.385  63.572  1.00  0.00    -0.425 C  
ENDBRANCH  16  17
ENDBRANCH  14  16
TORSDOF 2
ENDMDL
MODEL      138
REMARK 921   NORMALIZED FREE ENERGY PREDICTED BY IDOCK:   -3.55 KCAL/MOL
REMARK 922        TOTAL FREE ENERGY PREDICTED BY IDOCK:   -4.16 KCAL/MOL
REMARK 923 INTER-LIGAND FREE ENERGY PREDICTED BY IDOCK:   -4.04 KCAL/MOL
REMARK 924 INTRA-LIGAND FREE ENERGY PREDICTED BY IDOCK:   -0.12 KCAL/MOL
REMARK 927      BINDING AFFINITY PREDICTED BY RF-SCORE:    0.00 PKD
ROOT
HETATM    1  C   UNL     1      -8.692   9.172  65.335  1.00  0.00    -0.186 C  
HETATM    2  N   UNL     1      -8.736   9.789  64.000  1.00  0.00    -0.199 NA 
HETATM    3  C   UNL     1      -9.500  10.982  64.118  1.00  0.00    -0.242 C  
HETATM    4  C   UNL     1      -7.425  10.081  63.423  1.00  0.00    -0.139 C  
HETATM    5  C   UNL     1     -10.254  10.796  65.399  1.00  0.00    -0.341 C  
HETATM    6  C   UNL     1     -10.220   9.351  66.100  1.00  0.00    -0.264 C  
HETATM    7  C   UNL     1     -10.811  10.132  67.388  1.00  0.00    -0.323 C  
HETATM    8  C   UNL     1      -9.858   8.092  67.003  1.00  0.00    -0.295 A  
HETATM    9  C   UNL     1      -9.003   7.191  66.385  1.00  0.00    -0.155 A  
HETATM   10  C   UNL     1      -8.791   5.892  66.872  1.00  0.00    -0.115 A  
HETATM   11  N   UNL     1      -8.318   7.757  65.340  1.00  0.00    -0.142 NA 
HETATM   12  C   UNL     1      -7.972   6.992  64.159  1.00  0.00    -0.079 C  
HETATM   13  C   UNL     1      -9.366   5.475  68.066  1.00  0.00    -0.120 A  
HETATM   14  C   UNL     1     -10.100   6.396  68.791  1.00  0.00    -0.158 A  
HETATM   15  C   UNL     1     -10.366   7.668  68.262  1.00  0.00    -0.238 A  
ENDROOT
BRANCH  14  16
HETATM   16  O   UNL     1     -10.699   6.123  70.042  1.00  0.00    -0.246 OA 
BRANCH  16  17
HETATM   17  C   UNL     1     -10.236   6.645  71.249  1.00  0.00    -0.200 C  
HETATM   18  N   UNL     1     -10.936   6.090  72.280  1.00  0.00    -0.250 N  
HETATM   19  O   UNL     1      -9.347   7.479  71.379  1.00  0.00    -0.142 OA 
HETATM   20  H   UNL     1     -11.666   5.412  72.061  1.00  0.00     0.000 HD 
HETATM   21  C   UNL     1     -10.695   6.414  73.660  1.00  0.00    -0.212 C  
ENDBRANCH  16  17
ENDBRANCH  14  16
TORSDOF 2
ENDMDL
MODEL      139
REMARK 921   NORMALIZED FREE ENERGY PREDICTED BY IDOCK:   -3.53 KCAL/MOL
REMARK 922        TOTAL FREE ENERGY PREDICTED BY IDOCK:   -4.15 KCAL/MOL
REMARK 923 INTER-LIGAND FREE ENERGY PREDICTED BY IDOCK:   -4.22 KCAL/MOL
REMARK 924 INTRA-LIGAND FREE ENERGY PREDICTED BY IDOCK:    0.07 KCAL/MOL
REMARK 927      BINDING AFFINITY PREDICTED BY RF-SCORE:    0.00 PKD
ROOT
HETATM    1  C   UNL     1     -10.431   7.806  71.173  1.00  0.00    -0.208 C  
HETATM    2  N   UNL     1     -11.076   7.339  72.410  1.00  0.00    -0.259 NA 
HETATM    3  C   UNL     1     -12.279   8.082  72.559  1.00  0.00    -0.242 C  
HETATM    4  C   UNL     1     -11.359   5.905  72.443  1.00  0.00    -0.307 C  
HETATM    5  C   UNL     1     -12.078   9.266  71.662  1.00  0.00    -0.451 C  
HETATM    6  C   UNL     1     -10.618   9.509  71.037  1.00  0.00    -0.392 C  
HETATM    7  C   UNL     1     -11.382  10.537  70.048  1.00  0.00    -0.392 C  
HETATM    8  C   UNL     1      -9.335   9.523  70.095  1.00  0.00    -0.286 A  
HETATM    9  C   UNL     1      -8.435   8.503  70.367  1.00  0.00    -0.137 A  
HETATM   10  C   UNL     1      -7.122   8.500  69.870  1.00  0.00    -0.051 A  
HETATM   11  N   UNL     1      -9.010   7.471  71.062  1.00  0.00    -0.147 NA 
HETATM   12  C   UNL     1      -8.265   6.711  72.044  1.00  0.00    -0.106 C  
HETATM   13  C   UNL     1      -6.690   9.486  68.991  1.00  0.00    -0.050 A  
HETATM   14  C   UNL     1      -7.607  10.433  68.574  1.00  0.00    -0.095 A  
HETATM   15  C   UNL     1      -8.893  10.471  69.132  1.00  0.00    -0.161 A  
ENDROOT
BRANCH  14  16
HETATM   16  O   UNL     1      -7.318  11.462  67.648  1.00  0.00    -0.093 OA 
BRANCH  16  17
HETATM   17  C   UNL     1      -6.708  12.666  67.998  1.00  0.00    -0.095 C  
HETATM   18  N   UNL     1      -6.872  12.885  69.333  1.00  0.00    -0.301 N  
HETATM   19  O   UNL     1      -6.119  13.423  67.234  1.00  0.00    -0.330 OA 
HETATM   20  H   UNL     1      -7.389  12.194  69.878  1.00  0.00     0.000 HD 
HETATM   21  C   UNL     1      -6.352  14.041  70.012  1.00  0.00    -0.118 C  
ENDBRANCH  16  17
ENDBRANCH  14  16
TORSDOF 2
ENDMDL
MODEL      140
REMARK 921   NORMALIZED FREE ENERGY PREDICTED BY IDOCK:   -3.52 KCAL/MOL
REMARK 922        TOTAL FREE ENERGY PREDICTED BY IDOCK:   -4.13 KCAL/MOL
REMARK 923 INTER-LIGAND FREE ENERGY PREDICTED BY IDOCK:   -4.08 KCAL/MOL
REMARK 924 INTRA-LIGAND FREE ENERGY PREDICTED BY IDOCK:   -0.05 KCAL/MOL
REMARK 927      BINDING AFFINITY PREDICTED BY RF-SCORE:    0.00 PKD
ROOT
HETATM    1  C   UNL     1     -10.120  14.005  67.964  1.00  0.00    -0.239 C  
HETATM    2  N   UNL     1     -11.116  15.068  67.759  1.00  0.00    -0.299 NA 
HETATM    3  C   UNL     1     -12.268  14.457  67.194  1.00  0.00    -0.222 C  
HETATM    4  C   UNL     1     -11.475  15.805  68.970  1.00  0.00    -0.391 C  
HETATM    5  C   UNL     1     -11.755  13.151  66.668  1.00  0.00    -0.427 C  
HETATM    6  C   UNL     1     -10.167  12.913  66.638  1.00  0.00    -0.251 C  
HETATM    7  C   UNL     1     -10.559  11.361  66.400  1.00  0.00    -0.311 C  
HETATM    8  C   UNL     1      -8.670  12.502  66.989  1.00  0.00    -0.205 A  
HETATM    9  C   UNL     1      -7.942  13.518  67.591  1.00  0.00    -0.176 A  
HETATM   10  C   UNL     1      -6.545  13.476  67.714  1.00  0.00    -0.175 A  
HETATM   11  N   UNL     1      -8.747  14.480  68.143  1.00  0.00    -0.164 NA 
HETATM   12  C   UNL     1      -8.356  15.875  68.163  1.00  0.00    -0.162 C  
HETATM   13  C   UNL     1      -5.826  12.356  67.317  1.00  0.00    -0.125 A  
HETATM   14  C   UNL     1      -6.532  11.260  66.855  1.00  0.00    -0.128 A  
HETATM   15  C   UNL     1      -7.921  11.337  66.668  1.00  0.00    -0.159 A  
ENDROOT
BRANCH  14  16
HETATM   16  O   UNL     1      -5.936  10.040  66.463  1.00  0.00    -0.057 OA 
BRANCH  16  17
HETATM   17  C   UNL     1      -6.051   9.500  65.183  1.00  0.00    -0.072 C  
HETATM   18  N   UNL     1      -5.982  10.504  64.262  1.00  0.00    -0.327 N  
HETATM   19  O   UNL     1      -6.198   8.314  64.912  1.00  0.00    -0.051 OA 
HETATM   20  H   UNL     1      -5.869  11.461  64.595  1.00  0.00     0.000 HD 
HETATM   21  C   UNL     1      -6.062  10.278  62.844  1.00  0.00    -0.142 C  
ENDBRANCH  16  17
ENDBRANCH  14  16
TORSDOF 2
ENDMDL
MODEL      141
REMARK 921   NORMALIZED FREE ENERGY PREDICTED BY IDOCK:   -3.51 KCAL/MOL
REMARK 922        TOTAL FREE ENERGY PREDICTED BY IDOCK:   -4.12 KCAL/MOL
REMARK 923 INTER-LIGAND FREE ENERGY PREDICTED BY IDOCK:   -4.10 KCAL/MOL
REMARK 924 INTRA-LIGAND FREE ENERGY PREDICTED BY IDOCK:   -0.02 KCAL/MOL
REMARK 927      BINDING AFFINITY PREDICTED BY RF-SCORE:    0.00 PKD
ROOT
HETATM    1  C   UNL     1     -10.037   7.089  70.939  1.00  0.00    -0.193 C  
HETATM    2  N   UNL     1     -10.203   5.629  71.017  1.00  0.00    -0.209 NA 
HETATM    3  C   UNL     1      -8.972   5.048  70.605  1.00  0.00    -0.131 C  
HETATM    4  C   UNL     1     -10.582   5.131  72.338  1.00  0.00    -0.221 C  
HETATM    5  C   UNL     1      -8.283   6.158  69.872  1.00  0.00    -0.120 C  
HETATM    6  C   UNL     1      -9.121   7.487  69.541  1.00  0.00    -0.143 C  
HETATM    7  C   UNL     1      -7.672   8.136  69.225  1.00  0.00    -0.104 C  
HETATM    8  C   UNL     1      -9.782   8.935  69.583  1.00  0.00    -0.175 A  
HETATM    9  C   UNL     1     -11.051   8.950  70.144  1.00  0.00    -0.201 A  
HETATM   10  C   UNL     1     -11.922  10.042  70.016  1.00  0.00    -0.146 A  
HETATM   11  N   UNL     1     -11.291   7.845  70.920  1.00  0.00    -0.275 NA 
HETATM   12  C   UNL     1     -12.610   7.253  71.008  1.00  0.00    -0.263 C  
HETATM   13  C   UNL     1     -11.511  11.213  69.392  1.00  0.00    -0.368 A  
HETATM   14  C   UNL     1     -10.201  11.293  68.955  1.00  0.00    -0.150 A  
HETATM   15  C   UNL     1      -9.361  10.171  69.023  1.00  0.00    -0.192 A  
ENDROOT
BRANCH  14  16
HETATM   16  O   UNL     1      -9.636  12.438  68.348  1.00  0.00    -0.216 OA 
BRANCH  16  17
HETATM   17  C   UNL     1      -9.916  12.836  67.042  1.00  0.00    -0.231 C  
HETATM   18  N   UNL     1     -10.156  11.734  66.275  1.00  0.00    -0.211 N  
HETATM   19  O   UNL     1      -9.940  13.991  66.631  1.00  0.00    -0.263 OA 
HETATM   20  H   UNL     1     -10.100  10.816  66.715  1.00  0.00     0.000 HD 
HETATM   21  C   UNL     1     -10.483  11.804  64.876  1.00  0.00    -0.287 C  
ENDBRANCH  16  17
ENDBRANCH  14  16
TORSDOF 2
ENDMDL
MODEL      142
REMARK 921   NORMALIZED FREE ENERGY PREDICTED BY IDOCK:   -3.50 KCAL/MOL
REMARK 922        TOTAL FREE ENERGY PREDICTED BY IDOCK:   -4.11 KCAL/MOL
REMARK 923 INTER-LIGAND FREE ENERGY PREDICTED BY IDOCK:   -3.92 KCAL/MOL
REMARK 924 INTRA-LIGAND FREE ENERGY PREDICTED BY IDOCK:   -0.19 KCAL/MOL
REMARK 927      BINDING AFFINITY PREDICTED BY RF-SCORE:    0.00 PKD
ROOT
HETATM    1  C   UNL     1     -10.065  11.056  66.058  1.00  0.00    -0.247 C  
HETATM    2  N   UNL     1     -10.723  11.727  64.927  1.00  0.00    -0.284 NA 
HETATM    3  C   UNL     1     -11.670  12.634  65.475  1.00  0.00    -0.402 C  
HETATM    4  C   UNL     1      -9.812  12.429  64.024  1.00  0.00    -0.133 C  
HETATM    5  C   UNL     1     -11.860  12.145  66.878  1.00  0.00    -0.295 C  
HETATM    6  C   UNL     1     -11.225  10.726  67.282  1.00  0.00    -0.272 C  
HETATM    7  C   UNL     1     -11.506  11.207  68.801  1.00  0.00    -0.366 C  
HETATM    8  C   UNL     1     -10.268   9.566  67.804  1.00  0.00    -0.265 A  
HETATM    9  C   UNL     1      -9.485   9.001  66.809  1.00  0.00    -0.182 A  
HETATM   10  C   UNL     1      -8.800   7.789  66.982  1.00  0.00    -0.136 A  
HETATM   11  N   UNL     1      -9.370   9.814  65.711  1.00  0.00    -0.202 NA 
HETATM   12  C   UNL     1      -9.278   9.271  64.371  1.00  0.00     0.043 C  
HETATM   13  C   UNL     1      -8.799   7.138  68.209  1.00  0.00    -0.127 A  
HETATM   14  C   UNL     1      -9.441   7.750  69.271  1.00  0.00    -0.155 A  
HETATM   15  C   UNL     1     -10.183   8.924  69.070  1.00  0.00    -0.217 A  
ENDROOT
BRANCH  14  16
HETATM   16  O   UNL     1      -9.479   7.226  70.583  1.00  0.00    -0.164 OA 
BRANCH  16  17
HETATM   17  C   UNL     1      -8.787   6.082  70.977  1.00  0.00    -0.139 C  
HETATM   18  N   UNL     1      -9.660   5.041  71.089  1.00  0.00    -0.158 N  
HETATM   19  O   UNL     1      -7.583   6.010  71.200  1.00  0.00    -0.095 OA 
HETATM   20  H   UNL     1     -10.646   5.212  70.890  1.00  0.00     0.000 HD 
HETATM   21  C   UNL     1      -9.260   3.715  71.474  1.00  0.00    -0.125 C  
ENDBRANCH  16  17
ENDBRANCH  14  16
TORSDOF 2
ENDMDL
MODEL      143
REMARK 921   NORMALIZED FREE ENERGY PREDICTED BY IDOCK:   -3.48 KCAL/MOL
REMARK 922        TOTAL FREE ENERGY PREDICTED BY IDOCK:   -4.09 KCAL/MOL
REMARK 923 INTER-LIGAND FREE ENERGY PREDICTED BY IDOCK:   -3.91 KCAL/MOL
REMARK 924 INTRA-LIGAND FREE ENERGY PREDICTED BY IDOCK:   -0.18 KCAL/MOL
REMARK 927      BINDING AFFINITY PREDICTED BY RF-SCORE:    0.00 PKD
ROOT
HETATM    1  C   UNL     1      -9.121   5.596  65.953  1.00  0.00    -0.148 C  
HETATM    2  N   UNL     1      -8.443   4.345  65.581  1.00  0.00    -0.114 NA 
HETATM    3  C   UNL     1      -8.702   3.406  66.617  1.00  0.00    -0.126 C  
HETATM    4  C   UNL     1      -8.847   3.796  64.288  1.00  0.00    -0.120 C  
HETATM    5  C   UNL     1      -9.136   4.260  67.769  1.00  0.00    -0.157 C  
HETATM    6  C   UNL     1      -8.962   5.852  67.645  1.00  0.00    -0.107 C  
HETATM    7  C   UNL     1      -9.947   5.905  68.928  1.00  0.00    -0.201 C  
HETATM    8  C   UNL     1      -9.192   7.405  67.379  1.00  0.00    -0.146 A  
HETATM    9  C   UNL     1      -8.764   7.824  66.128  1.00  0.00    -0.156 A  
HETATM   10  C   UNL     1      -8.600   9.178  65.799  1.00  0.00    -0.171 A  
HETATM   11  N   UNL     1      -8.643   6.783  65.243  1.00  0.00    -0.067 NA 
HETATM   12  C   UNL     1      -7.617   6.773  64.221  1.00  0.00    -0.105 C  
HETATM   13  C   UNL     1      -8.955  10.178  66.695  1.00  0.00    -0.156 A  
HETATM   14  C   UNL     1      -9.531   9.803  67.895  1.00  0.00    -0.130 A  
HETATM   15  C   UNL     1      -9.624   8.447  68.244  1.00  0.00    -0.156 A  
ENDROOT
BRANCH  14  16
HETATM   16  O   UNL     1      -9.983  10.714  68.877  1.00  0.00    -0.187 OA 
BRANCH  16  17
HETATM   17  C   UNL     1     -11.096  11.537  68.712  1.00  0.00    -0.233 C  
HETATM   18  N   UNL     1     -11.111  12.479  69.698  1.00  0.00    -0.472 N  
HETATM   19  O   UNL     1     -11.940  11.437  67.830  1.00  0.00    -0.637 OA 
HETATM   20  H   UNL     1     -10.364  12.467  70.392  1.00  0.00     0.000 HD 
HETATM   21  C   UNL     1     -12.129  13.488  69.807  1.00  0.00    -0.318 C  
ENDBRANCH  16  17
ENDBRANCH  14  16
TORSDOF 2
ENDMDL
MODEL      144
REMARK 921   NORMALIZED FREE ENERGY PREDICTED BY IDOCK:   -3.47 KCAL/MOL
REMARK 922        TOTAL FREE ENERGY PREDICTED BY IDOCK:   -4.08 KCAL/MOL
REMARK 923 INTER-LIGAND FREE ENERGY PREDICTED BY IDOCK:   -3.85 KCAL/MOL
REMARK 924 INTRA-LIGAND FREE ENERGY PREDICTED BY IDOCK:   -0.23 KCAL/MOL
REMARK 927      BINDING AFFINITY PREDICTED BY RF-SCORE:    0.00 PKD
ROOT
HETATM    1  C   UNL     1     -10.071  13.768  67.569  1.00  0.00    -0.241 C  
HETATM    2  N   UNL     1     -10.947  14.893  67.206  1.00  0.00    -0.314 NA 
HETATM    3  C   UNL     1     -12.152  14.335  66.698  1.00  0.00    -0.420 C  
HETATM    4  C   UNL     1     -11.238  15.814  68.303  1.00  0.00    -0.356 C  
HETATM    5  C   UNL     1     -11.774  12.925  66.357  1.00  0.00    -0.454 C  
HETATM    6  C   UNL     1     -10.220  12.523  66.394  1.00  0.00    -0.260 C  
HETATM    7  C   UNL     1     -10.771  11.003  66.349  1.00  0.00    -0.286 C  
HETATM    8  C   UNL     1      -8.778  12.010  66.830  1.00  0.00    -0.193 A  
HETATM    9  C   UNL     1      -7.952  13.014  67.313  1.00  0.00    -0.138 A  
HETATM   10  C   UNL     1      -6.569  12.846  67.473  1.00  0.00    -0.160 A  
HETATM   11  N   UNL     1      -8.657  14.119  67.717  1.00  0.00    -0.172 NA 
HETATM   12  C   UNL     1      -8.122  15.456  67.567  1.00  0.00    -0.167 C  
HETATM   13  C   UNL     1      -5.968  11.614  67.240  1.00  0.00    -0.112 A  
HETATM   14  C   UNL     1      -6.781  10.546  66.907  1.00  0.00    -0.086 A  
HETATM   15  C   UNL     1      -8.152  10.742  66.679  1.00  0.00    -0.142 A  
ENDROOT
BRANCH  14  16
HETATM   16  O   UNL     1      -6.313   9.231  66.689  1.00  0.00    -0.064 OA 
BRANCH  16  17
HETATM   17  C   UNL     1      -6.446   8.201  67.620  1.00  0.00    -0.057 C  
HETATM   18  N   UNL     1      -7.299   7.256  67.130  1.00  0.00    -0.091 N  
HETATM   19  O   UNL     1      -5.895   8.144  68.713  1.00  0.00    -0.040 OA 
HETATM   20  H   UNL     1      -7.712   7.407  66.210  1.00  0.00     0.000 HD 
HETATM   21  C   UNL     1      -7.643   6.059  67.847  1.00  0.00    -0.097 C  
ENDBRANCH  16  17
ENDBRANCH  14  16
TORSDOF 2
ENDMDL
MODEL      145
REMARK 921   NORMALIZED FREE ENERGY PREDICTED BY IDOCK:   -3.44 KCAL/MOL
REMARK 922        TOTAL FREE ENERGY PREDICTED BY IDOCK:   -4.05 KCAL/MOL
REMARK 923 INTER-LIGAND FREE ENERGY PREDICTED BY IDOCK:   -4.30 KCAL/MOL
REMARK 924 INTRA-LIGAND FREE ENERGY PREDICTED BY IDOCK:    0.26 KCAL/MOL
REMARK 927      BINDING AFFINITY PREDICTED BY RF-SCORE:    0.00 PKD
ROOT
HETATM    1  C   UNL     1      -8.762   5.758  66.110  1.00  0.00    -0.139 C  
HETATM    2  N   UNL     1      -8.048   4.590  66.648  1.00  0.00    -0.102 NA 
HETATM    3  C   UNL     1      -8.856   4.047  67.684  1.00  0.00    -0.115 C  
HETATM    4  C   UNL     1      -7.735   3.561  65.657  1.00  0.00    -0.082 C  
HETATM    5  C   UNL     1      -9.792   5.166  68.026  1.00  0.00    -0.199 C  
HETATM    6  C   UNL     1      -9.506   6.617  67.399  1.00  0.00    -0.143 C  
HETATM    7  C   UNL     1     -11.015   6.951  67.878  1.00  0.00    -0.260 C  
HETATM    8  C   UNL     1      -9.490   7.914  66.476  1.00  0.00    -0.277 A  
HETATM    9  C   UNL     1      -8.449   7.931  65.560  1.00  0.00    -0.139 A  
HETATM   10  C   UNL     1      -8.074   9.089  64.862  1.00  0.00    -0.137 A  
HETATM   11  N   UNL     1      -7.928   6.682  65.339  1.00  0.00    -0.114 NA 
HETATM   12  C   UNL     1      -6.519   6.486  65.067  1.00  0.00    -0.038 C  
HETATM   13  C   UNL     1      -8.801  10.266  64.989  1.00  0.00    -0.209 A  
HETATM   14  C   UNL     1      -9.939  10.246  65.775  1.00  0.00    -0.271 A  
HETATM   15  C   UNL     1     -10.264   9.105  66.525  1.00  0.00    -0.322 A  
ENDROOT
BRANCH  14  16
HETATM   16  O   UNL     1     -10.798  11.354  65.955  1.00  0.00    -0.279 OA 
BRANCH  16  17
HETATM   17  C   UNL     1     -10.964  12.364  65.008  1.00  0.00    -0.298 C  
HETATM   18  N   UNL     1     -11.883  13.263  65.462  1.00  0.00    -0.350 N  
HETATM   19  O   UNL     1     -10.387  12.439  63.929  1.00  0.00    -0.384 OA 
HETATM   20  H   UNL     1     -12.312  13.099  66.372  1.00  0.00     0.000 HD 
HETATM   21  C   UNL     1     -12.275  14.430  64.720  1.00  0.00    -0.446 C  
ENDBRANCH  16  17
ENDBRANCH  14  16
TORSDOF 2
ENDMDL
MODEL      146
REMARK 921   NORMALIZED FREE ENERGY PREDICTED BY IDOCK:   -3.42 KCAL/MOL
REMARK 922        TOTAL FREE ENERGY PREDICTED BY IDOCK:   -4.02 KCAL/MOL
REMARK 923 INTER-LIGAND FREE ENERGY PREDICTED BY IDOCK:   -3.79 KCAL/MOL
REMARK 924 INTRA-LIGAND FREE ENERGY PREDICTED BY IDOCK:   -0.23 KCAL/MOL
REMARK 927      BINDING AFFINITY PREDICTED BY RF-SCORE:    0.00 PKD
ROOT
HETATM    1  C   UNL     1      -9.141   7.977  67.155  1.00  0.00    -0.137 C  
HETATM    2  N   UNL     1      -9.405   8.715  65.911  1.00  0.00    -0.216 NA 
HETATM    3  C   UNL     1     -10.072   9.917  66.274  1.00  0.00    -0.241 C  
HETATM    4  C   UNL     1      -8.213   9.016  65.119  1.00  0.00    -0.145 C  
HETATM    5  C   UNL     1     -10.580   9.638  67.655  1.00  0.00    -0.334 C  
HETATM    6  C   UNL     1     -10.487   8.134  68.212  1.00  0.00    -0.210 C  
HETATM    7  C   UNL     1     -10.785   8.812  69.650  1.00  0.00    -0.212 C  
HETATM    8  C   UNL     1     -10.023   6.785  68.920  1.00  0.00    -0.159 A  
HETATM    9  C   UNL     1      -9.345   5.919  68.075  1.00  0.00    -0.111 A  
HETATM   10  C   UNL     1      -9.111   4.574  68.401  1.00  0.00    -0.161 A  
HETATM   11  N   UNL     1      -8.842   6.555  66.970  1.00  0.00    -0.115 NA 
HETATM   12  C   UNL     1      -8.764   5.892  65.684  1.00  0.00    -0.146 C  
HETATM   13  C   UNL     1      -9.470   4.067  69.643  1.00  0.00    -0.262 A  
HETATM   14  C   UNL     1     -10.008   4.941  70.571  1.00  0.00    -0.241 A  
HETATM   15  C   UNL     1     -10.305   6.264  70.212  1.00  0.00    -0.258 A  
ENDROOT
BRANCH  14  16
HETATM   16  O   UNL     1     -10.373   4.574  71.887  1.00  0.00    -0.189 OA 
BRANCH  16  17
HETATM   17  C   UNL     1     -10.171   5.389  73.000  1.00  0.00    -0.183 C  
HETATM   18  N   UNL     1      -8.858   5.339  73.364  1.00  0.00    -0.114 N  
HETATM   19  O   UNL     1     -11.030   6.046  73.576  1.00  0.00    -0.238 OA 
HETATM   20  H   UNL     1      -8.226   4.750  72.821  1.00  0.00     0.000 HD 
HETATM   21  C   UNL     1      -8.320   6.076  74.475  1.00  0.00    -0.116 C  
ENDBRANCH  16  17
ENDBRANCH  14  16
TORSDOF 2
ENDMDL
MODEL      147
REMARK 921   NORMALIZED FREE ENERGY PREDICTED BY IDOCK:   -3.40 KCAL/MOL
REMARK 922        TOTAL FREE ENERGY PREDICTED BY IDOCK:   -3.99 KCAL/MOL
REMARK 923 INTER-LIGAND FREE ENERGY PREDICTED BY IDOCK:   -3.76 KCAL/MOL
REMARK 924 INTRA-LIGAND FREE ENERGY PREDICTED BY IDOCK:   -0.23 KCAL/MOL
REMARK 927      BINDING AFFINITY PREDICTED BY RF-SCORE:    0.00 PKD
ROOT
HETATM    1  C   UNL     1      -8.730   7.233  68.512  1.00  0.00    -0.123 C  
HETATM    2  N   UNL     1      -8.172   5.922  68.144  1.00  0.00    -0.108 NA 
HETATM    3  C   UNL     1      -6.817   5.912  68.573  1.00  0.00    -0.070 C  
HETATM    4  C   UNL     1      -8.890   4.779  68.704  1.00  0.00    -0.099 C  
HETATM    5  C   UNL     1      -6.494   7.362  68.766  1.00  0.00    -0.044 C  
HETATM    6  C   UNL     1      -7.550   8.453  68.244  1.00  0.00    -0.098 C  
HETATM    7  C   UNL     1      -6.695   9.487  69.149  1.00  0.00    -0.049 C  
HETATM    8  C   UNL     1      -8.739   9.505  68.128  1.00  0.00    -0.120 A  
HETATM    9  C   UNL     1      -9.923   8.957  67.658  1.00  0.00    -0.196 A  
HETATM   10  C   UNL     1     -10.994   9.742  67.205  1.00  0.00    -0.142 A  
HETATM   11  N   UNL     1      -9.959   7.593  67.803  1.00  0.00    -0.165 NA 
HETATM   12  C   UNL     1     -10.631   6.747  66.839  1.00  0.00    -0.304 C  
HETATM   13  C   UNL     1     -10.951  11.128  67.296  1.00  0.00    -0.354 A  
HETATM   14  C   UNL     1      -9.851  11.707  67.903  1.00  0.00    -0.184 A  
HETATM   15  C   UNL     1      -8.755  10.918  68.286  1.00  0.00    -0.140 A  
ENDROOT
BRANCH  14  16
HETATM   16  O   UNL     1      -9.697  13.097  68.106  1.00  0.00    -0.218 OA 
BRANCH  16  17
HETATM   17  C   UNL     1     -10.725  13.931  68.543  1.00  0.00    -0.257 C  
HETATM   18  N   UNL     1     -11.042  13.620  69.832  1.00  0.00    -0.467 N  
HETATM   19  O   UNL     1     -11.273  14.806  67.881  1.00  0.00    -0.281 OA 
HETATM   20  H   UNL     1     -10.530  12.865  70.289  1.00  0.00     0.000 HD 
HETATM   21  C   UNL     1     -12.062  14.304  70.579  1.00  0.00    -0.343 C  
ENDBRANCH  16  17
ENDBRANCH  14  16
TORSDOF 2
ENDMDL
MODEL      148
REMARK 921   NORMALIZED FREE ENERGY PREDICTED BY IDOCK:   -3.04 KCAL/MOL
REMARK 922        TOTAL FREE ENERGY PREDICTED BY IDOCK:   -3.60 KCAL/MOL
REMARK 923 INTER-LIGAND FREE ENERGY PREDICTED BY IDOCK:   -3.39 KCAL/MOL
REMARK 924 INTRA-LIGAND FREE ENERGY PREDICTED BY IDOCK:   -0.21 KCAL/MOL
REMARK 927      BINDING AFFINITY PREDICTED BY RF-SCORE:    0.00 PKD
ROOT
HETATM    1  C   UNL     1      -9.230   6.635  72.008  1.00  0.00    -0.142 C  
HETATM    2  N   UNL     1      -9.785   6.143  73.278  1.00  0.00    -0.154 NA 
HETATM    3  C   UNL     1     -11.012   5.493  72.973  1.00  0.00    -0.290 C  
HETATM    4  C   UNL     1      -8.903   5.240  74.016  1.00  0.00    -0.117 C  
HETATM    5  C   UNL     1     -11.361   6.015  71.612  1.00  0.00    -0.313 C  
HETATM    6  C   UNL     1     -10.502   7.237  71.022  1.00  0.00    -0.226 C  
HETATM    7  C   UNL     1     -11.193   6.841  69.614  1.00  0.00    -0.345 C  
HETATM    8  C   UNL     1      -9.423   8.131  70.265  1.00  0.00    -0.170 A  
HETATM    9  C   UNL     1      -8.343   8.488  71.058  1.00  0.00    -0.147 A  
HETATM   10  C   UNL     1      -7.439   9.497  70.695  1.00  0.00    -0.136 A  
HETATM   11  N   UNL     1      -8.204   7.670  72.150  1.00  0.00    -0.102 NA 
HETATM   12  C   UNL     1      -7.715   8.174  73.417  1.00  0.00    -0.160 C  
HETATM   13  C   UNL     1      -7.533  10.130  69.461  1.00  0.00    -0.133 A  
HETATM   14  C   UNL     1      -8.504   9.693  68.578  1.00  0.00    -0.118 A  
HETATM   15  C   UNL     1      -9.447   8.734  68.978  1.00  0.00    -0.160 A  
ENDROOT
BRANCH  14  16
HETATM   16  O   UNL     1      -8.682  10.211  67.275  1.00  0.00    -0.128 OA 
BRANCH  16  17
HETATM   17  C   UNL     1      -8.069   9.678  66.142  1.00  0.00    -0.108 C  
HETATM   18  N   UNL     1      -7.207  10.596  65.621  1.00  0.00    -0.284 N  
HETATM   19  O   UNL     1      -8.271   8.564  65.672  1.00  0.00    -0.114 OA 
HETATM   20  H   UNL     1      -7.122  11.500  66.085  1.00  0.00     0.000 HD 
HETATM   21  C   UNL     1      -6.411  10.352  64.449  1.00  0.00    -0.045 C  
ENDBRANCH  16  17
ENDBRANCH  14  16
TORSDOF 2
ENDMDL
MODEL      149
REMARK 921   NORMALIZED FREE ENERGY PREDICTED BY IDOCK:   -2.98 KCAL/MOL
REMARK 922        TOTAL FREE ENERGY PREDICTED BY IDOCK:   -3.52 KCAL/MOL
REMARK 923 INTER-LIGAND FREE ENERGY PREDICTED BY IDOCK:   -3.28 KCAL/MOL
REMARK 924 INTRA-LIGAND FREE ENERGY PREDICTED BY IDOCK:   -0.24 KCAL/MOL
REMARK 927      BINDING AFFINITY PREDICTED BY RF-SCORE:    0.00 PKD
ROOT
HETATM    1  C   UNL     1      -9.768   6.460  72.989  1.00  0.00    -0.154 C  
HETATM    2  N   UNL     1      -9.339   5.263  73.729  1.00  0.00    -0.132 NA 
HETATM    3  C   UNL     1      -8.236   5.647  74.538  1.00  0.00    -0.105 C  
HETATM    4  C   UNL     1     -10.382   4.650  74.550  1.00  0.00    -0.276 C  
HETATM    5  C   UNL     1      -7.768   6.927  73.917  1.00  0.00    -0.112 C  
HETATM    6  C   UNL     1      -8.387   7.356  72.498  1.00  0.00    -0.128 C  
HETATM    7  C   UNL     1      -7.740   8.802  72.827  1.00  0.00     0.150 C  
HETATM    8  C   UNL     1      -9.275   7.993  71.341  1.00  0.00    -0.180 A  
HETATM    9  C   UNL     1     -10.297   7.163  70.904  1.00  0.00    -0.201 A  
HETATM   10  C   UNL     1     -11.003   7.394  69.714  1.00  0.00    -0.215 A  
HETATM   11  N   UNL     1     -10.602   6.186  71.817  1.00  0.00    -0.216 NA 
HETATM   12  C   UNL     1     -11.029   4.866  71.401  1.00  0.00     0.261 C  
HETATM   13  C   UNL     1     -10.770   8.535  68.956  1.00  0.00    -0.113 A  
HETATM   14  C   UNL     1      -9.868   9.465  69.440  1.00  0.00    -0.178 A  
HETATM   15  C   UNL     1      -9.115   9.190  70.592  1.00  0.00    -0.307 A  
ENDROOT
BRANCH  14  16
HETATM   16  O   UNL     1      -9.570  10.689  68.799  1.00  0.00    -0.171 OA 
BRANCH  16  17
HETATM   17  C   UNL     1     -10.504  11.704  68.602  1.00  0.00    -0.213 C  
HETATM   18  N   UNL     1     -10.968  12.133  69.810  1.00  0.00    -0.449 N  
HETATM   19  O   UNL     1     -10.868  12.147  67.518  1.00  0.00    -0.227 OA 
HETATM   20  H   UNL     1     -10.606  11.688  70.654  1.00  0.00     0.000 HD 
HETATM   21  C   UNL     1     -11.942  13.181  69.954  1.00  0.00    -0.317 C  
ENDBRANCH  16  17
ENDBRANCH  14  16
TORSDOF 2
ENDMDL
MODEL      150
REMARK 921   NORMALIZED FREE ENERGY PREDICTED BY IDOCK:   -2.96 KCAL/MOL
REMARK 922        TOTAL FREE ENERGY PREDICTED BY IDOCK:   -3.51 KCAL/MOL
REMARK 923 INTER-LIGAND FREE ENERGY PREDICTED BY IDOCK:   -3.78 KCAL/MOL
REMARK 924 INTRA-LIGAND FREE ENERGY PREDICTED BY IDOCK:    0.27 KCAL/MOL
REMARK 927      BINDING AFFINITY PREDICTED BY RF-SCORE:    0.00 PKD
ROOT
HETATM    1  C   UNL     1      -8.224   6.296  69.335  1.00  0.00    -0.114 C  
HETATM    2  N   UNL     1      -6.980   5.549  69.094  1.00  0.00    -0.061 NA 
HETATM    3  C   UNL     1      -6.333   5.402  70.351  1.00  0.00    -0.030 C  
HETATM    4  C   UNL     1      -7.169   4.243  68.465  1.00  0.00    -0.056 C  
HETATM    5  C   UNL     1      -6.978   6.448  71.207  1.00  0.00    -0.075 C  
HETATM    6  C   UNL     1      -7.937   7.525  70.501  1.00  0.00    -0.098 C  
HETATM    7  C   UNL     1      -8.419   7.856  72.010  1.00  0.00    -0.169 C  
HETATM    8  C   UNL     1      -9.188   8.310  69.907  1.00  0.00    -0.154 A  
HETATM    9  C   UNL     1      -9.413   8.060  68.561  1.00  0.00    -0.142 A  
HETATM   10  C   UNL     1     -10.262   8.854  67.775  1.00  0.00    -0.283 A  
HETATM   11  N   UNL     1      -8.814   6.900  68.139  1.00  0.00    -0.125 NA 
HETATM   12  C   UNL     1      -8.277   6.769  66.800  1.00  0.00    -0.114 C  
HETATM   13  C   UNL     1     -11.000   9.886  68.342  1.00  0.00    -0.235 A  
HETATM   14  C   UNL     1     -10.921  10.068  69.711  1.00  0.00    -0.276 A  
HETATM   15  C   UNL     1     -10.016   9.316  70.475  1.00  0.00    -0.307 A  
ENDROOT
BRANCH  14  16
HETATM   16  O   UNL     1     -11.652  11.045  70.424  1.00  0.00    -0.308 OA 
BRANCH  16  17
HETATM   17  C   UNL     1     -11.689  12.392  70.069  1.00  0.00    -0.230 C  
HETATM   18  N   UNL     1     -10.683  12.656  69.188  1.00  0.00    -0.436 N  
HETATM   19  O   UNL     1     -12.490  13.223  70.483  1.00  0.00    -0.315 OA 
HETATM   20  H   UNL     1     -10.064  11.892  68.916  1.00  0.00     0.000 HD 
HETATM   21  C   UNL     1     -10.452  13.957  68.622  1.00  0.00    -0.246 C  
ENDBRANCH  16  17
ENDBRANCH  14  16
TORSDOF 2
ENDMDL
MODEL      151
REMARK 921   NORMALIZED FREE ENERGY PREDICTED BY IDOCK:   -2.96 KCAL/MOL
REMARK 922        TOTAL FREE ENERGY PREDICTED BY IDOCK:   -3.50 KCAL/MOL
REMARK 923 INTER-LIGAND FREE ENERGY PREDICTED BY IDOCK:   -3.43 KCAL/MOL
REMARK 924 INTRA-LIGAND FREE ENERGY PREDICTED BY IDOCK:   -0.08 KCAL/MOL
REMARK 927      BINDING AFFINITY PREDICTED BY RF-SCORE:    0.00 PKD
ROOT
HETATM    1  C   UNL     1      -8.325   7.591  69.459  1.00  0.00    -0.131 C  
HETATM    2  N   UNL     1      -8.694   6.541  70.421  1.00  0.00    -0.146 NA 
HETATM    3  C   UNL     1      -9.786   5.827  69.859  1.00  0.00    -0.179 C  
HETATM    4  C   UNL     1      -7.609   5.622  70.763  1.00  0.00    -0.091 C  
HETATM    5  C   UNL     1     -10.313   6.754  68.806  1.00  0.00    -0.211 C  
HETATM    6  C   UNL     1      -9.748   8.257  68.763  1.00  0.00    -0.160 C  
HETATM    7  C   UNL     1     -10.432   8.308  67.298  1.00  0.00    -0.373 C  
HETATM    8  C   UNL     1      -8.913   9.574  68.443  1.00  0.00    -0.127 A  
HETATM    9  C   UNL     1      -7.877   9.806  69.335  1.00  0.00    -0.114 A  
HETATM   10  C   UNL     1      -7.212  11.039  69.418  1.00  0.00    -0.114 A  
HETATM   11  N   UNL     1      -7.515   8.674  70.020  1.00  0.00    -0.054 NA 
HETATM   12  C   UNL     1      -7.057   8.733  71.393  1.00  0.00    -0.090 C  
HETATM   13  C   UNL     1      -7.503  12.068  68.531  1.00  0.00    -0.117 A  
HETATM   14  C   UNL     1      -8.421  11.821  67.527  1.00  0.00    -0.154 A  
HETATM   15  C   UNL     1      -9.133  10.612  67.497  1.00  0.00    -0.144 A  
ENDROOT
BRANCH  14  16
HETATM   16  O   UNL     1      -8.777  12.758  66.530  1.00  0.00    -0.117 OA 
BRANCH  16  17
HETATM   17  C   UNL     1      -9.932  13.537  66.580  1.00  0.00    -0.287 C  
HETATM   18  N   UNL     1     -10.180  13.896  67.871  1.00  0.00    -0.237 N  
HETATM   19  O   UNL     1     -10.629  13.851  65.622  1.00  0.00    -0.283 OA 
HETATM   20  H   UNL     1      -9.540  13.571  68.596  1.00  0.00     0.000 HD 
HETATM   21  C   UNL     1     -11.298  14.711  68.262  1.00  0.00    -0.297 C  
ENDBRANCH  16  17
ENDBRANCH  14  16
TORSDOF 2
ENDMDL
MODEL      152
REMARK 921   NORMALIZED FREE ENERGY PREDICTED BY IDOCK:   -2.95 KCAL/MOL
REMARK 922        TOTAL FREE ENERGY PREDICTED BY IDOCK:   -3.50 KCAL/MOL
REMARK 923 INTER-LIGAND FREE ENERGY PREDICTED BY IDOCK:   -3.41 KCAL/MOL
REMARK 924 INTRA-LIGAND FREE ENERGY PREDICTED BY IDOCK:   -0.09 KCAL/MOL
REMARK 927      BINDING AFFINITY PREDICTED BY RF-SCORE:    0.00 PKD
ROOT
HETATM    1  C   UNL     1     -10.136   5.366  71.018  1.00  0.00    -0.216 C  
HETATM    2  N   UNL     1     -10.272   4.553  72.236  1.00  0.00    -0.190 NA 
HETATM    3  C   UNL     1     -11.443   5.001  72.907  1.00  0.00    -0.226 C  
HETATM    4  C   UNL     1     -10.344   3.112  71.999  1.00  0.00     0.063 C  
HETATM    5  C   UNL     1     -11.701   6.350  72.308  1.00  0.00    -0.333 C  
HETATM    6  C   UNL     1     -10.572   6.992  71.363  1.00  0.00    -0.236 C  
HETATM    7  C   UNL     1     -11.743   8.018  70.922  1.00  0.00    -0.265 C  
HETATM    8  C   UNL     1      -9.684   7.440  70.120  1.00  0.00    -0.175 A  
HETATM    9  C   UNL     1      -8.622   6.586  69.860  1.00  0.00    -0.139 A  
HETATM   10  C   UNL     1      -7.558   6.938  69.015  1.00  0.00    -0.104 A  
HETATM   11  N   UNL     1      -8.800   5.347  70.418  1.00  0.00    -0.127 NA 
HETATM   12  C   UNL     1      -7.683   4.576  70.923  1.00  0.00    -0.064 C  
HETATM   13  C   UNL     1      -7.568   8.139  68.317  1.00  0.00    -0.102 A  
HETATM   14  C   UNL     1      -8.684   8.949  68.430  1.00  0.00    -0.134 A  
HETATM   15  C   UNL     1      -9.708   8.623  69.332  1.00  0.00    -0.176 A  
ENDROOT
BRANCH  14  16
HETATM   16  O   UNL     1      -8.850  10.172  67.742  1.00  0.00    -0.125 OA 
BRANCH  16  17
HETATM   17  C   UNL     1     -10.078  10.629  67.266  1.00  0.00    -0.199 C  
HETATM   18  N   UNL     1     -10.579  11.559  68.128  1.00  0.00    -0.188 N  
HETATM   19  O   UNL     1     -10.635  10.257  66.240  1.00  0.00    -0.176 OA 
HETATM   20  H   UNL     1     -10.037  11.789  68.962  1.00  0.00     0.000 HD 
HETATM   21  C   UNL     1     -11.833  12.231  67.921  1.00  0.00    -0.293 C  
ENDBRANCH  16  17
ENDBRANCH  14  16
TORSDOF 2
ENDMDL
MODEL      153
REMARK 921   NORMALIZED FREE ENERGY PREDICTED BY IDOCK:   -2.90 KCAL/MOL
REMARK 922        TOTAL FREE ENERGY PREDICTED BY IDOCK:   -3.44 KCAL/MOL
REMARK 923 INTER-LIGAND FREE ENERGY PREDICTED BY IDOCK:   -3.25 KCAL/MOL
REMARK 924 INTRA-LIGAND FREE ENERGY PREDICTED BY IDOCK:   -0.19 KCAL/MOL
REMARK 927      BINDING AFFINITY PREDICTED BY RF-SCORE:    0.00 PKD
ROOT
HETATM    1  C   UNL     1      -9.445  13.273  68.615  1.00  0.00    -0.016 C  
HETATM    2  N   UNL     1      -9.975  14.591  68.234  1.00  0.00    -0.223 NA 
HETATM    3  C   UNL     1     -11.391  14.519  68.348  1.00  0.00    -0.289 C  
HETATM    4  C   UNL     1      -9.459  15.705  69.027  1.00  0.00    -0.243 C  
HETATM    5  C   UNL     1     -11.673  13.048  68.351  1.00  0.00    -0.386 C  
HETATM    6  C   UNL     1     -10.472  12.042  67.996  1.00  0.00    -0.224 C  
HETATM    7  C   UNL     1     -11.450  10.905  68.604  1.00  0.00    -0.380 C  
HETATM    8  C   UNL     1      -9.234  11.044  68.069  1.00  0.00    -0.159 A  
HETATM    9  C   UNL     1      -8.005  11.671  67.920  1.00  0.00    -0.132 A  
HETATM   10  C   UNL     1      -6.822  10.964  67.659  1.00  0.00    -0.081 A  
HETATM   11  N   UNL     1      -8.073  13.017  68.174  1.00  0.00    -0.147 NA 
HETATM   12  C   UNL     1      -7.250  13.966  67.453  1.00  0.00    -0.093 C  
HETATM   13  C   UNL     1      -6.811   9.575  67.632  1.00  0.00    -0.075 A  
HETATM   14  C   UNL     1      -7.987   8.909  67.929  1.00  0.00    -0.102 A  
HETATM   15  C   UNL     1      -9.179   9.624  68.117  1.00  0.00    -0.130 A  
ENDROOT
BRANCH  14  16
HETATM   16  O   UNL     1      -8.109   7.502  67.985  1.00  0.00    -0.120 OA 
BRANCH  16  17
HETATM   17  C   UNL     1      -8.509   6.719  66.903  1.00  0.00    -0.115 C  
HETATM   18  N   UNL     1      -9.817   6.367  67.059  1.00  0.00    -0.146 N  
HETATM   19  O   UNL     1      -7.804   6.385  65.958  1.00  0.00    -0.096 OA 
HETATM   20  H   UNL     1     -10.310   6.691  67.891  1.00  0.00     0.000 HD 
HETATM   21  C   UNL     1     -10.535   5.562  66.108  1.00  0.00    -0.094 C  
ENDBRANCH  16  17
ENDBRANCH  14  16
TORSDOF 2
ENDMDL
MODEL      154
REMARK 921   NORMALIZED FREE ENERGY PREDICTED BY IDOCK:   -2.88 KCAL/MOL
REMARK 922        TOTAL FREE ENERGY PREDICTED BY IDOCK:   -3.42 KCAL/MOL
REMARK 923 INTER-LIGAND FREE ENERGY PREDICTED BY IDOCK:   -3.34 KCAL/MOL
REMARK 924 INTRA-LIGAND FREE ENERGY PREDICTED BY IDOCK:   -0.08 KCAL/MOL
REMARK 927      BINDING AFFINITY PREDICTED BY RF-SCORE:    0.00 PKD
ROOT
HETATM    1  C   UNL     1      -9.448   9.937  66.202  1.00  0.00    -0.200 C  
HETATM    2  N   UNL     1      -8.772  10.858  65.275  1.00  0.00    -0.173 NA 
HETATM    3  C   UNL     1      -7.796  10.099  64.573  1.00  0.00    -0.141 C  
HETATM    4  C   UNL     1      -9.663  11.534  64.334  1.00  0.00    -0.200 C  
HETATM    5  C   UNL     1      -7.619   8.877  65.421  1.00  0.00    -0.087 C  
HETATM    6  C   UNL     1      -8.296   8.855  66.877  1.00  0.00    -0.112 C  
HETATM    7  C   UNL     1      -7.997   7.266  66.823  1.00  0.00    -0.118 C  
HETATM    8  C   UNL     1      -9.286   8.648  68.106  1.00  0.00    -0.145 A  
HETATM    9  C   UNL     1     -10.088   9.750  68.365  1.00  0.00    -0.166 A  
HETATM   10  C   UNL     1     -10.810   9.896  69.560  1.00  0.00    -0.274 A  
HETATM   11  N   UNL     1     -10.180  10.593  67.287  1.00  0.00    -0.198 NA 
HETATM   12  C   UNL     1     -10.292  12.027  67.455  1.00  0.00    -0.207 C  
HETATM   13  C   UNL     1     -10.827   8.884  70.512  1.00  0.00    -0.276 A  
HETATM   14  C   UNL     1     -10.165   7.705  70.221  1.00  0.00    -0.205 A  
HETATM   15  C   UNL     1      -9.388   7.597  69.057  1.00  0.00    -0.146 A  
ENDROOT
BRANCH  14  16
HETATM   16  O   UNL     1     -10.140   6.579  71.073  1.00  0.00    -0.183 OA 
BRANCH  16  17
HETATM   17  C   UNL     1      -9.075   6.275  71.920  1.00  0.00    -0.143 C  
HETATM   18  N   UNL     1      -9.551   5.674  73.047  1.00  0.00    -0.150 N  
HETATM   19  O   UNL     1      -7.892   6.513  71.702  1.00  0.00    -0.098 OA 
HETATM   20  H   UNL     1     -10.557   5.532  73.134  1.00  0.00     0.000 HD 
HETATM   21  C   UNL     1      -8.703   5.229  74.120  1.00  0.00    -0.116 C  
ENDBRANCH  16  17
ENDBRANCH  14  16
TORSDOF 2
ENDMDL
MODEL      155
REMARK 921   NORMALIZED FREE ENERGY PREDICTED BY IDOCK:   -2.62 KCAL/MOL
REMARK 922        TOTAL FREE ENERGY PREDICTED BY IDOCK:   -3.13 KCAL/MOL
REMARK 923 INTER-LIGAND FREE ENERGY PREDICTED BY IDOCK:   -3.19 KCAL/MOL
REMARK 924 INTRA-LIGAND FREE ENERGY PREDICTED BY IDOCK:    0.06 KCAL/MOL
REMARK 927      BINDING AFFINITY PREDICTED BY RF-SCORE:    0.00 PKD
ROOT
HETATM    1  C   UNL     1      -9.526   4.277  66.624  1.00  0.00    -0.187 C  
HETATM    2  N   UNL     1      -9.043   3.535  65.449  1.00  0.00    -0.139 NA 
HETATM    3  C   UNL     1      -8.908   2.176  65.842  1.00  0.00    -0.120 C  
HETATM    4  C   UNL     1      -9.901   3.640  64.270  1.00  0.00    -0.184 C  
HETATM    5  C   UNL     1      -8.879   2.239  67.339  1.00  0.00    -0.159 C  
HETATM    6  C   UNL     1      -8.751   3.680  68.037  1.00  0.00    -0.128 C  
HETATM    7  C   UNL     1      -9.191   2.896  69.382  1.00  0.00    -0.212 C  
HETATM    8  C   UNL     1      -9.052   5.081  68.731  1.00  0.00    -0.140 A  
HETATM    9  C   UNL     1      -9.113   6.141  67.839  1.00  0.00    -0.117 A  
HETATM   10  C   UNL     1      -9.073   7.481  68.253  1.00  0.00    -0.132 A  
HETATM   11  N   UNL     1      -9.336   5.727  66.551  1.00  0.00    -0.148 NA 
HETATM   12  C   UNL     1      -8.760   6.425  65.420  1.00  0.00    -0.022 C  
HETATM   13  C   UNL     1      -9.063   7.812  69.602  1.00  0.00    -0.146 A  
HETATM   14  C   UNL     1      -9.158   6.785  70.524  1.00  0.00    -0.156 A  
HETATM   15  C   UNL     1      -9.125   5.447  70.103  1.00  0.00    -0.165 A  
ENDROOT
BRANCH  14  16
HETATM   16  O   UNL     1      -9.208   6.979  71.924  1.00  0.00    -0.141 OA 
BRANCH  16  17
HETATM   17  C   UNL     1     -10.302   6.628  72.713  1.00  0.00    -0.203 C  
HETATM   18  N   UNL     1     -10.236   5.300  73.014  1.00  0.00    -0.175 N  
HETATM   19  O   UNL     1     -11.196   7.383  73.079  1.00  0.00    -0.336 OA 
HETATM   20  H   UNL     1      -9.452   4.759  72.648  1.00  0.00     0.000 HD 
HETATM   21  C   UNL     1     -11.215   4.625  73.821  1.00  0.00    -0.179 C  
ENDBRANCH  16  17
ENDBRANCH  14  16
TORSDOF 2
ENDMDL
MODEL      156
REMARK 921   NORMALIZED FREE ENERGY PREDICTED BY IDOCK:   -2.55 KCAL/MOL
REMARK 922        TOTAL FREE ENERGY PREDICTED BY IDOCK:   -3.04 KCAL/MOL
REMARK 923 INTER-LIGAND FREE ENERGY PREDICTED BY IDOCK:   -2.79 KCAL/MOL
REMARK 924 INTRA-LIGAND FREE ENERGY PREDICTED BY IDOCK:   -0.25 KCAL/MOL
REMARK 927      BINDING AFFINITY PREDICTED BY RF-SCORE:    0.00 PKD
ROOT
HETATM    1  C   UNL     1      -9.671   5.636  71.298  1.00  0.00    -0.167 C  
HETATM    2  N   UNL     1     -10.624   4.819  72.064  1.00  0.00    -0.154 NA 
HETATM    3  C   UNL     1     -10.019   3.547  72.258  1.00  0.00    -0.166 C  
HETATM    4  C   UNL     1     -11.021   5.393  73.348  1.00  0.00    -0.297 C  
HETATM    5  C   UNL     1      -8.936   3.507  71.223  1.00  0.00    -0.158 C  
HETATM    6  C   UNL     1      -8.907   4.661  70.107  1.00  0.00    -0.126 C  
HETATM    7  C   UNL     1      -7.412   4.120  69.807  1.00  0.00    -0.049 C  
HETATM    8  C   UNL     1      -8.613   5.990  69.281  1.00  0.00    -0.118 A  
HETATM    9  C   UNL     1      -9.549   6.993  69.490  1.00  0.00    -0.153 A  
HETATM   10  C   UNL     1      -9.652   8.117  68.657  1.00  0.00    -0.151 A  
HETATM   11  N   UNL     1     -10.258   6.810  70.649  1.00  0.00    -0.195 NA 
HETATM   12  C   UNL     1     -11.650   7.199  70.755  1.00  0.00    -0.318 C  
HETATM   13  C   UNL     1      -8.744   8.327  67.626  1.00  0.00    -0.133 A  
HETATM   14  C   UNL     1      -7.702   7.429  67.484  1.00  0.00    -0.111 A  
HETATM   15  C   UNL     1      -7.650   6.271  68.274  1.00  0.00    -0.099 A  
ENDROOT
BRANCH  14  16
HETATM   16  O   UNL     1      -6.683   7.546  66.512  1.00  0.00    -0.055 OA 
BRANCH  16  17
HETATM   17  C   UNL     1      -6.888   8.074  65.238  1.00  0.00    -0.058 C  
HETATM   18  N   UNL     1      -7.467   7.129  64.444  1.00  0.00    -0.089 N  
HETATM   19  O   UNL     1      -6.591   9.206  64.872  1.00  0.00    -0.069 OA 
HETATM   20  H   UNL     1      -7.663   6.212  64.846  1.00  0.00     0.000 HD 
HETATM   21  C   UNL     1      -7.815   7.361  63.069  1.00  0.00    -0.130 C  
ENDBRANCH  16  17
ENDBRANCH  14  16
TORSDOF 2
ENDMDL
MODEL      157
REMARK 921   NORMALIZED FREE ENERGY PREDICTED BY IDOCK:   -2.48 KCAL/MOL
REMARK 922        TOTAL FREE ENERGY PREDICTED BY IDOCK:   -2.96 KCAL/MOL
REMARK 923 INTER-LIGAND FREE ENERGY PREDICTED BY IDOCK:   -2.82 KCAL/MOL
REMARK 924 INTRA-LIGAND FREE ENERGY PREDICTED BY IDOCK:   -0.14 KCAL/MOL
REMARK 927      BINDING AFFINITY PREDICTED BY RF-SCORE:    0.00 PKD
ROOT
HETATM    1  C   UNL     1      -9.059   4.093  69.626  1.00  0.00    -0.119 C  
HETATM    2  N   UNL     1      -8.647   3.222  70.738  1.00  0.00    -0.068 NA 
HETATM    3  C   UNL     1      -8.150   4.067  71.767  1.00  0.00    -0.082 C  
HETATM    4  C   UNL     1      -9.706   2.359  71.258  1.00  0.00    -0.131 C  
HETATM    5  C   UNL     1      -7.864   5.357  71.060  1.00  0.00    -0.103 C  
HETATM    6  C   UNL     1      -7.930   5.376  69.455  1.00  0.00    -0.089 C  
HETATM    7  C   UNL     1      -7.936   6.985  69.629  1.00  0.00    -0.124 C  
HETATM    8  C   UNL     1      -8.397   5.517  67.940  1.00  0.00    -0.099 A  
HETATM    9  C   UNL     1      -8.849   4.329  67.385  1.00  0.00    -0.110 A  
HETATM   10  C   UNL     1      -9.027   4.158  66.004  1.00  0.00    -0.126 A  
HETATM   11  N   UNL     1      -9.206   3.411  68.339  1.00  0.00    -0.158 NA 
HETATM   12  C   UNL     1      -9.011   1.990  68.134  1.00  0.00    -0.144 C  
HETATM   13  C   UNL     1      -8.846   5.218  65.124  1.00  0.00    -0.130 A  
HETATM   14  C   UNL     1      -8.545   6.460  65.655  1.00  0.00    -0.133 A  
HETATM   15  C   UNL     1      -8.298   6.604  67.029  1.00  0.00    -0.113 A  
ENDROOT
BRANCH  14  16
HETATM   16  O   UNL     1      -8.381   7.633  64.884  1.00  0.00    -0.127 OA 
BRANCH  16  17
HETATM   17  C   UNL     1      -8.468   8.921  65.410  1.00  0.00    -0.160 C  
HETATM   18  N   UNL     1      -9.770   9.325  65.403  1.00  0.00    -0.456 N  
HETATM   19  O   UNL     1      -7.529   9.598  65.813  1.00  0.00    -0.095 OA 
HETATM   20  H   UNL     1     -10.474   8.686  65.035  1.00  0.00     0.000 HD 
HETATM   21  C   UNL     1     -10.199  10.609  65.889  1.00  0.00    -0.251 C  
ENDBRANCH  16  17
ENDBRANCH  14  16
TORSDOF 2
ENDMDL
MODEL      158
REMARK 921   NORMALIZED FREE ENERGY PREDICTED BY IDOCK:   -2.36 KCAL/MOL
REMARK 922        TOTAL FREE ENERGY PREDICTED BY IDOCK:   -2.83 KCAL/MOL
REMARK 923 INTER-LIGAND FREE ENERGY PREDICTED BY IDOCK:   -2.59 KCAL/MOL
REMARK 924 INTRA-LIGAND FREE ENERGY PREDICTED BY IDOCK:   -0.24 KCAL/MOL
REMARK 927      BINDING AFFINITY PREDICTED BY RF-SCORE:    0.00 PKD
ROOT
HETATM    1  C   UNL     1      -9.729   5.076  71.306  1.00  0.00    -0.173 C  
HETATM    2  N   UNL     1      -9.368   4.049  72.295  1.00  0.00    -0.121 NA 
HETATM    3  C   UNL     1      -8.966   4.731  73.476  1.00  0.00    -0.107 C  
HETATM    4  C   UNL     1     -10.434   3.096  72.598  1.00  0.00    -0.094 C  
HETATM    5  C   UNL     1      -8.671   6.121  73.000  1.00  0.00    -0.121 C  
HETATM    6  C   UNL     1      -8.629   6.391  71.417  1.00  0.00    -0.130 C  
HETATM    7  C   UNL     1      -8.695   7.952  71.838  1.00  0.00    -0.168 C  
HETATM    8  C   UNL     1      -8.998   6.759  69.913  1.00  0.00    -0.144 A  
HETATM    9  C   UNL     1      -9.376   5.665  69.150  1.00  0.00    -0.124 A  
HETATM   10  C   UNL     1      -9.456   5.710  67.750  1.00  0.00    -0.121 A  
HETATM   11  N   UNL     1      -9.769   4.602  69.922  1.00  0.00    -0.191 NA 
HETATM   12  C   UNL     1      -9.519   3.235  69.512  1.00  0.00    -0.135 C  
HETATM   13  C   UNL     1      -9.246   6.899  67.061  1.00  0.00    -0.160 A  
HETATM   14  C   UNL     1      -9.019   8.047  67.798  1.00  0.00    -0.132 A  
HETATM   15  C   UNL     1      -8.870   7.978  69.192  1.00  0.00    -0.145 A  
ENDROOT
BRANCH  14  16
HETATM   16  O   UNL     1      -8.838   9.329  67.232  1.00  0.00    -0.123 OA 
BRANCH  16  17
HETATM   17  C   UNL     1      -7.630  10.024  67.265  1.00  0.00    -0.095 C  
HETATM   18  N   UNL     1      -7.874  11.346  67.492  1.00  0.00    -0.120 N  
HETATM   19  O   UNL     1      -6.516   9.537  67.108  1.00  0.00    -0.065 OA 
HETATM   20  H   UNL     1      -8.842  11.649  67.598  1.00  0.00     0.000 HD 
HETATM   21  C   UNL     1      -6.833  12.333  67.589  1.00  0.00    -0.124 C  
ENDBRANCH  16  17
ENDBRANCH  14  16
TORSDOF 2
ENDMDL
MODEL      159
REMARK 921   NORMALIZED FREE ENERGY PREDICTED BY IDOCK:   -2.24 KCAL/MOL
REMARK 922        TOTAL FREE ENERGY PREDICTED BY IDOCK:   -2.70 KCAL/MOL
REMARK 923 INTER-LIGAND FREE ENERGY PREDICTED BY IDOCK:   -2.87 KCAL/MOL
REMARK 924 INTRA-LIGAND FREE ENERGY PREDICTED BY IDOCK:    0.17 KCAL/MOL
REMARK 927      BINDING AFFINITY PREDICTED BY RF-SCORE:    0.00 PKD
ROOT
HETATM    1  C   UNL     1     -11.961  12.937  70.787  1.00  0.00    -0.012 C  
HETATM    2  N   UNL     1     -13.309  12.735  71.342  1.00  0.00    -0.147 NA 
HETATM    3  C   UNL     1     -13.528  11.332  71.402  1.00  0.00     0.193 C  
HETATM    4  C   UNL     1     -13.520  13.338  72.657  1.00  0.00    -0.379 C  
HETATM    5  C   UNL     1     -12.499  10.771  70.468  1.00  0.00    -0.447 C  
HETATM    6  C   UNL     1     -11.679  11.792  69.538  1.00  0.00    -0.408 C  
HETATM    7  C   UNL     1     -10.692  10.533  69.292  1.00  0.00    -0.269 C  
HETATM    8  C   UNL     1     -10.590  12.788  68.941  1.00  0.00    -0.154 A  
HETATM    9  C   UNL     1     -10.851  14.123  69.211  1.00  0.00    -0.190 A  
HETATM   10  C   UNL     1     -10.199  15.172  68.544  1.00  0.00    -0.231 A  
HETATM   11  N   UNL     1     -11.711  14.283  70.267  1.00  0.00    -0.285 NA 
HETATM   12  C   UNL     1     -12.666  15.371  70.308  1.00  0.00    -0.298 C  
HETATM   13  C   UNL     1      -9.179  14.915  67.636  1.00  0.00    -0.187 A  
HETATM   14  C   UNL     1      -8.784  13.602  67.455  1.00  0.00    -0.198 A  
HETATM   15  C   UNL     1      -9.490  12.557  68.071  1.00  0.00    -0.209 A  
ENDROOT
BRANCH  14  16
HETATM   16  O   UNL     1      -7.731  13.202  66.601  1.00  0.00     0.303 OA 
BRANCH  16  17
HETATM   17  C   UNL     1      -6.999  12.028  66.777  1.00  0.00     0.052 C  
HETATM   18  N   UNL     1      -6.556  11.586  65.565  1.00  0.00     0.189 N  
HETATM   19  O   UNL     1      -6.787  11.466  67.845  1.00  0.00    -0.068 OA 
HETATM   20  H   UNL     1      -6.800  12.125  64.734  1.00  0.00     0.000 HD 
HETATM   21  C   UNL     1      -5.763  10.398  65.402  1.00  0.00    -0.123 C  
ENDBRANCH  16  17
ENDBRANCH  14  16
TORSDOF 2
ENDMDL
MODEL      160
REMARK 921   NORMALIZED FREE ENERGY PREDICTED BY IDOCK:   -2.16 KCAL/MOL
REMARK 922        TOTAL FREE ENERGY PREDICTED BY IDOCK:   -2.61 KCAL/MOL
REMARK 923 INTER-LIGAND FREE ENERGY PREDICTED BY IDOCK:   -2.78 KCAL/MOL
REMARK 924 INTRA-LIGAND FREE ENERGY PREDICTED BY IDOCK:    0.17 KCAL/MOL
REMARK 927      BINDING AFFINITY PREDICTED BY RF-SCORE:    0.00 PKD
ROOT
HETATM    1  C   UNL     1      -8.480   4.396  70.336  1.00  0.00    -0.077 C  
HETATM    2  N   UNL     1      -7.702   3.214  70.737  1.00  0.00    -0.040 NA 
HETATM    3  C   UNL     1      -6.904   3.599  71.849  1.00  0.00    -0.023 C  
HETATM    4  C   UNL     1      -8.508   2.041  71.073  1.00  0.00    -0.050 C  
HETATM    5  C   UNL     1      -6.899   5.096  71.781  1.00  0.00    -0.056 C  
HETATM    6  C   UNL     1      -7.500   5.801  70.469  1.00  0.00    -0.086 C  
HETATM    7  C   UNL     1      -7.480   7.145  71.370  1.00  0.00    -0.080 C  
HETATM    8  C   UNL     1      -8.452   6.504  69.404  1.00  0.00    -0.127 A  
HETATM    9  C   UNL     1      -9.041   5.617  68.515  1.00  0.00    -0.114 A  
HETATM   10  C   UNL     1      -9.669   6.037  67.332  1.00  0.00    -0.124 A  
HETATM   11  N   UNL     1      -9.038   4.329  68.984  1.00  0.00    -0.119 NA 
HETATM   12  C   UNL     1      -8.895   3.198  68.090  1.00  0.00    -0.123 C  
HETATM   13  C   UNL     1      -9.814   7.388  67.043  1.00  0.00    -0.273 A  
HETATM   14  C   UNL     1      -9.378   8.306  67.981  1.00  0.00    -0.132 A  
HETATM   15  C   UNL     1      -8.686   7.878  69.125  1.00  0.00    -0.138 A  
ENDROOT
BRANCH  14  16
HETATM   16  O   UNL     1      -9.506   9.706  67.840  1.00  0.00    -0.132 OA 
BRANCH  16  17
HETATM   17  C   UNL     1     -10.307  10.315  66.874  1.00  0.00    -0.239 C  
HETATM   18  N   UNL     1      -9.792  10.066  65.637  1.00  0.00    -0.278 N  
HETATM   19  O   UNL     1     -11.314  10.979  67.090  1.00  0.00    -0.399 OA 
HETATM   20  H   UNL     1      -8.940   9.509  65.570  1.00  0.00     0.000 HD 
HETATM   21  C   UNL     1     -10.390  10.550  64.423  1.00  0.00    -0.174 C  
ENDBRANCH  16  17
ENDBRANCH  14  16
TORSDOF 2
ENDMDL
MODEL      161
REMARK 921   NORMALIZED FREE ENERGY PREDICTED BY IDOCK:    0.38 KCAL/MOL
REMARK 922        TOTAL FREE ENERGY PREDICTED BY IDOCK:    0.22 KCAL/MOL
REMARK 923 INTER-LIGAND FREE ENERGY PREDICTED BY IDOCK:    0.39 KCAL/MOL
REMARK 924 INTRA-LIGAND FREE ENERGY PREDICTED BY IDOCK:   -0.17 KCAL/MOL
REMARK 927      BINDING AFFINITY PREDICTED BY RF-SCORE:    0.00 PKD
ROOT
HETATM    1  C   UNL     1     -11.510  15.476  70.946  1.00  0.00    -0.375 C  
HETATM    2  N   UNL     1     -12.634  15.192  71.851  1.00  0.00    -0.322 NA 
HETATM    3  C   UNL     1     -13.209  13.963  71.427  1.00  0.00    -0.321 C  
HETATM    4  C   UNL     1     -12.271  15.120  73.265  1.00  0.00    -0.429 C  
HETATM    5  C   UNL     1     -12.700  13.797  70.027  1.00  0.00    -0.079 C  
HETATM    6  C   UNL     1     -11.940  15.034  69.342  1.00  0.00    -0.336 C  
HETATM    7  C   UNL     1     -11.462  13.938  68.252  1.00  0.00    -0.346 C  
HETATM    8  C   UNL     1     -10.842  16.062  68.819  1.00  0.00    -0.302 A  
HETATM    9  C   UNL     1     -10.628  17.130  69.677  1.00  0.00     0.010 A  
HETATM   10  C   UNL     1      -9.936  18.287  69.287  1.00  0.00    -0.086 A  
HETATM   11  N   UNL     1     -11.058  16.869  70.953  1.00  0.00     0.282 NA 
HETATM   12  C   UNL     1     -11.615  17.910  71.793  1.00  0.00     3.640 C  
HETATM   13  C   UNL     1      -9.343  18.376  68.034  1.00  0.00    -0.304 A  
HETATM   14  C   UNL     1      -9.403  17.269  67.206  1.00  0.00    -0.237 A  
HETATM   15  C   UNL     1     -10.158  16.146  67.576  1.00  0.00    -0.256 A  
ENDROOT
BRANCH  14  16
HETATM   16  O   UNL     1      -8.804  17.203  65.927  1.00  0.00    -0.520 OA 
BRANCH  16  17
HETATM   17  C   UNL     1      -7.469  17.519  65.683  1.00  0.00     0.305 C  
HETATM   18  N   UNL     1      -6.677  16.864  66.578  1.00  0.00    -0.230 N  
HETATM   19  O   UNL     1      -7.057  18.274  64.808  1.00  0.00     0.411 OA 
HETATM   20  H   UNL     1      -7.124  16.267  67.274  1.00  0.00     0.000 HD 
HETATM   21  C   UNL     1      -5.243  16.973  66.590  1.00  0.00    -0.115 C  
ENDBRANCH  16  17
ENDBRANCH  14  16
TORSDOF 2
ENDMDL
MODEL      162
REMARK 921   NORMALIZED FREE ENERGY PREDICTED BY IDOCK:   15.36 KCAL/MOL
REMARK 922        TOTAL FREE ENERGY PREDICTED BY IDOCK:   16.96 KCAL/MOL
REMARK 923 INTER-LIGAND FREE ENERGY PREDICTED BY IDOCK:   17.12 KCAL/MOL
REMARK 924 INTRA-LIGAND FREE ENERGY PREDICTED BY IDOCK:   -0.16 KCAL/MOL
REMARK 927      BINDING AFFINITY PREDICTED BY RF-SCORE:    0.00 PKD
ROOT
HETATM    1  C   UNL     1     -13.085  14.769  70.915  1.00  0.00    -0.363 C  
HETATM    2  N   UNL     1     -13.835  15.390  72.018  1.00  0.00    -0.489 NA 
HETATM    3  C   UNL     1     -14.326  14.334  72.833  1.00  0.00     0.804 C  
HETATM    4  C   UNL     1     -13.061  16.333  72.822  1.00  0.00    -0.116 C  
HETATM    5  C   UNL     1     -14.239  13.130  71.946  1.00  0.00     0.208 C  
HETATM    6  C   UNL     1     -13.904  13.352  70.391  1.00  0.00     1.891 C  
HETATM    7  C   UNL     1     -13.620  11.759  70.383  1.00  0.00     1.904 C  
HETATM    8  C   UNL     1     -13.173  13.511  68.986  1.00  0.00     2.537 A  
HETATM    9  C   UNL     1     -12.870  14.825  68.663  1.00  0.00     1.057 A  
HETATM   10  C   UNL     1     -12.500  15.220  67.368  1.00  0.00     1.024 A  
HETATM   11  N   UNL     1     -12.858  15.644  69.763  1.00  0.00     0.013 NA 
HETATM   12  C   UNL     1     -13.284  17.026  69.684  1.00  0.00     7.134 C  
HETATM   13  C   UNL     1     -12.327  14.282  66.358  1.00  0.00    -0.378 A  
HETATM   14  C   UNL     1     -12.469  12.945  66.680  1.00  0.00     0.255 A  
HETATM   15  C   UNL     1     -12.910  12.565  67.958  1.00  0.00     2.317 A  
ENDROOT
BRANCH  14  16
HETATM   16  O   UNL     1     -12.276  11.884  65.767  1.00  0.00    -0.422 OA 
BRANCH  16  17
HETATM   17  C   UNL     1     -11.260  11.863  64.813  1.00  0.00    -0.297 C  
HETATM   18  N   UNL     1     -10.052  11.965  65.436  1.00  0.00    -0.247 N  
HETATM   19  O   UNL     1     -11.414  11.774  63.600  1.00  0.00    -0.420 OA 
HETATM   20  H   UNL     1     -10.036  12.045  66.453  1.00  0.00     0.000 HD 
HETATM   21  C   UNL     1      -8.799  11.966  64.731  1.00  0.00     0.704 C  
ENDBRANCH  16  17
ENDBRANCH  14  16
TORSDOF 2
ENDMDL
MODEL      163
REMARK 921   NORMALIZED FREE ENERGY PREDICTED BY IDOCK:   46.22 KCAL/MOL
REMARK 922        TOTAL FREE ENERGY PREDICTED BY IDOCK:   51.42 KCAL/MOL
REMARK 923 INTER-LIGAND FREE ENERGY PREDICTED BY IDOCK:   50.57 KCAL/MOL
REMARK 924 INTRA-LIGAND FREE ENERGY PREDICTED BY IDOCK:    0.85 KCAL/MOL
REMARK 927      BINDING AFFINITY PREDICTED BY RF-SCORE:    0.00 PKD
ROOT
HETATM    1  C   UNL     1     -12.465  14.953  69.738  1.00  0.00    -0.185 C  
HETATM    2  N   UNL     1     -13.899  14.747  69.483  1.00  0.00     2.665 NA 
HETATM    3  C   UNL     1     -14.139  15.116  68.132  1.00  0.00    10.034 C  
HETATM    4  C   UNL     1     -14.369  13.385  69.728  1.00  0.00     6.887 C  
HETATM    5  C   UNL     1     -12.946  15.949  67.773  1.00  0.00     3.150 C  
HETATM    6  C   UNL     1     -11.944  16.388  68.949  1.00  0.00     0.240 C  
HETATM    7  C   UNL     1     -10.940  16.772  67.739  1.00  0.00    -0.217 C  
HETATM    8  C   UNL     1     -10.747  16.467  69.995  1.00  0.00    -0.222 A  
HETATM    9  C   UNL     1     -11.045  15.899  71.225  1.00  0.00    -0.134 A  
HETATM   10  C   UNL     1     -10.261  16.115  72.368  1.00  0.00     4.438 A  
HETATM   11  N   UNL     1     -12.101  15.028  71.154  1.00  0.00    -0.294 NA 
HETATM   12  C   UNL     1     -13.034  14.877  72.252  1.00  0.00    -0.341 C  
HETATM   13  C   UNL     1      -9.079  16.842  72.296  1.00  0.00    12.605 A  
HETATM   14  C   UNL     1      -8.668  17.295  71.056  1.00  0.00     6.825 A  
HETATM   15  C   UNL     1      -9.494  17.137  69.933  1.00  0.00     1.047 A  
ENDROOT
BRANCH  14  16
HETATM   16  O   UNL     1      -7.466  18.004  70.829  1.00  0.00     2.977 OA 
BRANCH  16  17
HETATM   17  C   UNL     1      -7.383  19.146  70.033  1.00  0.00     0.523 C  
HETATM   18  N   UNL     1      -8.622  19.458  69.558  1.00  0.00     0.125 N  
HETATM   19  O   UNL     1      -6.361  19.776  69.784  1.00  0.00    -0.320 OA 
HETATM   20  H   UNL     1      -9.406  18.859  69.818  1.00  0.00     0.000 HD 
HETATM   21  C   UNL     1      -8.879  20.589  68.708  1.00  0.00     0.764 C  
ENDBRANCH  16  17
ENDBRANCH  14  16
TORSDOF 2
ENDMDL
