MODEL        1
REMARK 921   NORMALIZED FREE ENERGY PREDICTED BY IDOCK:   -8.32 KCAL/MOL
REMARK 922        TOTAL FREE ENERGY PREDICTED BY IDOCK:   -9.63 KCAL/MOL
REMARK 923 INTER-LIGAND FREE ENERGY PREDICTED BY IDOCK:   -9.29 KCAL/MOL
REMARK 924 INTRA-LIGAND FREE ENERGY PREDICTED BY IDOCK:   -0.34 KCAL/MOL
REMARK 927      BINDING AFFINITY PREDICTED BY RF-SCORE:    0.00 PKD
ROOT
HETATM    1  O   UNL     1      -9.564  20.985  67.496  1.00  0.00    -0.366 OA 
HETATM    2  S   UNL     1      -9.467  19.563  66.741  1.00  0.00    -0.379 S  
HETATM    3  O   UNL     1      -8.146  19.548  66.149  1.00  0.00    -0.324 OA 
HETATM    4  O   UNL     1     -10.652  19.466  65.918  1.00  0.00    -0.497 OA 
HETATM    5  O   UNL     1      -9.544  18.481  67.957  1.00  0.00    -0.292 OA 
ENDROOT
BRANCH   5   6
HETATM    6  C   UNL     1      -9.612  17.137  67.694  1.00  0.00    -0.254 A  
HETATM    7  C   UNL     1      -8.525  16.367  67.290  1.00  0.00    -0.196 A  
HETATM    8  C   UNL     1      -8.678  14.998  67.055  1.00  0.00    -0.262 A  
HETATM    9  C   UNL     1      -9.918  14.363  67.230  1.00  0.00    -0.247 A  
HETATM   10  C   UNL     1     -10.029  12.854  66.967  1.00  0.00    -0.244 C  
HETATM   11  C   UNL     1     -11.004  15.158  67.634  1.00  0.00    -0.308 A  
HETATM   12  C   UNL     1     -10.855  12.492  65.726  1.00  0.00    -0.276 A  
HETATM   13  C   UNL     1     -10.849  16.525  67.886  1.00  0.00    -0.326 A  
HETATM   14  C   UNL     1     -10.360  12.009  68.204  1.00  0.00    -0.207 A  
HETATM   15  C   UNL     1     -10.242  11.814  64.666  1.00  0.00    -0.326 A  
HETATM   16  C   UNL     1     -11.594  12.111  68.861  1.00  0.00    -0.377 A  
HETATM   17  C   UNL     1     -10.988  11.496  63.535  1.00  0.00    -0.453 A  
HETATM   18  C   UNL     1     -11.881  11.342  69.991  1.00  0.00    -0.440 A  
HETATM   19  C   UNL     1     -10.960  10.406  70.450  1.00  0.00    -0.248 A  
HETATM   20  C   UNL     1     -12.327  11.854  63.481  1.00  0.00    -0.603 A  
HETATM   21  C   UNL     1      -9.722  10.293  69.816  1.00  0.00    -0.183 A  
HETATM   22  N   UNL     1     -12.171  12.837  65.684  1.00  0.00    -0.539 NA 
HETATM   23  C   UNL     1     -12.868  12.514  64.572  1.00  0.00    -0.262 A  
HETATM   24  C   UNL     1      -9.423  11.088  68.705  1.00  0.00    -0.190 A  
BRANCH  19  25
HETATM   25  O   UNL     1     -11.179   9.555  71.501  1.00  0.00    -0.372 OA 
HETATM   26  S   UNL     1     -11.991   8.154  71.309  1.00  0.00    -0.278 S  
HETATM   27  O   UNL     1     -13.404   8.423  71.473  1.00  0.00    -0.327 OA 
HETATM   28  O   UNL     1     -11.479   7.433  70.164  1.00  0.00    -0.232 OA 
HETATM   29  O   UNL     1     -11.562   7.328  72.623  1.00  0.00    -0.280 OA 
ENDBRANCH  19  25
ENDBRANCH   5   6
TORSDOF 2
ENDMDL
MODEL        2
REMARK 921   NORMALIZED FREE ENERGY PREDICTED BY IDOCK:   -8.20 KCAL/MOL
REMARK 922        TOTAL FREE ENERGY PREDICTED BY IDOCK:   -9.50 KCAL/MOL
REMARK 923 INTER-LIGAND FREE ENERGY PREDICTED BY IDOCK:   -9.16 KCAL/MOL
REMARK 924 INTRA-LIGAND FREE ENERGY PREDICTED BY IDOCK:   -0.34 KCAL/MOL
REMARK 927      BINDING AFFINITY PREDICTED BY RF-SCORE:    0.00 PKD
ROOT
HETATM    1  O   UNL     1     -10.196  20.535  69.061  1.00  0.00    -0.066 OA 
HETATM    2  S   UNL     1      -9.881  19.229  68.169  1.00  0.00    -0.406 S  
HETATM    3  O   UNL     1      -8.468  19.320  67.866  1.00  0.00    -0.292 OA 
HETATM    4  O   UNL     1     -10.868  19.218  67.112  1.00  0.00    -0.475 OA 
HETATM    5  O   UNL     1     -10.151  17.993  69.195  1.00  0.00    -0.337 OA 
ENDROOT
BRANCH   5   6
HETATM    6  C   UNL     1     -10.101  16.695  68.757  1.00  0.00    -0.270 A  
HETATM    7  C   UNL     1      -8.932  16.055  68.354  1.00  0.00    -0.188 A  
HETATM    8  C   UNL     1      -8.967  14.722  67.932  1.00  0.00    -0.172 A  
HETATM    9  C   UNL     1     -10.168  13.995  67.914  1.00  0.00    -0.240 A  
HETATM   10  C   UNL     1     -10.149  12.531  67.450  1.00  0.00    -0.211 C  
HETATM   11  C   UNL     1     -11.337  14.660  68.321  1.00  0.00    -0.317 A  
HETATM   12  C   UNL     1     -10.846  12.290  66.105  1.00  0.00    -0.279 A  
HETATM   13  C   UNL     1     -11.301  15.988  68.759  1.00  0.00    -0.380 A  
HETATM   14  C   UNL     1     -10.513  11.509  68.534  1.00  0.00    -0.228 A  
HETATM   15  C   UNL     1     -10.104  11.799  65.025  1.00  0.00    -0.302 A  
HETATM   16  C   UNL     1     -11.800  11.446  69.088  1.00  0.00    -0.413 A  
HETATM   17  C   UNL     1     -10.733  11.591  63.800  1.00  0.00    -0.474 A  
HETATM   18  C   UNL     1     -12.118  10.516  70.080  1.00  0.00    -0.380 A  
HETATM   19  C   UNL     1     -11.171   9.585  70.493  1.00  0.00    -0.287 A  
HETATM   20  C   UNL     1     -12.086  11.870  63.677  1.00  0.00    -0.580 A  
HETATM   21  C   UNL     1      -9.882   9.635  69.961  1.00  0.00    -0.286 A  
HETATM   22  N   UNL     1     -12.175  12.556  65.993  1.00  0.00    -0.620 NA 
HETATM   23  C   UNL     1     -12.758  12.343  64.792  1.00  0.00    -0.236 A  
HETATM   24  C   UNL     1      -9.554  10.589  68.992  1.00  0.00    -0.213 A  
BRANCH  19  25
HETATM   25  O   UNL     1     -11.410   8.589  71.403  1.00  0.00    -0.246 OA 
HETATM   26  S   UNL     1     -12.196   7.222  70.984  1.00  0.00    -0.282 S  
HETATM   27  O   UNL     1     -13.617   7.451  71.140  1.00  0.00    -0.307 OA 
HETATM   28  O   UNL     1     -11.639   6.680  69.764  1.00  0.00    -0.351 OA 
HETATM   29  O   UNL     1     -11.796   6.219  72.178  1.00  0.00    -0.322 OA 
ENDBRANCH  19  25
ENDBRANCH   5   6
TORSDOF 2
ENDMDL
MODEL        3
REMARK 921   NORMALIZED FREE ENERGY PREDICTED BY IDOCK:   -7.98 KCAL/MOL
REMARK 922        TOTAL FREE ENERGY PREDICTED BY IDOCK:   -9.25 KCAL/MOL
REMARK 923 INTER-LIGAND FREE ENERGY PREDICTED BY IDOCK:   -8.97 KCAL/MOL
REMARK 924 INTRA-LIGAND FREE ENERGY PREDICTED BY IDOCK:   -0.28 KCAL/MOL
REMARK 927      BINDING AFFINITY PREDICTED BY RF-SCORE:    0.00 PKD
ROOT
HETATM    1  O   UNL     1     -11.053   6.780  72.585  1.00  0.00    -0.250 OA 
HETATM    2  S   UNL     1     -11.786   7.719  71.498  1.00  0.00    -0.304 S  
HETATM    3  O   UNL     1     -13.020   8.129  72.137  1.00  0.00    -0.312 OA 
HETATM    4  O   UNL     1     -11.803   6.966  70.264  1.00  0.00    -0.323 OA 
HETATM    5  O   UNL     1     -10.782   8.995  71.358  1.00  0.00    -0.275 OA 
ENDROOT
BRANCH   5   6
HETATM    6  C   UNL     1     -11.014   9.968  70.421  1.00  0.00    -0.320 A  
HETATM    7  C   UNL     1     -12.250  10.577  70.220  1.00  0.00    -0.393 A  
HETATM    8  C   UNL     1     -12.397  11.572  69.250  1.00  0.00    -0.121 A  
HETATM    9  C   UNL     1     -11.310  11.991  68.465  1.00  0.00    -0.323 A  
HETATM   10  C   UNL     1     -11.525  13.095  67.418  1.00  0.00    -0.375 C  
HETATM   11  C   UNL     1     -10.073  11.361  68.679  1.00  0.00    -0.217 A  
HETATM   12  C   UNL     1     -11.432  12.610  65.967  1.00  0.00    -0.368 A  
HETATM   13  C   UNL     1      -9.919  10.377  69.662  1.00  0.00    -0.209 A  
HETATM   14  C   UNL     1     -10.759  14.395  67.692  1.00  0.00    -0.263 A  
HETATM   15  C   UNL     1     -12.551  12.720  65.133  1.00  0.00    -0.513 A  
HETATM   16  C   UNL     1      -9.359  14.453  67.647  1.00  0.00    -0.200 A  
HETATM   17  C   UNL     1     -12.472  12.269  63.818  1.00  0.00    -0.619 A  
HETATM   18  C   UNL     1      -8.673  15.641  67.904  1.00  0.00    -0.166 A  
HETATM   19  C   UNL     1      -9.378  16.815  68.150  1.00  0.00    -0.234 A  
HETATM   20  C   UNL     1     -11.283  11.723  63.358  1.00  0.00    -0.440 A  
HETATM   21  C   UNL     1     -10.771  16.779  68.208  1.00  0.00    -0.364 A  
HETATM   22  N   UNL     1     -10.260  12.084  65.519  1.00  0.00    -0.250 NA 
HETATM   23  C   UNL     1     -10.215  11.655  64.237  1.00  0.00    -0.311 A  
HETATM   24  C   UNL     1     -11.457  15.581  67.983  1.00  0.00    -0.313 A  
BRANCH  19  25
HETATM   25  O   UNL     1      -8.798  18.042  68.339  1.00  0.00    -0.281 OA 
HETATM   26  S   UNL     1      -8.087  18.847  67.112  1.00  0.00    -0.269 S  
HETATM   27  O   UNL     1      -6.708  18.415  67.025  1.00  0.00    -0.182 OA 
HETATM   28  O   UNL     1      -8.957  18.864  65.956  1.00  0.00    -0.470 OA 
HETATM   29  O   UNL     1      -8.023  20.352  67.683  1.00  0.00    -0.304 OA 
ENDBRANCH  19  25
ENDBRANCH   5   6
TORSDOF 2
ENDMDL
MODEL        4
REMARK 921   NORMALIZED FREE ENERGY PREDICTED BY IDOCK:   -7.61 KCAL/MOL
REMARK 922        TOTAL FREE ENERGY PREDICTED BY IDOCK:   -8.84 KCAL/MOL
REMARK 923 INTER-LIGAND FREE ENERGY PREDICTED BY IDOCK:   -9.09 KCAL/MOL
REMARK 924 INTRA-LIGAND FREE ENERGY PREDICTED BY IDOCK:    0.25 KCAL/MOL
REMARK 927      BINDING AFFINITY PREDICTED BY RF-SCORE:    0.00 PKD
ROOT
HETATM    1  O   UNL     1     -10.305  20.681  69.123  1.00  0.00     0.056 OA 
HETATM    2  S   UNL     1      -9.963  19.380  68.234  1.00  0.00    -0.445 S  
HETATM    3  O   UNL     1      -8.545  19.483  67.957  1.00  0.00    -0.310 OA 
HETATM    4  O   UNL     1     -10.930  19.364  67.160  1.00  0.00    -0.483 OA 
HETATM    5  O   UNL     1     -10.241  18.140  69.253  1.00  0.00    -0.286 OA 
ENDROOT
BRANCH   5   6
HETATM    6  C   UNL     1     -10.172  16.843  68.812  1.00  0.00    -0.311 A  
HETATM    7  C   UNL     1      -8.992  16.217  68.420  1.00  0.00    -0.196 A  
HETATM    8  C   UNL     1      -9.007  14.885  67.995  1.00  0.00    -0.172 A  
HETATM    9  C   UNL     1     -10.200  14.145  67.963  1.00  0.00    -0.232 A  
HETATM   10  C   UNL     1     -10.160  12.681  67.496  1.00  0.00    -0.212 C  
HETATM   11  C   UNL     1     -11.381  14.796  68.359  1.00  0.00    -0.317 A  
HETATM   12  C   UNL     1     -10.840  12.436  66.144  1.00  0.00    -0.273 A  
HETATM   13  C   UNL     1     -11.365  16.123  68.800  1.00  0.00    -0.359 A  
HETATM   14  C   UNL     1     -10.525  11.654  68.574  1.00  0.00    -0.236 A  
HETATM   15  C   UNL     1     -10.081  11.955  65.071  1.00  0.00    -0.297 A  
HETATM   16  C   UNL     1     -11.817  11.575  69.115  1.00  0.00    -0.406 A  
HETATM   17  C   UNL     1     -10.695  11.742  63.839  1.00  0.00    -0.457 A  
HETATM   18  C   UNL     1     -12.136  10.640  70.101  1.00  0.00    -0.414 A  
HETATM   19  C   UNL     1     -11.183   9.719  70.523  1.00  0.00    -0.315 A  
HETATM   20  C   UNL     1     -12.049  12.007  63.701  1.00  0.00    -0.627 A  
HETATM   21  C   UNL     1      -9.889   9.783  70.005  1.00  0.00    -0.295 A  
HETATM   22  N   UNL     1     -12.171  12.687  66.018  1.00  0.00    -0.597 NA 
HETATM   23  C   UNL     1     -12.739  12.471  64.810  1.00  0.00    -0.330 A  
HETATM   24  C   UNL     1      -9.561  10.743  69.042  1.00  0.00    -0.193 A  
BRANCH  19  25
HETATM   25  O   UNL     1     -11.420   8.718  71.428  1.00  0.00    -0.260 OA 
HETATM   26  S   UNL     1     -10.202   7.858  72.089  1.00  0.00    -0.248 S  
HETATM   27  O   UNL     1      -9.906   6.743  71.214  1.00  0.00    -0.177 OA 
HETATM   28  O   UNL     1      -9.167   8.747  72.569  1.00  0.00    -0.347 OA 
HETATM   29  O   UNL     1     -10.907   7.205  73.381  1.00  0.00    -0.351 OA 
ENDBRANCH  19  25
ENDBRANCH   5   6
TORSDOF 2
ENDMDL
MODEL        5
REMARK 921   NORMALIZED FREE ENERGY PREDICTED BY IDOCK:   -7.42 KCAL/MOL
REMARK 922        TOTAL FREE ENERGY PREDICTED BY IDOCK:   -8.62 KCAL/MOL
REMARK 923 INTER-LIGAND FREE ENERGY PREDICTED BY IDOCK:   -8.42 KCAL/MOL
REMARK 924 INTRA-LIGAND FREE ENERGY PREDICTED BY IDOCK:   -0.20 KCAL/MOL
REMARK 927      BINDING AFFINITY PREDICTED BY RF-SCORE:    0.00 PKD
ROOT
HETATM    1  O   UNL     1      -6.008  21.065  66.646  1.00  0.00    -0.222 OA 
HETATM    2  S   UNL     1      -6.695  19.609  66.736  1.00  0.00    -0.197 S  
HETATM    3  O   UNL     1      -5.703  18.771  67.375  1.00  0.00    -0.153 OA 
HETATM    4  O   UNL     1      -7.175  19.310  65.405  1.00  0.00    -0.448 OA 
HETATM    5  O   UNL     1      -7.955  19.845  67.742  1.00  0.00    -0.282 OA 
ENDROOT
BRANCH   5   6
HETATM    6  C   UNL     1      -8.863  18.844  67.973  1.00  0.00    -0.306 A  
HETATM    7  C   UNL     1     -10.163  18.843  67.474  1.00  0.00    -0.456 A  
HETATM    8  C   UNL     1     -11.023  17.775  67.747  1.00  0.00    -0.103 A  
HETATM    9  C   UNL     1     -10.600  16.678  68.515  1.00  0.00    -0.338 A  
HETATM   10  C   UNL     1     -11.582  15.526  68.778  1.00  0.00    -0.390 C  
HETATM   11  C   UNL     1      -9.286  16.700  69.013  1.00  0.00    -0.227 A  
HETATM   12  C   UNL     1     -12.050  15.420  70.234  1.00  0.00    -0.369 A  
HETATM   13  C   UNL     1      -8.419  17.760  68.726  1.00  0.00    -0.214 A  
HETATM   14  C   UNL     1     -11.180  14.185  68.153  1.00  0.00    -0.299 A  
HETATM   15  C   UNL     1     -13.408  15.575  70.533  1.00  0.00    -0.079 A  
HETATM   16  C   UNL     1     -10.046  13.479  68.580  1.00  0.00    -0.215 A  
HETATM   17  C   UNL     1     -13.833  15.491  71.856  1.00  0.00    -0.589 A  
HETATM   18  C   UNL     1      -9.686  12.262  67.998  1.00  0.00    -0.205 A  
HETATM   19  C   UNL     1     -10.491  11.693  67.017  1.00  0.00    -0.224 A  
HETATM   20  C   UNL     1     -12.900  15.251  72.854  1.00  0.00    -0.541 A  
HETATM   21  C   UNL     1     -11.620  12.380  66.571  1.00  0.00    -0.447 A  
HETATM   22  N   UNL     1     -11.131  15.174  71.207  1.00  0.00    -0.279 NA 
HETATM   23  C   UNL     1     -11.574  15.098  72.483  1.00  0.00    -0.347 A  
HETATM   24  C   UNL     1     -11.961  13.616  67.131  1.00  0.00    -0.434 A  
BRANCH  19  25
HETATM   25  O   UNL     1     -10.263  10.470  66.442  1.00  0.00    -0.226 OA 
HETATM   26  S   UNL     1      -9.212  10.291  65.207  1.00  0.00    -0.221 S  
HETATM   27  O   UNL     1      -9.921  10.535  63.969  1.00  0.00    -0.320 OA 
HETATM   28  O   UNL     1      -7.963  10.953  65.515  1.00  0.00    -0.113 OA 
HETATM   29  O   UNL     1      -8.929   8.706  65.228  1.00  0.00    -0.181 OA 
ENDBRANCH  19  25
ENDBRANCH   5   6
TORSDOF 2
ENDMDL
MODEL        6
REMARK 921   NORMALIZED FREE ENERGY PREDICTED BY IDOCK:   -7.40 KCAL/MOL
REMARK 922        TOTAL FREE ENERGY PREDICTED BY IDOCK:   -8.61 KCAL/MOL
REMARK 923 INTER-LIGAND FREE ENERGY PREDICTED BY IDOCK:   -8.34 KCAL/MOL
REMARK 924 INTRA-LIGAND FREE ENERGY PREDICTED BY IDOCK:   -0.27 KCAL/MOL
REMARK 927      BINDING AFFINITY PREDICTED BY RF-SCORE:    0.00 PKD
ROOT
HETATM    1  O   UNL     1      -6.372  21.371  66.605  1.00  0.00    -0.376 OA 
HETATM    2  S   UNL     1      -7.023  19.899  66.705  1.00  0.00    -0.223 S  
HETATM    3  O   UNL     1      -5.987  19.075  67.291  1.00  0.00    -0.165 OA 
HETATM    4  O   UNL     1      -7.553  19.605  65.392  1.00  0.00    -0.401 OA 
HETATM    5  O   UNL     1      -8.244  20.094  67.767  1.00  0.00    -0.304 OA 
ENDROOT
BRANCH   5   6
HETATM    6  C   UNL     1      -9.119  19.070  68.023  1.00  0.00    -0.307 A  
HETATM    7  C   UNL     1     -10.433  19.037  67.563  1.00  0.00    -0.537 A  
HETATM    8  C   UNL     1     -11.257  17.947  67.860  1.00  0.00     0.293 A  
HETATM    9  C   UNL     1     -10.784  16.861  68.613  1.00  0.00    -0.345 A  
HETATM   10  C   UNL     1     -11.729  15.684  68.904  1.00  0.00    -0.396 C  
HETATM   11  C   UNL     1      -9.457  16.916  69.073  1.00  0.00    -0.199 A  
HETATM   12  C   UNL     1     -12.151  15.566  70.373  1.00  0.00    -0.392 A  
HETATM   13  C   UNL     1      -8.626  17.998  68.762  1.00  0.00    -0.212 A  
HETATM   14  C   UNL     1     -11.312  14.354  68.266  1.00  0.00    -0.311 A  
HETATM   15  C   UNL     1     -13.504  15.687  70.711  1.00  0.00    -0.066 A  
HETATM   16  C   UNL     1     -10.148  13.677  68.659  1.00  0.00    -0.182 A  
HETATM   17  C   UNL     1     -13.887  15.591  72.046  1.00  0.00    -0.602 A  
HETATM   18  C   UNL     1      -9.774  12.470  68.066  1.00  0.00    -0.215 A  
HETATM   19  C   UNL     1     -10.593  11.880  67.108  1.00  0.00    -0.231 A  
HETATM   20  C   UNL     1     -12.920  15.375  73.016  1.00  0.00    -0.598 A  
HETATM   21  C   UNL     1     -11.751  12.539  66.696  1.00  0.00    -0.453 A  
HETATM   22  N   UNL     1     -11.199  15.343  71.318  1.00  0.00    -0.370 NA 
HETATM   23  C   UNL     1     -11.602  15.255  72.606  1.00  0.00    -0.375 A  
HETATM   24  C   UNL     1     -12.107  13.766  67.266  1.00  0.00    -0.393 A  
BRANCH  19  25
HETATM   25  O   UNL     1     -10.351  10.665  66.525  1.00  0.00    -0.232 OA 
HETATM   26  S   UNL     1      -9.930   9.361  67.412  1.00  0.00    -0.215 S  
HETATM   27  O   UNL     1      -8.491   9.365  67.567  1.00  0.00    -0.121 OA 
HETATM   28  O   UNL     1     -10.821   9.219  68.542  1.00  0.00    -0.175 OA 
HETATM   29  O   UNL     1     -10.243   8.147  66.402  1.00  0.00    -0.239 OA 
ENDBRANCH  19  25
ENDBRANCH   5   6
TORSDOF 2
ENDMDL
MODEL        7
REMARK 921   NORMALIZED FREE ENERGY PREDICTED BY IDOCK:   -7.38 KCAL/MOL
REMARK 922        TOTAL FREE ENERGY PREDICTED BY IDOCK:   -8.58 KCAL/MOL
REMARK 923 INTER-LIGAND FREE ENERGY PREDICTED BY IDOCK:   -8.56 KCAL/MOL
REMARK 924 INTRA-LIGAND FREE ENERGY PREDICTED BY IDOCK:   -0.02 KCAL/MOL
REMARK 927      BINDING AFFINITY PREDICTED BY RF-SCORE:    0.00 PKD
ROOT
HETATM    1  O   UNL     1     -13.246  16.739  73.960  1.00  0.00    -0.402 OA 
HETATM    2  S   UNL     1     -12.849  15.449  73.077  1.00  0.00    -0.521 S  
HETATM    3  O   UNL     1     -14.106  14.781  72.813  1.00  0.00    -0.472 OA 
HETATM    4  O   UNL     1     -11.789  14.781  73.799  1.00  0.00    -0.262 OA 
HETATM    5  O   UNL     1     -12.263  16.096  71.701  1.00  0.00    -0.460 OA 
ENDROOT
BRANCH   5   6
HETATM    6  C   UNL     1     -11.705  15.298  70.735  1.00  0.00    -0.337 A  
HETATM    7  C   UNL     1     -10.416  15.467  70.238  1.00  0.00    -0.282 A  
HETATM    8  C   UNL     1      -9.918  14.600  69.260  1.00  0.00    -0.100 A  
HETATM    9  C   UNL     1     -10.692  13.538  68.766  1.00  0.00    -0.261 A  
HETATM   10  C   UNL     1     -10.093  12.610  67.698  1.00  0.00    -0.218 C  
HETATM   11  C   UNL     1     -11.992  13.388  69.278  1.00  0.00    -0.367 A  
HETATM   12  C   UNL     1     -10.738  12.748  66.314  1.00  0.00    -0.270 A  
HETATM   13  C   UNL     1     -12.486  14.244  70.268  1.00  0.00    -0.422 A  
HETATM   14  C   UNL     1      -9.891  11.158  68.150  1.00  0.00    -0.188 A  
HETATM   15  C   UNL     1      -9.956  13.167  65.231  1.00  0.00    -0.184 A  
HETATM   16  C   UNL     1     -10.974  10.319  68.450  1.00  0.00    -0.308 A  
HETATM   17  C   UNL     1     -10.543  13.305  63.976  1.00  0.00    -0.217 A  
HETATM   18  C   UNL     1     -10.778   9.001  68.868  1.00  0.00    -0.149 A  
HETATM   19  C   UNL     1      -9.492   8.475  68.933  1.00  0.00    -0.147 A  
HETATM   20  C   UNL     1     -11.891  13.019  63.822  1.00  0.00    -0.566 A  
HETATM   21  C   UNL     1      -8.400   9.294  68.647  1.00  0.00    -0.118 A  
HETATM   22  N   UNL     1     -12.058  12.456  66.167  1.00  0.00    -0.641 NA 
HETATM   23  C   UNL     1     -12.599  12.599  64.936  1.00  0.00    -0.450 A  
HETATM   24  C   UNL     1      -8.596  10.624  68.262  1.00  0.00    -0.128 A  
BRANCH  19  25
HETATM   25  O   UNL     1      -9.203   7.176  69.258  1.00  0.00    -0.141 OA 
HETATM   26  S   UNL     1     -10.250   5.964  68.944  1.00  0.00    -0.221 S  
HETATM   27  O   UNL     1     -11.158   5.848  70.066  1.00  0.00    -0.359 OA 
HETATM   28  O   UNL     1     -10.727   6.058  67.582  1.00  0.00    -0.248 OA 
HETATM   29  O   UNL     1      -9.303   4.665  69.030  1.00  0.00    -0.119 OA 
ENDBRANCH  19  25
ENDBRANCH   5   6
TORSDOF 2
ENDMDL
MODEL        8
REMARK 921   NORMALIZED FREE ENERGY PREDICTED BY IDOCK:   -7.18 KCAL/MOL
REMARK 922        TOTAL FREE ENERGY PREDICTED BY IDOCK:   -8.36 KCAL/MOL
REMARK 923 INTER-LIGAND FREE ENERGY PREDICTED BY IDOCK:   -8.56 KCAL/MOL
REMARK 924 INTRA-LIGAND FREE ENERGY PREDICTED BY IDOCK:    0.20 KCAL/MOL
REMARK 927      BINDING AFFINITY PREDICTED BY RF-SCORE:    0.00 PKD
ROOT
HETATM    1  O   UNL     1      -8.608   7.446  72.395  1.00  0.00    -0.113 OA 
HETATM    2  S   UNL     1      -8.597   8.391  71.088  1.00  0.00    -0.170 S  
HETATM    3  O   UNL     1      -8.406   7.483  69.977  1.00  0.00    -0.131 OA 
HETATM    4  O   UNL     1      -7.643   9.442  71.361  1.00  0.00    -0.340 OA 
HETATM    5  O   UNL     1     -10.106   9.005  71.050  1.00  0.00    -0.232 OA 
ENDROOT
BRANCH   5   6
HETATM    6  C   UNL     1     -10.449   9.963  70.131  1.00  0.00    -0.285 A  
HETATM    7  C   UNL     1     -11.728  10.500  70.008  1.00  0.00    -0.394 A  
HETATM    8  C   UNL     1     -11.991  11.484  69.050  1.00  0.00    -0.377 A  
HETATM    9  C   UNL     1     -10.980  11.962  68.202  1.00  0.00    -0.272 A  
HETATM   10  C   UNL     1     -11.321  13.051  67.173  1.00  0.00    -0.348 C  
HETATM   11  C   UNL     1      -9.697  11.405  68.338  1.00  0.00    -0.203 A  
HETATM   12  C   UNL     1     -11.290  12.570  65.717  1.00  0.00    -0.336 A  
HETATM   13  C   UNL     1      -9.428  10.432  69.307  1.00  0.00    -0.214 A  
HETATM   14  C   UNL     1     -10.615  14.393  67.401  1.00  0.00    -0.270 A  
HETATM   15  C   UNL     1     -12.462  12.616  64.953  1.00  0.00    -0.564 A  
HETATM   16  C   UNL     1      -9.226  14.531  67.270  1.00  0.00    -0.213 A  
HETATM   17  C   UNL     1     -12.439  12.169  63.635  1.00  0.00    -0.658 A  
HETATM   18  C   UNL     1      -8.593  15.756  67.488  1.00  0.00    -0.180 A  
HETATM   19  C   UNL     1      -9.347  16.888  67.780  1.00  0.00    -0.235 A  
HETATM   20  C   UNL     1     -11.252  11.690  63.102  1.00  0.00    -0.180 A  
HETATM   21  C   UNL     1     -10.730  16.773  67.922  1.00  0.00    -0.347 A  
HETATM   22  N   UNL     1     -10.120  12.112  65.196  1.00  0.00    -0.264 NA 
HETATM   23  C   UNL     1     -10.129  11.684  63.913  1.00  0.00    -0.357 A  
HETATM   24  C   UNL     1     -11.359  15.538  67.738  1.00  0.00    -0.286 A  
BRANCH  19  25
HETATM   25  O   UNL     1      -8.828  18.146  67.935  1.00  0.00    -0.259 OA 
HETATM   26  S   UNL     1      -8.535  19.113  66.654  1.00  0.00    -0.321 S  
HETATM   27  O   UNL     1      -7.203  18.825  66.164  1.00  0.00    -0.238 OA 
HETATM   28  O   UNL     1      -9.684  19.138  65.776  1.00  0.00    -0.428 OA 
HETATM   29  O   UNL     1      -8.427  20.566  67.341  1.00  0.00    -0.341 OA 
ENDBRANCH  19  25
ENDBRANCH   5   6
TORSDOF 2
ENDMDL
MODEL        9
REMARK 921   NORMALIZED FREE ENERGY PREDICTED BY IDOCK:   -7.15 KCAL/MOL
REMARK 922        TOTAL FREE ENERGY PREDICTED BY IDOCK:   -8.32 KCAL/MOL
REMARK 923 INTER-LIGAND FREE ENERGY PREDICTED BY IDOCK:   -7.96 KCAL/MOL
REMARK 924 INTRA-LIGAND FREE ENERGY PREDICTED BY IDOCK:   -0.36 KCAL/MOL
REMARK 927      BINDING AFFINITY PREDICTED BY RF-SCORE:    0.00 PKD
ROOT
HETATM    1  O   UNL     1     -10.855  19.752  66.735  1.00  0.00    -0.472 OA 
HETATM    2  S   UNL     1     -10.184  18.372  66.240  1.00  0.00    -0.388 S  
HETATM    3  O   UNL     1      -8.795  18.701  65.999  1.00  0.00    -0.489 OA 
HETATM    4  O   UNL     1     -11.026  17.876  65.175  1.00  0.00    -0.642 OA 
HETATM    5  O   UNL     1     -10.306  17.401  67.543  1.00  0.00    -0.327 OA 
ENDROOT
BRANCH   5   6
HETATM    6  C   UNL     1      -9.943  16.080  67.469  1.00  0.00    -0.240 A  
HETATM    7  C   UNL     1      -8.637  15.623  67.618  1.00  0.00    -0.177 A  
HETATM    8  C   UNL     1      -8.354  14.256  67.541  1.00  0.00    -0.198 A  
HETATM    9  C   UNL     1      -9.372  13.313  67.324  1.00  0.00    -0.226 A  
HETATM   10  C   UNL     1      -9.008  11.822  67.256  1.00  0.00    -0.172 C  
HETATM   11  C   UNL     1     -10.683  13.795  67.171  1.00  0.00    -0.283 A  
HETATM   12  C   UNL     1      -9.156  11.203  65.860  1.00  0.00    -0.203 A  
HETATM   13  C   UNL     1     -10.970  15.161  67.265  1.00  0.00    -0.327 A  
HETATM   14  C   UNL     1      -9.598  10.966  68.383  1.00  0.00    -0.177 A  
HETATM   15  C   UNL     1      -8.028  10.680  65.218  1.00  0.00    -0.060 A  
HETATM   16  C   UNL     1     -10.978  10.751  68.505  1.00  0.00    -0.291 A  
HETATM   17  C   UNL     1      -8.158  10.128  63.947  1.00  0.00    -0.157 A  
HETATM   18  C   UNL     1     -11.504   9.975  69.540  1.00  0.00    -0.176 A  
HETATM   19  C   UNL     1     -10.652   9.344  70.441  1.00  0.00    -0.261 A  
HETATM   20  C   UNL     1      -9.405  10.104  63.342  1.00  0.00    -0.334 A  
HETATM   21  C   UNL     1      -9.275   9.551  70.344  1.00  0.00    -0.305 A  
HETATM   22  N   UNL     1     -10.384  11.173  65.277  1.00  0.00    -0.268 NA 
HETATM   23  C   UNL     1     -10.479  10.631  64.042  1.00  0.00    -0.080 A  
HETATM   24  C   UNL     1      -8.752  10.356  69.327  1.00  0.00    -0.160 A  
BRANCH  19  25
HETATM   25  O   UNL     1     -11.066   8.505  71.441  1.00  0.00    -0.239 OA 
HETATM   26  S   UNL     1     -12.081   7.262  71.147  1.00  0.00    -0.337 S  
HETATM   27  O   UNL     1     -13.439   7.752  71.248  1.00  0.00    -0.277 OA 
HETATM   28  O   UNL     1     -11.624   6.507  70.001  1.00  0.00    -0.407 OA 
HETATM   29  O   UNL     1     -11.868   6.334  72.445  1.00  0.00    -0.291 OA 
ENDBRANCH  19  25
ENDBRANCH   5   6
TORSDOF 2
ENDMDL
MODEL       10
REMARK 921   NORMALIZED FREE ENERGY PREDICTED BY IDOCK:   -7.05 KCAL/MOL
REMARK 922        TOTAL FREE ENERGY PREDICTED BY IDOCK:   -8.21 KCAL/MOL
REMARK 923 INTER-LIGAND FREE ENERGY PREDICTED BY IDOCK:   -8.08 KCAL/MOL
REMARK 924 INTRA-LIGAND FREE ENERGY PREDICTED BY IDOCK:   -0.13 KCAL/MOL
REMARK 927      BINDING AFFINITY PREDICTED BY RF-SCORE:    0.00 PKD
ROOT
HETATM    1  O   UNL     1     -13.434  16.574  73.930  1.00  0.00    -0.513 OA 
HETATM    2  S   UNL     1     -13.022  15.317  73.007  1.00  0.00    -0.544 S  
HETATM    3  O   UNL     1     -14.272  14.652  72.707  1.00  0.00    -0.443 OA 
HETATM    4  O   UNL     1     -11.966  14.629  73.717  1.00  0.00    -0.233 OA 
HETATM    5  O   UNL     1     -12.425  16.013  71.661  1.00  0.00    -0.461 OA 
ENDROOT
BRANCH   5   6
HETATM    6  C   UNL     1     -11.853  15.252  70.674  1.00  0.00    -0.335 A  
HETATM    7  C   UNL     1     -10.596  15.501  70.130  1.00  0.00    -0.336 A  
HETATM    8  C   UNL     1     -10.079  14.667  69.134  1.00  0.00    -0.178 A  
HETATM    9  C   UNL     1     -10.802  13.557  68.666  1.00  0.00    -0.281 A  
HETATM   10  C   UNL     1     -10.185  12.668  67.576  1.00  0.00    -0.215 C  
HETATM   11  C   UNL     1     -12.071  13.325  69.225  1.00  0.00    -0.291 A  
HETATM   12  C   UNL     1     -10.887  12.763  66.216  1.00  0.00    -0.275 A  
HETATM   13  C   UNL     1     -12.582  14.149  70.234  1.00  0.00    -0.367 A  
HETATM   14  C   UNL     1      -9.876  11.233  68.019  1.00  0.00    -0.186 A  
HETATM   15  C   UNL     1     -10.174  13.231  65.107  1.00  0.00    -0.301 A  
HETATM   16  C   UNL     1     -10.891  10.326  68.357  1.00  0.00    -0.288 A  
HETATM   17  C   UNL     1     -10.813  13.329  63.874  1.00  0.00    -0.178 A  
HETATM   18  C   UNL     1     -10.597   9.024  68.765  1.00  0.00    -0.196 A  
HETATM   19  C   UNL     1      -9.279   8.580  68.783  1.00  0.00    -0.142 A  
HETATM   20  C   UNL     1     -12.145  12.958  63.768  1.00  0.00    -0.583 A  
HETATM   21  C   UNL     1      -8.251   9.467  68.458  1.00  0.00    -0.113 A  
HETATM   22  N   UNL     1     -12.191  12.388  66.117  1.00  0.00    -0.609 NA 
HETATM   23  C   UNL     1     -12.784  12.495  64.907  1.00  0.00    -0.287 A  
HETATM   24  C   UNL     1      -8.545  10.781  68.082  1.00  0.00    -0.129 A  
BRANCH  19  25
HETATM   25  O   UNL     1      -8.896   7.302  69.095  1.00  0.00    -0.136 OA 
HETATM   26  S   UNL     1      -8.422   6.898  70.603  1.00  0.00    -0.137 S  
HETATM   27  O   UNL     1      -7.001   7.152  70.714  1.00  0.00    -0.059 OA 
HETATM   28  O   UNL     1      -9.367   7.402  71.575  1.00  0.00    -0.144 OA 
HETATM   29  O   UNL     1      -8.565   5.294  70.586  1.00  0.00    -0.117 OA 
ENDBRANCH  19  25
ENDBRANCH   5   6
TORSDOF 2
ENDMDL
MODEL       11
REMARK 921   NORMALIZED FREE ENERGY PREDICTED BY IDOCK:   -6.70 KCAL/MOL
REMARK 922        TOTAL FREE ENERGY PREDICTED BY IDOCK:   -7.82 KCAL/MOL
REMARK 923 INTER-LIGAND FREE ENERGY PREDICTED BY IDOCK:   -7.68 KCAL/MOL
REMARK 924 INTRA-LIGAND FREE ENERGY PREDICTED BY IDOCK:   -0.14 KCAL/MOL
REMARK 927      BINDING AFFINITY PREDICTED BY RF-SCORE:    0.00 PKD
ROOT
HETATM    1  O   UNL     1     -11.574   7.918  73.136  1.00  0.00    -0.292 OA 
HETATM    2  S   UNL     1     -11.992   8.465  71.678  1.00  0.00    -0.327 S  
HETATM    3  O   UNL     1     -13.259   9.135  71.883  1.00  0.00    -0.356 OA 
HETATM    4  O   UNL     1     -11.885   7.335  70.781  1.00  0.00    -0.309 OA 
HETATM    5  O   UNL     1     -10.834   9.558  71.336  1.00  0.00    -0.347 OA 
ENDROOT
BRANCH   5   6
HETATM    6  C   UNL     1     -10.782  10.162  70.106  1.00  0.00    -0.300 A  
HETATM    7  C   UNL     1     -11.889  10.344  69.282  1.00  0.00    -0.165 A  
HETATM    8  C   UNL     1     -11.751  10.982  68.045  1.00  0.00    -0.257 A  
HETATM    9  C   UNL     1     -10.505  11.462  67.609  1.00  0.00    -0.225 A  
HETATM   10  C   UNL     1     -10.411  12.164  66.245  1.00  0.00    -0.250 C  
HETATM   11  C   UNL     1      -9.400  11.265  68.453  1.00  0.00    -0.181 A  
HETATM   12  C   UNL     1      -9.644  11.368  65.182  1.00  0.00    -0.229 A  
HETATM   13  C   UNL     1      -9.539  10.642  69.698  1.00  0.00     0.024 A  
HETATM   14  C   UNL     1     -10.026  13.647  66.312  1.00  0.00    -0.305 A  
HETATM   15  C   UNL     1     -10.306  10.958  64.020  1.00  0.00    -0.417 A  
HETATM   16  C   UNL     1      -8.763  14.065  66.754  1.00  0.00    -0.134 A  
HETATM   17  C   UNL     1      -9.615  10.225  63.059  1.00  0.00    -0.297 A  
HETATM   18  C   UNL     1      -8.427  15.419  66.817  1.00  0.00    -0.307 A  
HETATM   19  C   UNL     1      -9.328  16.382  66.378  1.00  0.00    -0.292 A  
HETATM   20  C   UNL     1      -8.279   9.919  63.272  1.00  0.00    -0.158 A  
HETATM   21  C   UNL     1     -10.594  15.990  65.942  1.00  0.00    -0.338 A  
HETATM   22  N   UNL     1      -8.331  11.080  65.392  1.00  0.00    -0.060 NA 
HETATM   23  C   UNL     1      -7.686  10.367  64.441  1.00  0.00    -0.042 A  
HETATM   24  C   UNL     1     -10.942  14.636  65.911  1.00  0.00    -0.332 A  
BRANCH  19  25
HETATM   25  O   UNL     1      -9.064  17.726  66.330  1.00  0.00    -0.388 OA 
HETATM   26  S   UNL     1      -9.474  18.720  67.556  1.00  0.00    -0.303 S  
HETATM   27  O   UNL     1     -10.833  19.169  67.341  1.00  0.00    -0.483 OA 
HETATM   28  O   UNL     1      -9.045  18.159  68.818  1.00  0.00    -0.298 OA 
HETATM   29  O   UNL     1      -8.553  20.010  67.271  1.00  0.00    -0.312 OA 
ENDBRANCH  19  25
ENDBRANCH   5   6
TORSDOF 2
ENDMDL
MODEL       12
REMARK 921   NORMALIZED FREE ENERGY PREDICTED BY IDOCK:   -6.51 KCAL/MOL
REMARK 922        TOTAL FREE ENERGY PREDICTED BY IDOCK:   -7.61 KCAL/MOL
REMARK 923 INTER-LIGAND FREE ENERGY PREDICTED BY IDOCK:   -7.64 KCAL/MOL
REMARK 924 INTRA-LIGAND FREE ENERGY PREDICTED BY IDOCK:    0.04 KCAL/MOL
REMARK 927      BINDING AFFINITY PREDICTED BY RF-SCORE:    0.00 PKD
ROOT
HETATM    1  O   UNL     1     -10.946   6.998  73.228  1.00  0.00    -0.303 OA 
HETATM    2  S   UNL     1     -11.201   7.500  71.717  1.00  0.00    -0.253 S  
HETATM    3  O   UNL     1     -12.604   7.241  71.473  1.00  0.00    -0.345 OA 
HETATM    4  O   UNL     1     -10.178   6.874  70.909  1.00  0.00    -0.197 OA 
HETATM    5  O   UNL     1     -10.939   9.106  71.801  1.00  0.00    -0.353 OA 
ENDROOT
BRANCH   5   6
HETATM    6  C   UNL     1     -10.946   9.877  70.667  1.00  0.00    -0.337 A  
HETATM    7  C   UNL     1     -12.104  10.290  70.014  1.00  0.00    -0.230 A  
HETATM    8  C   UNL     1     -12.022  11.086  68.868  1.00  0.00    -0.332 A  
HETATM    9  C   UNL     1     -10.782  11.499  68.355  1.00  0.00    -0.241 A  
HETATM   10  C   UNL     1     -10.749  12.381  67.098  1.00  0.00    -0.264 C  
HETATM   11  C   UNL     1      -9.625  11.068  69.025  1.00  0.00    -0.136 A  
HETATM   12  C   UNL     1     -10.195  11.679  65.852  1.00  0.00    -0.238 A  
HETATM   13  C   UNL     1      -9.705  10.285  70.182  1.00  0.00     0.065 A  
HETATM   14  C   UNL     1     -10.190  13.792  67.319  1.00  0.00    -0.253 A  
HETATM   15  C   UNL     1     -11.019  11.514  64.733  1.00  0.00    -0.338 A  
HETATM   16  C   UNL     1      -8.847  14.012  67.658  1.00  0.00    -0.190 A  
HETATM   17  C   UNL     1     -10.521  10.866  63.605  1.00  0.00    -0.301 A  
HETATM   18  C   UNL     1      -8.351  15.300  67.864  1.00  0.00    -0.152 A  
HETATM   19  C   UNL     1      -9.175  16.404  67.672  1.00  0.00    -0.199 A  
HETATM   20  C   UNL     1      -9.215  10.400  63.613  1.00  0.00    -0.310 A  
HETATM   21  C   UNL     1     -10.517  16.209  67.341  1.00  0.00    -0.310 A  
HETATM   22  N   UNL     1      -8.910  11.233  65.861  1.00  0.00    -0.191 NA 
HETATM   23  C   UNL     1      -8.455  10.608  64.752  1.00  0.00    -0.100 A  
HETATM   24  C   UNL     1     -11.021  14.916  67.169  1.00  0.00    -0.323 A  
BRANCH  19  25
HETATM   25  O   UNL     1      -8.763  17.706  67.775  1.00  0.00    -0.227 OA 
HETATM   26  S   UNL     1      -8.739  18.700  66.482  1.00  0.00    -0.287 S  
HETATM   27  O   UNL     1      -7.465  18.543  65.813  1.00  0.00    -0.471 OA 
HETATM   28  O   UNL     1      -9.993  18.615  65.766  1.00  0.00    -0.504 OA 
HETATM   29  O   UNL     1      -8.680  20.154  67.170  1.00  0.00    -0.322 OA 
ENDBRANCH  19  25
ENDBRANCH   5   6
TORSDOF 2
ENDMDL
MODEL       13
REMARK 921   NORMALIZED FREE ENERGY PREDICTED BY IDOCK:   -6.49 KCAL/MOL
REMARK 922        TOTAL FREE ENERGY PREDICTED BY IDOCK:   -7.59 KCAL/MOL
REMARK 923 INTER-LIGAND FREE ENERGY PREDICTED BY IDOCK:   -7.20 KCAL/MOL
REMARK 924 INTRA-LIGAND FREE ENERGY PREDICTED BY IDOCK:   -0.38 KCAL/MOL
REMARK 927      BINDING AFFINITY PREDICTED BY RF-SCORE:    0.00 PKD
ROOT
HETATM    1  O   UNL     1     -13.945  15.755  71.233  1.00  0.00    -0.526 OA 
HETATM    2  S   UNL     1     -13.083  14.513  71.793  1.00  0.00    -0.372 S  
HETATM    3  O   UNL     1     -13.782  14.087  72.988  1.00  0.00    -0.612 OA 
HETATM    4  O   UNL     1     -11.714  14.974  71.858  1.00  0.00    -0.376 OA 
HETATM    5  O   UNL     1     -13.237  13.386  70.627  1.00  0.00     0.021 OA 
ENDROOT
BRANCH   5   6
HETATM    6  C   UNL     1     -12.533  12.211  70.692  1.00  0.00    -0.242 A  
HETATM    7  C   UNL     1     -12.833  11.172  71.569  1.00  0.00    -0.542 A  
HETATM    8  C   UNL     1     -12.071  10.000  71.561  1.00  0.00    -0.475 A  
HETATM    9  C   UNL     1     -10.999   9.834  70.669  1.00  0.00    -0.398 A  
HETATM   10  C   UNL     1     -10.199   8.523  70.696  1.00  0.00    -0.230 C  
HETATM   11  C   UNL     1     -10.710  10.896  69.795  1.00  0.00    -0.193 A  
HETATM   12  C   UNL     1      -8.768   8.671  71.226  1.00  0.00    -0.194 A  
HETATM   13  C   UNL     1     -11.482  12.063  69.790  1.00  0.00    -0.284 A  
HETATM   14  C   UNL     1     -10.308   7.679  69.420  1.00  0.00    -0.214 A  
HETATM   15  C   UNL     1      -8.390   7.985  72.385  1.00  0.00    -0.205 A  
HETATM   16  C   UNL     1      -9.783   8.117  68.196  1.00  0.00    -0.180 A  
HETATM   17  C   UNL     1      -7.094   8.127  72.874  1.00  0.00    -0.130 A  
HETATM   18  C   UNL     1      -9.894   7.344  67.039  1.00  0.00    -0.273 A  
HETATM   19  C   UNL     1     -10.478   6.083  67.097  1.00  0.00    -0.264 A  
HETATM   20  C   UNL     1      -6.201   8.946  72.199  1.00  0.00    -0.049 A  
HETATM   21  C   UNL     1     -11.013   5.629  68.303  1.00  0.00    -0.030 A  
HETATM   22  N   UNL     1      -7.893   9.467  70.553  1.00  0.00    -0.174 NA 
HETATM   23  C   UNL     1      -6.642   9.586  71.053  1.00  0.00    -0.059 A  
HETATM   24  C   UNL     1     -10.932   6.420  69.453  1.00  0.00    -0.421 A  
BRANCH  19  25
HETATM   25  O   UNL     1     -10.566   5.220  66.036  1.00  0.00    -0.210 OA 
HETATM   26  S   UNL     1      -9.250   4.458  65.445  1.00  0.00    -0.162 S  
HETATM   27  O   UNL     1      -8.634   5.318  64.456  1.00  0.00    -0.144 OA 
HETATM   28  O   UNL     1      -8.489   3.867  66.524  1.00  0.00    -0.104 OA 
HETATM   29  O   UNL     1      -9.904   3.250  64.605  1.00  0.00    -0.162 OA 
ENDBRANCH  19  25
ENDBRANCH   5   6
TORSDOF 2
ENDMDL
MODEL       14
REMARK 921   NORMALIZED FREE ENERGY PREDICTED BY IDOCK:   -6.43 KCAL/MOL
REMARK 922        TOTAL FREE ENERGY PREDICTED BY IDOCK:   -7.52 KCAL/MOL
REMARK 923 INTER-LIGAND FREE ENERGY PREDICTED BY IDOCK:   -7.18 KCAL/MOL
REMARK 924 INTRA-LIGAND FREE ENERGY PREDICTED BY IDOCK:   -0.34 KCAL/MOL
REMARK 927      BINDING AFFINITY PREDICTED BY RF-SCORE:    0.00 PKD
ROOT
HETATM    1  O   UNL     1      -7.588   6.904  71.082  1.00  0.00    -0.085 OA 
HETATM    2  S   UNL     1      -8.643   7.590  70.074  1.00  0.00    -0.139 S  
HETATM    3  O   UNL     1      -9.942   7.169  70.554  1.00  0.00    -0.187 OA 
HETATM    4  O   UNL     1      -8.199   7.252  68.740  1.00  0.00    -0.126 OA 
HETATM    5  O   UNL     1      -8.442   9.185  70.340  1.00  0.00    -0.157 OA 
ENDROOT
BRANCH   5   6
HETATM    6  C   UNL     1      -9.094  10.112  69.568  1.00  0.00    -0.195 A  
HETATM    7  C   UNL     1     -10.392  10.552  69.812  1.00  0.00    -0.211 A  
HETATM    8  C   UNL     1     -10.980  11.511  68.982  1.00  0.00    -0.285 A  
HETATM    9  C   UNL     1     -10.280  12.061  67.895  1.00  0.00    -0.203 A  
HETATM   10  C   UNL     1     -10.969  13.118  67.019  1.00  0.00    -0.289 C  
HETATM   11  C   UNL     1      -8.973  11.600  67.663  1.00  0.00    -0.166 A  
HETATM   12  C   UNL     1     -11.308  12.636  65.603  1.00  0.00    -0.322 A  
HETATM   13  C   UNL     1      -8.377  10.653  68.503  1.00  0.00    -0.130 A  
HETATM   14  C   UNL     1     -10.327  14.509  67.068  1.00  0.00    -0.263 A  
HETATM   15  C   UNL     1     -12.645  12.592  65.194  1.00  0.00    -0.459 A  
HETATM   16  C   UNL     1      -9.041  14.749  66.562  1.00  0.00    -0.291 A  
HETATM   17  C   UNL     1     -12.955  12.144  63.913  1.00  0.00    -0.323 A  
HETATM   18  C   UNL     1      -8.463  16.019  66.618  1.00  0.00    -0.323 A  
HETATM   19  C   UNL     1      -9.187  17.092  67.126  1.00  0.00    -0.236 A  
HETATM   20  C   UNL     1     -11.930  11.753  63.065  1.00  0.00    -0.021 A  
HETATM   21  C   UNL     1     -10.465  16.876  67.642  1.00  0.00    -0.332 A  
HETATM   22  N   UNL     1     -10.297  12.264  64.773  1.00  0.00    -0.283 NA 
HETATM   23  C   UNL     1     -10.629  11.833  63.534  1.00  0.00    -0.440 A  
HETATM   24  C   UNL     1     -11.029  15.597  67.617  1.00  0.00    -0.315 A  
BRANCH  19  25
HETATM   25  O   UNL     1      -8.736  18.386  67.154  1.00  0.00    -0.252 OA 
HETATM   26  S   UNL     1      -8.111  19.042  68.510  1.00  0.00    -0.356 S  
HETATM   27  O   UNL     1      -9.198  19.600  69.287  1.00  0.00    -0.245 OA 
HETATM   28  O   UNL     1      -7.136  18.148  69.093  1.00  0.00    -0.256 OA 
HETATM   29  O   UNL     1      -7.307  20.314  67.934  1.00  0.00    -0.294 OA 
ENDBRANCH  19  25
ENDBRANCH   5   6
TORSDOF 2
ENDMDL
MODEL       15
REMARK 921   NORMALIZED FREE ENERGY PREDICTED BY IDOCK:   -6.34 KCAL/MOL
REMARK 922        TOTAL FREE ENERGY PREDICTED BY IDOCK:   -7.42 KCAL/MOL
REMARK 923 INTER-LIGAND FREE ENERGY PREDICTED BY IDOCK:   -7.05 KCAL/MOL
REMARK 924 INTRA-LIGAND FREE ENERGY PREDICTED BY IDOCK:   -0.37 KCAL/MOL
REMARK 927      BINDING AFFINITY PREDICTED BY RF-SCORE:    0.00 PKD
ROOT
HETATM    1  O   UNL     1      -9.376   6.519  73.692  1.00  0.00    -0.129 OA 
HETATM    2  S   UNL     1      -9.693   7.805  72.772  1.00  0.00    -0.259 S  
HETATM    3  O   UNL     1      -8.768   8.822  73.226  1.00  0.00    -0.313 OA 
HETATM    4  O   UNL     1     -11.122   8.011  72.852  1.00  0.00    -0.392 OA 
HETATM    5  O   UNL     1      -9.285   7.311  71.274  1.00  0.00    -0.150 OA 
ENDROOT
BRANCH   5   6
HETATM    6  C   UNL     1      -9.531   8.105  70.184  1.00  0.00    -0.167 A  
HETATM    7  C   UNL     1     -10.684   8.027  69.409  1.00  0.00    -0.167 A  
HETATM    8  C   UNL     1     -10.862   8.885  68.319  1.00  0.00    -0.048 A  
HETATM    9  C   UNL     1      -9.895   9.847  67.985  1.00  0.00    -0.170 A  
HETATM   10  C   UNL     1     -10.144  10.771  66.783  1.00  0.00    -0.267 C  
HETATM   11  C   UNL     1      -8.736   9.907  68.777  1.00  0.00    -0.132 A  
HETATM   12  C   UNL     1      -9.220  10.507  65.587  1.00  0.00    -0.186 A  
HETATM   13  C   UNL     1      -8.565   9.061  69.878  1.00  0.00    -0.143 A  
HETATM   14  C   UNL     1     -10.299  12.255  67.135  1.00  0.00    -0.234 A  
HETATM   15  C   UNL     1      -9.775  10.105  64.367  1.00  0.00    -0.345 A  
HETATM   16  C   UNL     1      -9.235  13.009  67.651  1.00  0.00    -0.200 A  
HETATM   17  C   UNL     1      -8.937   9.853  63.284  1.00  0.00    -0.276 A  
HETATM   18  C   UNL     1      -9.390  14.358  67.975  1.00  0.00    -0.200 A  
HETATM   19  C   UNL     1     -10.599  15.000  67.729  1.00  0.00    -0.264 A  
HETATM   20  C   UNL     1      -7.567  10.010  63.435  1.00  0.00    -0.142 A  
HETATM   21  C   UNL     1     -11.674  14.268  67.223  1.00  0.00    -0.422 A  
HETATM   22  N   UNL     1      -7.879  10.673  65.739  1.00  0.00    -0.157 NA 
HETATM   23  C   UNL     1      -7.091  10.421  64.669  1.00  0.00    -0.017 A  
HETATM   24  C   UNL     1     -11.528  12.908  66.931  1.00  0.00    -0.393 A  
BRANCH  19  25
HETATM   25  O   UNL     1     -10.825  16.334  67.941  1.00  0.00    -0.325 OA 
HETATM   26  S   UNL     1      -9.965  17.480  67.162  1.00  0.00    -0.327 S  
HETATM   27  O   UNL     1      -8.768  17.750  67.930  1.00  0.00    -0.241 OA 
HETATM   28  O   UNL     1      -9.915  17.189  65.746  1.00  0.00    -0.530 OA 
HETATM   29  O   UNL     1     -10.890  18.785  67.347  1.00  0.00    -0.449 OA 
ENDBRANCH  19  25
ENDBRANCH   5   6
TORSDOF 2
ENDMDL
MODEL       16
REMARK 921   NORMALIZED FREE ENERGY PREDICTED BY IDOCK:   -6.30 KCAL/MOL
REMARK 922        TOTAL FREE ENERGY PREDICTED BY IDOCK:   -7.38 KCAL/MOL
REMARK 923 INTER-LIGAND FREE ENERGY PREDICTED BY IDOCK:   -7.07 KCAL/MOL
REMARK 924 INTRA-LIGAND FREE ENERGY PREDICTED BY IDOCK:   -0.31 KCAL/MOL
REMARK 927      BINDING AFFINITY PREDICTED BY RF-SCORE:    0.00 PKD
ROOT
HETATM    1  O   UNL     1      -5.998  20.657  67.260  1.00  0.00    -0.186 OA 
HETATM    2  S   UNL     1      -7.386  20.064  67.827  1.00  0.00    -0.299 S  
HETATM    3  O   UNL     1      -8.413  20.891  67.229  1.00  0.00    -0.247 OA 
HETATM    4  O   UNL     1      -7.233  19.991  69.263  1.00  0.00    -0.253 OA 
HETATM    5  O   UNL     1      -7.444  18.563  67.196  1.00  0.00    -0.217 OA 
ENDROOT
BRANCH   5   6
HETATM    6  C   UNL     1      -8.439  17.691  67.555  1.00  0.00    -0.219 A  
HETATM    7  C   UNL     1      -9.704  17.673  66.975  1.00  0.00    -0.292 A  
HETATM    8  C   UNL     1     -10.659  16.740  67.391  1.00  0.00    -0.291 A  
HETATM    9  C   UNL     1     -10.367  15.796  68.388  1.00  0.00    -0.233 A  
HETATM   10  C   UNL     1     -11.449  14.787  68.803  1.00  0.00    -0.324 C  
HETATM   11  C   UNL     1      -9.086  15.833  68.965  1.00  0.00    -0.245 A  
HETATM   12  C   UNL     1     -12.006  15.008  70.214  1.00  0.00    -0.315 A  
HETATM   13  C   UNL     1      -8.124  16.754  68.537  1.00  0.00    -0.241 A  
HETATM   14  C   UNL     1     -11.118  13.324  68.485  1.00  0.00    -0.294 A  
HETATM   15  C   UNL     1     -13.363  15.308  70.379  1.00  0.00    -0.087 A  
HETATM   16  C   UNL     1     -10.068  12.647  69.123  1.00  0.00     0.306 A  
HETATM   17  C   UNL     1     -13.867  15.520  71.659  1.00  0.00    -0.554 A  
HETATM   18  C   UNL     1      -9.771  11.317  68.820  1.00  0.00    -0.184 A  
HETATM   19  C   UNL     1     -10.561  10.615  67.916  1.00  0.00    -0.228 A  
HETATM   20  C   UNL     1     -13.014  15.427  72.748  1.00  0.00    -0.551 A  
HETATM   21  C   UNL     1     -11.606  11.270  67.264  1.00  0.00    -0.171 A  
HETATM   22  N   UNL     1     -11.166  14.904  71.280  1.00  0.00    -0.210 NA 
HETATM   23  C   UNL     1     -11.685  15.116  72.510  1.00  0.00    -0.375 A  
HETATM   24  C   UNL     1     -11.881  12.612  67.542  1.00  0.00    -0.396 A  
BRANCH  19  25
HETATM   25  O   UNL     1     -10.397   9.289  67.611  1.00  0.00    -0.222 OA 
HETATM   26  S   UNL     1     -10.066   8.183  68.763  1.00  0.00    -0.202 S  
HETATM   27  O   UNL     1      -8.631   8.129  68.942  1.00  0.00    -0.129 OA 
HETATM   28  O   UNL     1     -10.970   8.343  69.881  1.00  0.00    -0.239 OA 
HETATM   29  O   UNL     1     -10.454   6.802  68.031  1.00  0.00    -0.177 OA 
ENDBRANCH  19  25
ENDBRANCH   5   6
TORSDOF 2
ENDMDL
MODEL       17
REMARK 921   NORMALIZED FREE ENERGY PREDICTED BY IDOCK:   -6.29 KCAL/MOL
REMARK 922        TOTAL FREE ENERGY PREDICTED BY IDOCK:   -7.36 KCAL/MOL
REMARK 923 INTER-LIGAND FREE ENERGY PREDICTED BY IDOCK:   -7.24 KCAL/MOL
REMARK 924 INTRA-LIGAND FREE ENERGY PREDICTED BY IDOCK:   -0.12 KCAL/MOL
REMARK 927      BINDING AFFINITY PREDICTED BY RF-SCORE:    0.00 PKD
ROOT
HETATM    1  O   UNL     1     -12.263  15.537  64.079  1.00  0.00    -0.622 OA 
HETATM    2  S   UNL     1     -12.390  14.019  64.608  1.00  0.00    -0.363 S  
HETATM    3  O   UNL     1     -12.421  13.211  63.407  1.00  0.00    -0.730 OA 
HETATM    4  O   UNL     1     -13.497  14.011  65.538  1.00  0.00    -0.677 OA 
HETATM    5  O   UNL     1     -10.990  13.776  65.405  1.00  0.00    -0.296 OA 
ENDROOT
BRANCH   5   6
HETATM    6  C   UNL     1     -10.777  12.618  66.108  1.00  0.00    -0.267 A  
HETATM    7  C   UNL     1     -11.682  12.083  67.020  1.00  0.00    -0.341 A  
HETATM    8  C   UNL     1     -11.392  10.889  67.686  1.00  0.00    -0.345 A  
HETATM    9  C   UNL     1     -10.195  10.195  67.447  1.00  0.00    -0.267 A  
HETATM   10  C   UNL     1      -9.929   8.882  68.199  1.00  0.00    -0.208 C  
HETATM   11  C   UNL     1      -9.292  10.753  66.526  1.00  0.00    -0.192 A  
HETATM   12  C   UNL     1      -8.804   8.970  69.237  1.00  0.00    -0.139 A  
HETATM   13  C   UNL     1      -9.589  11.939  65.846  1.00  0.00    -0.248 A  
HETATM   14  C   UNL     1      -9.859   7.635  67.308  1.00  0.00    -0.245 A  
HETATM   15  C   UNL     1      -9.096   8.744  70.587  1.00  0.00    -0.221 A  
HETATM   16  C   UNL     1      -8.831   7.451  66.372  1.00  0.00    -0.176 A  
HETATM   17  C   UNL     1      -8.078   8.836  71.533  1.00  0.00    -0.174 A  
HETATM   18  C   UNL     1      -8.782   6.315  65.561  1.00  0.00    -0.090 A  
HETATM   19  C   UNL     1      -9.727   5.307  65.716  1.00  0.00    -0.059 A  
HETATM   20  C   UNL     1      -6.792   9.146  71.117  1.00  0.00    -0.088 A  
HETATM   21  C   UNL     1     -10.763   5.472  66.636  1.00  0.00    -0.332 A  
HETATM   22  N   UNL     1      -7.542   9.264  68.822  1.00  0.00    -0.079 NA 
HETATM   23  C   UNL     1      -6.575   9.346  69.764  1.00  0.00    -0.045 A  
HETATM   24  C   UNL     1     -10.831   6.626  67.423  1.00  0.00    -0.434 A  
BRANCH  19  25
HETATM   25  O   UNL     1      -9.719   4.125  65.023  1.00  0.00    -0.173 OA 
HETATM   26  S   UNL     1      -8.665   2.933  65.381  1.00  0.00    -0.129 S  
HETATM   27  O   UNL     1      -7.447   3.165  64.633  1.00  0.00    -0.072 OA 
HETATM   28  O   UNL     1      -8.651   2.691  66.806  1.00  0.00    -0.098 OA 
HETATM   29  O   UNL     1      -9.350   1.652  64.686  1.00  0.00    -0.131 OA 
ENDBRANCH  19  25
ENDBRANCH   5   6
TORSDOF 2
ENDMDL
MODEL       18
REMARK 921   NORMALIZED FREE ENERGY PREDICTED BY IDOCK:   -6.24 KCAL/MOL
REMARK 922        TOTAL FREE ENERGY PREDICTED BY IDOCK:   -7.31 KCAL/MOL
REMARK 923 INTER-LIGAND FREE ENERGY PREDICTED BY IDOCK:   -7.06 KCAL/MOL
REMARK 924 INTRA-LIGAND FREE ENERGY PREDICTED BY IDOCK:   -0.25 KCAL/MOL
REMARK 927      BINDING AFFINITY PREDICTED BY RF-SCORE:    0.00 PKD
ROOT
HETATM    1  O   UNL     1      -9.749   1.970  63.841  1.00  0.00    -0.128 OA 
HETATM    2  S   UNL     1      -9.864   3.520  64.271  1.00  0.00    -0.190 S  
HETATM    3  O   UNL     1     -11.253   3.864  64.046  1.00  0.00    -0.303 OA 
HETATM    4  O   UNL     1      -8.804   4.209  63.569  1.00  0.00    -0.112 OA 
HETATM    5  O   UNL     1      -9.550   3.495  65.869  1.00  0.00    -0.165 OA 
ENDROOT
BRANCH   5   6
HETATM    6  C   UNL     1      -9.437   4.663  66.579  1.00  0.00    -0.166 A  
HETATM    7  C   UNL     1      -8.237   5.151  67.089  1.00  0.00    -0.107 A  
HETATM    8  C   UNL     1      -8.207   6.359  67.791  1.00  0.00    -0.118 A  
HETATM    9  C   UNL     1      -9.375   7.114  67.990  1.00  0.00    -0.129 A  
HETATM   10  C   UNL     1      -9.285   8.440  68.762  1.00  0.00    -0.143 C  
HETATM   11  C   UNL     1     -10.576   6.603  67.472  1.00  0.00    -0.347 A  
HETATM   12  C   UNL     1      -9.957   8.410  70.140  1.00  0.00    -0.187 A  
HETATM   13  C   UNL     1     -10.605   5.403  66.754  1.00  0.00    -0.339 A  
HETATM   14  C   UNL     1      -9.614   9.688  67.934  1.00  0.00    -0.159 A  
HETATM   15  C   UNL     1      -9.183   8.622  71.286  1.00  0.00    -0.283 A  
HETATM   16  C   UNL     1     -10.902   9.924  67.431  1.00  0.00    -0.293 A  
HETATM   17  C   UNL     1      -9.790   8.584  72.539  1.00  0.00    -0.324 A  
HETATM   18  C   UNL     1     -11.188  11.061  66.672  1.00  0.00    -0.124 A  
HETATM   19  C   UNL     1     -10.204  12.019  66.453  1.00  0.00    -0.216 A  
HETATM   20  C   UNL     1     -11.153   8.341  72.625  1.00  0.00    -0.400 A  
HETATM   21  C   UNL     1      -8.914  11.801  66.937  1.00  0.00    -0.195 A  
HETATM   22  N   UNL     1     -11.296   8.182  70.217  1.00  0.00    -0.192 NA 
HETATM   23  C   UNL     1     -11.857   8.151  71.448  1.00  0.00    -0.295 A  
HETATM   24  C   UNL     1      -8.620  10.645  67.668  1.00  0.00    -0.118 A  
BRANCH  19  25
HETATM   25  O   UNL     1     -10.407  13.199  65.787  1.00  0.00    -0.279 OA 
HETATM   26  S   UNL     1     -11.687  14.155  66.117  1.00  0.00    -0.408 S  
HETATM   27  O   UNL     1     -12.801  13.719  65.302  1.00  0.00    -0.681 OA 
HETATM   28  O   UNL     1     -11.813  14.345  67.545  1.00  0.00    -0.373 OA 
HETATM   29  O   UNL     1     -11.230  15.565  65.487  1.00  0.00    -0.286 OA 
ENDBRANCH  19  25
ENDBRANCH   5   6
TORSDOF 2
ENDMDL
MODEL       19
REMARK 921   NORMALIZED FREE ENERGY PREDICTED BY IDOCK:   -6.24 KCAL/MOL
REMARK 922        TOTAL FREE ENERGY PREDICTED BY IDOCK:   -7.31 KCAL/MOL
REMARK 923 INTER-LIGAND FREE ENERGY PREDICTED BY IDOCK:   -7.30 KCAL/MOL
REMARK 924 INTRA-LIGAND FREE ENERGY PREDICTED BY IDOCK:   -0.01 KCAL/MOL
REMARK 927      BINDING AFFINITY PREDICTED BY RF-SCORE:    0.00 PKD
ROOT
HETATM    1  O   UNL     1     -11.876   5.759  72.635  1.00  0.00    -0.278 OA 
HETATM    2  S   UNL     1     -11.714   6.911  71.519  1.00  0.00    -0.331 S  
HETATM    3  O   UNL     1     -11.019   7.987  72.194  1.00  0.00    -0.252 OA 
HETATM    4  O   UNL     1     -13.033   7.114  70.960  1.00  0.00    -0.325 OA 
HETATM    5  O   UNL     1     -10.738   6.229  70.407  1.00  0.00    -0.232 OA 
ENDROOT
BRANCH   5   6
HETATM    6  C   UNL     1     -10.463   6.873  69.228  1.00  0.00    -0.214 A  
HETATM    7  C   UNL     1     -11.071   6.564  68.014  1.00  0.00    -0.332 A  
HETATM    8  C   UNL     1     -10.742   7.278  66.858  1.00  0.00    -0.346 A  
HETATM    9  C   UNL     1      -9.807   8.326  66.891  1.00  0.00    -0.316 A  
HETATM   10  C   UNL     1      -9.488   9.085  65.594  1.00  0.00    -0.273 C  
HETATM   11  C   UNL     1      -9.201   8.619  68.125  1.00  0.00    -0.142 A  
HETATM   12  C   UNL     1      -8.077   8.832  65.049  1.00  0.00    -0.144 A  
HETATM   13  C   UNL     1      -9.542   7.916  69.286  1.00  0.00    -0.157 A  
HETATM   14  C   UNL     1      -9.900  10.562  65.597  1.00  0.00    -0.311 A  
HETATM   15  C   UNL     1      -7.922   8.241  63.790  1.00  0.00    -0.149 A  
HETATM   16  C   UNL     1      -9.288  11.499  66.441  1.00  0.00    -0.222 A  
HETATM   17  C   UNL     1      -6.641   8.000  63.299  1.00  0.00    -0.080 A  
HETATM   18  C   UNL     1      -9.677  12.840  66.441  1.00  0.00    -0.261 A  
HETATM   19  C   UNL     1     -10.645  13.285  65.547  1.00  0.00    -0.287 A  
HETATM   20  C   UNL     1      -5.543   8.355  64.068  1.00  0.00    -0.061 A  
HETATM   21  C   UNL     1     -11.273  12.369  64.702  1.00  0.00    -0.356 A  
HETATM   22  N   UNL     1      -7.003   9.192  65.803  1.00  0.00    -0.083 NA 
HETATM   23  C   UNL     1      -5.773   8.945  65.300  1.00  0.00    -0.047 A  
HETATM   24  C   UNL     1     -10.907  11.019  64.728  1.00  0.00    -0.234 A  
BRANCH  19  25
HETATM   25  O   UNL     1     -11.038  14.591  65.418  1.00  0.00    -0.315 OA 
HETATM   26  S   UNL     1     -10.212  15.805  66.128  1.00  0.00    -0.337 S  
HETATM   27  O   UNL     1     -10.723  15.977  67.471  1.00  0.00    -0.312 OA 
HETATM   28  O   UNL     1      -8.797  15.668  65.861  1.00  0.00    -0.279 OA 
HETATM   29  O   UNL     1     -10.728  17.093  65.311  1.00  0.00    -0.629 OA 
ENDBRANCH  19  25
ENDBRANCH   5   6
TORSDOF 2
ENDMDL
MODEL       20
REMARK 921   NORMALIZED FREE ENERGY PREDICTED BY IDOCK:   -6.24 KCAL/MOL
REMARK 922        TOTAL FREE ENERGY PREDICTED BY IDOCK:   -7.31 KCAL/MOL
REMARK 923 INTER-LIGAND FREE ENERGY PREDICTED BY IDOCK:   -7.21 KCAL/MOL
REMARK 924 INTRA-LIGAND FREE ENERGY PREDICTED BY IDOCK:   -0.09 KCAL/MOL
REMARK 927      BINDING AFFINITY PREDICTED BY RF-SCORE:    0.00 PKD
ROOT
HETATM    1  O   UNL     1     -10.149  16.112  65.320  1.00  0.00    -0.505 OA 
HETATM    2  S   UNL     1     -10.905  14.844  65.969  1.00  0.00    -0.336 S  
HETATM    3  O   UNL     1     -11.913  14.477  64.997  1.00  0.00    -0.382 OA 
HETATM    4  O   UNL     1     -11.274  15.241  67.310  1.00  0.00    -0.335 OA 
HETATM    5  O   UNL     1      -9.747  13.699  66.027  1.00  0.00    -0.277 OA 
ENDROOT
BRANCH   5   6
HETATM    6  C   UNL     1      -9.984  12.494  66.638  1.00  0.00    -0.236 A  
HETATM    7  C   UNL     1     -11.255  12.004  66.925  1.00  0.00    -0.375 A  
HETATM    8  C   UNL     1     -11.408  10.758  67.539  1.00  0.00    -0.283 A  
HETATM    9  C   UNL     1     -10.296   9.967  67.870  1.00  0.00    -0.249 A  
HETATM   10  C   UNL     1     -10.521   8.601  68.536  1.00  0.00    -0.209 C  
HETATM   11  C   UNL     1      -9.022  10.481  67.577  1.00  0.00    -0.137 A  
HETATM   12  C   UNL     1     -10.071   8.535  70.001  1.00  0.00    -0.192 A  
HETATM   13  C   UNL     1      -8.867  11.721  66.946  1.00  0.00    -0.191 A  
HETATM   14  C   UNL     1     -10.082   7.397  67.695  1.00  0.00    -0.240 A  
HETATM   15  C   UNL     1     -11.017   8.274  70.999  1.00  0.00    -0.280 A  
HETATM   16  C   UNL     1      -8.734   7.162  67.384  1.00  0.00    -0.120 A  
HETATM   17  C   UNL     1     -10.613   8.225  72.330  1.00  0.00    -0.408 A  
HETATM   18  C   UNL     1      -8.347   6.066  66.611  1.00  0.00    -0.111 A  
HETATM   19  C   UNL     1      -9.297   5.144  66.184  1.00  0.00    -0.155 A  
HETATM   20  C   UNL     1      -9.278   8.434  72.641  1.00  0.00    -0.325 A  
HETATM   21  C   UNL     1     -10.644   5.361  66.474  1.00  0.00    -0.353 A  
HETATM   22  N   UNL     1      -8.758   8.730  70.299  1.00  0.00    -0.149 NA 
HETATM   23  C   UNL     1      -8.396   8.677  71.601  1.00  0.00    -0.157 A  
HETATM   24  C   UNL     1     -11.034   6.478  67.220  1.00  0.00    -0.475 A  
BRANCH  19  25
HETATM   25  O   UNL     1      -9.007   4.001  65.487  1.00  0.00    -0.122 OA 
HETATM   26  S   UNL     1      -9.314   3.874  63.889  1.00  0.00    -0.153 S  
HETATM   27  O   UNL     1     -10.675   3.407  63.726  1.00  0.00    -0.254 OA 
HETATM   28  O   UNL     1      -8.817   5.039  63.192  1.00  0.00    -0.121 OA 
HETATM   29  O   UNL     1      -8.386   2.629  63.461  1.00  0.00    -0.084 OA 
ENDBRANCH  19  25
ENDBRANCH   5   6
TORSDOF 2
ENDMDL
MODEL       21
REMARK 921   NORMALIZED FREE ENERGY PREDICTED BY IDOCK:   -6.10 KCAL/MOL
REMARK 922        TOTAL FREE ENERGY PREDICTED BY IDOCK:   -7.15 KCAL/MOL
REMARK 923 INTER-LIGAND FREE ENERGY PREDICTED BY IDOCK:   -7.04 KCAL/MOL
REMARK 924 INTRA-LIGAND FREE ENERGY PREDICTED BY IDOCK:   -0.11 KCAL/MOL
REMARK 927      BINDING AFFINITY PREDICTED BY RF-SCORE:    0.00 PKD
ROOT
HETATM    1  O   UNL     1     -10.105  16.250  65.383  1.00  0.00    -0.519 OA 
HETATM    2  S   UNL     1     -10.875  14.960  65.969  1.00  0.00    -0.336 S  
HETATM    3  O   UNL     1     -11.808  14.582  64.929  1.00  0.00    -0.380 OA 
HETATM    4  O   UNL     1     -11.341  15.336  67.285  1.00  0.00    -0.332 OA 
HETATM    5  O   UNL     1      -9.699  13.840  66.094  1.00  0.00    -0.290 OA 
ENDROOT
BRANCH   5   6
HETATM    6  C   UNL     1      -9.949  12.624  66.677  1.00  0.00    -0.242 A  
HETATM    7  C   UNL     1     -11.226  12.133  66.934  1.00  0.00    -0.375 A  
HETATM    8  C   UNL     1     -11.393  10.875  67.521  1.00  0.00    -0.309 A  
HETATM    9  C   UNL     1     -10.289  10.074  67.854  1.00  0.00    -0.249 A  
HETATM   10  C   UNL     1     -10.529   8.696  68.490  1.00  0.00    -0.209 C  
HETATM   11  C   UNL     1      -9.008  10.590  67.592  1.00  0.00    -0.138 A  
HETATM   12  C   UNL     1     -10.103   8.601  69.960  1.00  0.00    -0.189 A  
HETATM   13  C   UNL     1      -8.839  11.841  66.988  1.00  0.00    -0.182 A  
HETATM   14  C   UNL     1     -10.079   7.507  67.632  1.00  0.00    -0.243 A  
HETATM   15  C   UNL     1     -11.066   8.323  70.937  1.00  0.00    -0.289 A  
HETATM   16  C   UNL     1      -8.728   7.274  67.339  1.00  0.00    -0.121 A  
HETATM   17  C   UNL     1     -10.684   8.247  72.274  1.00  0.00    -0.399 A  
HETATM   18  C   UNL     1      -8.332   6.192  66.551  1.00  0.00    -0.113 A  
HETATM   19  C   UNL     1      -9.277   5.282  66.090  1.00  0.00    -0.154 A  
HETATM   20  C   UNL     1      -9.353   8.445  72.611  1.00  0.00    -0.334 A  
HETATM   21  C   UNL     1     -10.628   5.498  66.363  1.00  0.00    -0.291 A  
HETATM   22  N   UNL     1      -8.795   8.785  70.283  1.00  0.00    -0.149 NA 
HETATM   23  C   UNL     1      -8.454   8.705  71.589  1.00  0.00    -0.167 A  
HETATM   24  C   UNL     1     -11.027   6.601  67.124  1.00  0.00    -0.478 A  
BRANCH  19  25
HETATM   25  O   UNL     1      -8.979   4.151  65.376  1.00  0.00    -0.123 OA 
HETATM   26  S   UNL     1      -8.425   2.801  66.106  1.00  0.00    -0.112 S  
HETATM   27  O   UNL     1      -6.984   2.897  66.201  1.00  0.00    -0.054 OA 
HETATM   28  O   UNL     1      -9.248   2.482  67.252  1.00  0.00    -0.161 OA 
HETATM   29  O   UNL     1      -8.702   1.673  64.991  1.00  0.00    -0.099 OA 
ENDBRANCH  19  25
ENDBRANCH   5   6
TORSDOF 2
ENDMDL
MODEL       22
REMARK 921   NORMALIZED FREE ENERGY PREDICTED BY IDOCK:   -6.04 KCAL/MOL
REMARK 922        TOTAL FREE ENERGY PREDICTED BY IDOCK:   -7.08 KCAL/MOL
REMARK 923 INTER-LIGAND FREE ENERGY PREDICTED BY IDOCK:   -6.73 KCAL/MOL
REMARK 924 INTRA-LIGAND FREE ENERGY PREDICTED BY IDOCK:   -0.35 KCAL/MOL
REMARK 927      BINDING AFFINITY PREDICTED BY RF-SCORE:    0.00 PKD
ROOT
HETATM    1  O   UNL     1     -10.402   5.521  72.265  1.00  0.00    -0.196 OA 
HETATM    2  S   UNL     1     -10.570   6.866  71.393  1.00  0.00    -0.220 S  
HETATM    3  O   UNL     1      -9.911   7.896  72.169  1.00  0.00    -0.178 OA 
HETATM    4  O   UNL     1     -11.977   6.963  71.073  1.00  0.00    -0.339 OA 
HETATM    5  O   UNL     1      -9.713   6.554  70.043  1.00  0.00    -0.164 OA 
ENDROOT
BRANCH   5   6
HETATM    6  C   UNL     1      -9.718   7.434  68.991  1.00  0.00    -0.160 A  
HETATM    7  C   UNL     1     -10.648   7.402  67.955  1.00  0.00    -0.255 A  
HETATM    8  C   UNL     1     -10.589   8.346  66.925  1.00  0.00    -0.285 A  
HETATM    9  C   UNL     1      -9.607   9.350  66.913  1.00  0.00    -0.217 A  
HETATM   10  C   UNL     1      -9.593  10.368  65.762  1.00  0.00    -0.269 C  
HETATM   11  C   UNL     1      -8.676   9.362  67.965  1.00  0.00    -0.124 A  
HETATM   12  C   UNL     1      -8.399  10.222  64.811  1.00  0.00    -0.172 A  
HETATM   13  C   UNL     1      -8.743   8.429  69.005  1.00  0.00    -0.142 A  
HETATM   14  C   UNL     1      -9.883  11.814  66.182  1.00  0.00    -0.254 A  
HETATM   15  C   UNL     1      -8.628   9.916  63.464  1.00  0.00    -0.201 A  
HETATM   16  C   UNL     1      -9.004  12.539  66.998  1.00  0.00    -0.211 A  
HETATM   17  C   UNL     1      -7.545   9.772  62.601  1.00  0.00    -0.122 A  
HETATM   18  C   UNL     1      -9.282  13.853  67.379  1.00  0.00    -0.224 A  
HETATM   19  C   UNL     1     -10.419  14.493  66.898  1.00  0.00    -0.269 A  
HETATM   20  C   UNL     1      -6.259   9.939  63.093  1.00  0.00    -0.121 A  
HETATM   21  C   UNL     1     -11.313  13.788  66.090  1.00  0.00    -0.320 A  
HETATM   22  N   UNL     1      -7.141  10.398  65.296  1.00  0.00    -0.126 NA 
HETATM   23  C   UNL     1      -6.110  10.251  64.434  1.00  0.00    -0.123 A  
HETATM   24  C   UNL     1     -11.050  12.461  65.737  1.00  0.00    -0.351 A  
BRANCH  19  25
HETATM   25  O   UNL     1     -10.739  15.800  67.153  1.00  0.00    -0.314 OA 
HETATM   26  S   UNL     1      -9.666  17.004  66.911  1.00  0.00    -0.273 S  
HETATM   27  O   UNL     1      -8.876  17.156  68.115  1.00  0.00    -0.223 OA 
HETATM   28  O   UNL     1      -9.053  16.872  65.608  1.00  0.00    -0.499 OA 
HETATM   29  O   UNL     1     -10.616  18.304  66.862  1.00  0.00    -0.379 OA 
ENDBRANCH  19  25
ENDBRANCH   5   6
TORSDOF 2
ENDMDL
MODEL       23
REMARK 921   NORMALIZED FREE ENERGY PREDICTED BY IDOCK:   -5.98 KCAL/MOL
REMARK 922        TOTAL FREE ENERGY PREDICTED BY IDOCK:   -7.02 KCAL/MOL
REMARK 923 INTER-LIGAND FREE ENERGY PREDICTED BY IDOCK:   -7.32 KCAL/MOL
REMARK 924 INTRA-LIGAND FREE ENERGY PREDICTED BY IDOCK:    0.30 KCAL/MOL
REMARK 927      BINDING AFFINITY PREDICTED BY RF-SCORE:    0.00 PKD
ROOT
HETATM    1  O   UNL     1     -10.040   5.965  72.751  1.00  0.00    -0.178 OA 
HETATM    2  S   UNL     1     -10.185   7.535  72.413  1.00  0.00    -0.230 S  
HETATM    3  O   UNL     1      -8.971   8.137  72.922  1.00  0.00    -0.212 OA 
HETATM    4  O   UNL     1     -11.480   7.935  72.915  1.00  0.00    -0.403 OA 
HETATM    5  O   UNL     1     -10.184   7.575  70.784  1.00  0.00    -0.194 OA 
ENDROOT
BRANCH   5   6
HETATM    6  C   UNL     1     -10.412   8.748  70.112  1.00  0.00    -0.213 A  
HETATM    7  C   UNL     1     -11.578   9.499  70.232  1.00  0.00    -0.219 A  
HETATM    8  C   UNL     1     -11.726  10.693  69.520  1.00  0.00    -0.356 A  
HETATM    9  C   UNL     1     -10.707  11.170  68.679  1.00  0.00    -0.234 A  
HETATM   10  C   UNL     1     -10.917  12.492  67.926  1.00  0.00    -0.262 C  
HETATM   11  C   UNL     1      -9.540  10.396  68.568  1.00  0.00    -0.161 A  
HETATM   12  C   UNL     1     -11.075  12.332  66.409  1.00  0.00    -0.303 A  
HETATM   13  C   UNL     1      -9.383   9.209  69.294  1.00  0.00    -0.157 A  
HETATM   14  C   UNL     1      -9.966  13.623  68.338  1.00  0.00    -0.235 A  
HETATM   15  C   UNL     1     -12.270  12.727  65.797  1.00  0.00    -0.469 A  
HETATM   16  C   UNL     1      -8.587  13.559  68.091  1.00  0.00    -0.173 A  
HETATM   17  C   UNL     1     -12.419  12.572  64.422  1.00  0.00    -0.530 A  
HETATM   18  C   UNL     1      -7.731  14.591  68.477  1.00  0.00    -0.129 A  
HETATM   19  C   UNL     1      -8.246  15.742  69.063  1.00  0.00    -0.234 A  
HETATM   20  C   UNL     1     -11.378  12.031  63.683  1.00  0.00    -0.536 A  
HETATM   21  C   UNL     1      -9.614  15.826  69.326  1.00  0.00    -0.270 A  
HETATM   22  N   UNL     1     -10.045  11.811  65.689  1.00  0.00    -0.234 NA 
HETATM   23  C   UNL     1     -10.220  11.672  64.355  1.00  0.00    -0.300 A  
HETATM   24  C   UNL     1     -10.467  14.776  68.969  1.00  0.00    -0.249 A  
BRANCH  19  25
HETATM   25  O   UNL     1      -7.499  16.838  69.407  1.00  0.00    -0.199 OA 
HETATM   26  S   UNL     1      -5.870  16.775  69.463  1.00  0.00    -0.205 S  
HETATM   27  O   UNL     1      -5.478  16.325  70.782  1.00  0.00    -0.148 OA 
HETATM   28  O   UNL     1      -5.353  16.159  68.261  1.00  0.00    -0.095 OA 
HETATM   29  O   UNL     1      -5.467  18.334  69.411  1.00  0.00    -0.191 OA 
ENDBRANCH  19  25
ENDBRANCH   5   6
TORSDOF 2
ENDMDL
MODEL       24
REMARK 921   NORMALIZED FREE ENERGY PREDICTED BY IDOCK:   -5.94 KCAL/MOL
REMARK 922        TOTAL FREE ENERGY PREDICTED BY IDOCK:   -6.97 KCAL/MOL
REMARK 923 INTER-LIGAND FREE ENERGY PREDICTED BY IDOCK:   -6.83 KCAL/MOL
REMARK 924 INTRA-LIGAND FREE ENERGY PREDICTED BY IDOCK:   -0.14 KCAL/MOL
REMARK 927      BINDING AFFINITY PREDICTED BY RF-SCORE:    0.00 PKD
ROOT
HETATM    1  O   UNL     1      -9.481   2.024  64.340  1.00  0.00    -0.134 OA 
HETATM    2  S   UNL     1      -8.907   2.968  65.514  1.00  0.00    -0.141 S  
HETATM    3  O   UNL     1      -7.514   3.172  65.176  1.00  0.00    -0.070 OA 
HETATM    4  O   UNL     1      -9.285   2.335  66.758  1.00  0.00    -0.113 OA 
HETATM    5  O   UNL     1      -9.735   4.358  65.323  1.00  0.00    -0.173 OA 
ENDROOT
BRANCH   5   6
HETATM    6  C   UNL     1      -9.604   5.381  66.227  1.00  0.00    -0.160 A  
HETATM    7  C   UNL     1      -8.385   5.808  66.747  1.00  0.00    -0.109 A  
HETATM    8  C   UNL     1      -8.338   6.869  67.657  1.00  0.00    -0.123 A  
HETATM    9  C   UNL     1      -9.508   7.535  68.059  1.00  0.00    -0.149 A  
HETATM   10  C   UNL     1      -9.399   8.700  69.054  1.00  0.00    -0.146 C  
HETATM   11  C   UNL     1     -10.728   7.086  67.527  1.00  0.00    -0.352 A  
HETATM   12  C   UNL     1      -9.982   8.397  70.440  1.00  0.00    -0.185 A  
HETATM   13  C   UNL     1     -10.775   6.036  66.603  1.00  0.00    -0.315 A  
HETATM   14  C   UNL     1      -9.810  10.066  68.490  1.00  0.00    -0.168 A  
HETATM   15  C   UNL     1      -9.141   8.423  71.559  1.00  0.00    -0.254 A  
HETATM   16  C   UNL     1     -11.132  10.346  68.116  1.00  0.00    -0.344 A  
HETATM   17  C   UNL     1      -9.666   8.137  72.816  1.00  0.00    -0.351 A  
HETATM   18  C   UNL     1     -11.492  11.590  67.597  1.00  0.00    -0.357 A  
HETATM   19  C   UNL     1     -10.546  12.606  67.500  1.00  0.00    -0.221 A  
HETATM   20  C   UNL     1     -11.014   7.836  72.936  1.00  0.00    -0.467 A  
HETATM   21  C   UNL     1      -9.223  12.348  67.859  1.00  0.00    -0.192 A  
HETATM   22  N   UNL     1     -11.307   8.113  70.553  1.00  0.00    -0.254 NA 
HETATM   23  C   UNL     1     -11.787   7.839  71.787  1.00  0.00    -0.290 A  
HETATM   24  C   UNL     1      -8.856  11.089  68.347  1.00  0.00    -0.151 A  
BRANCH  19  25
HETATM   25  O   UNL     1     -10.818  13.879  67.075  1.00  0.00    -0.282 OA 
HETATM   26  S   UNL     1     -10.059  14.530  65.786  1.00  0.00    -0.354 S  
HETATM   27  O   UNL     1      -8.831  15.144  66.245  1.00  0.00    -0.278 OA 
HETATM   28  O   UNL     1     -10.082  13.604  64.675  1.00  0.00    -0.357 OA 
HETATM   29  O   UNL     1     -11.029  15.757  65.403  1.00  0.00    -0.345 OA 
ENDBRANCH  19  25
ENDBRANCH   5   6
TORSDOF 2
ENDMDL
MODEL       25
REMARK 921   NORMALIZED FREE ENERGY PREDICTED BY IDOCK:   -5.94 KCAL/MOL
REMARK 922        TOTAL FREE ENERGY PREDICTED BY IDOCK:   -6.97 KCAL/MOL
REMARK 923 INTER-LIGAND FREE ENERGY PREDICTED BY IDOCK:   -6.64 KCAL/MOL
REMARK 924 INTRA-LIGAND FREE ENERGY PREDICTED BY IDOCK:   -0.33 KCAL/MOL
REMARK 927      BINDING AFFINITY PREDICTED BY RF-SCORE:    0.00 PKD
ROOT
HETATM    1  O   UNL     1     -10.391  16.837  67.884  1.00  0.00    -0.293 OA 
HETATM    2  S   UNL     1     -10.700  15.522  68.764  1.00  0.00    -0.263 S  
HETATM    3  O   UNL     1     -12.078  15.673  69.183  1.00  0.00    -0.344 OA 
HETATM    4  O   UNL     1      -9.634  15.431  69.736  1.00  0.00    -0.266 OA 
HETATM    5  O   UNL     1     -10.576  14.306  67.687  1.00  0.00    -0.250 OA 
ENDROOT
BRANCH   5   6
HETATM    6  C   UNL     1     -10.658  12.999  68.094  1.00  0.00    -0.245 A  
HETATM    7  C   UNL     1     -11.855  12.346  68.377  1.00  0.00    -0.361 A  
HETATM    8  C   UNL     1     -11.851  11.006  68.775  1.00  0.00    -0.352 A  
HETATM    9  C   UNL     1     -10.651  10.284  68.888  1.00  0.00    -0.242 A  
HETATM   10  C   UNL     1     -10.704   8.811  69.321  1.00  0.00    -0.166 C  
HETATM   11  C   UNL     1      -9.454  10.962  68.603  1.00  0.00    -0.192 A  
HETATM   12  C   UNL     1     -10.130   8.546  70.718  1.00  0.00    -0.198 A  
HETATM   13  C   UNL     1      -9.458  12.298  68.188  1.00  0.00    -0.213 A  
HETATM   14  C   UNL     1     -10.235   7.812  68.256  1.00  0.00    -0.236 A  
HETATM   15  C   UNL     1     -10.964   8.031  71.717  1.00  0.00    -0.305 A  
HETATM   16  C   UNL     1      -8.904   7.765  67.819  1.00  0.00    -0.126 A  
HETATM   17  C   UNL     1     -10.448   7.802  72.990  1.00  0.00    -0.432 A  
HETATM   18  C   UNL     1      -8.490   6.856  66.843  1.00  0.00    -0.115 A  
HETATM   19  C   UNL     1      -9.390   5.930  66.328  1.00  0.00    -0.152 A  
HETATM   20  C   UNL     1      -9.114   8.085  73.242  1.00  0.00    -0.349 A  
HETATM   21  C   UNL     1     -10.722   5.963  66.741  1.00  0.00    -0.371 A  
HETATM   22  N   UNL     1      -8.818   8.816  70.956  1.00  0.00    -0.191 NA 
HETATM   23  C   UNL     1      -8.346   8.583  72.202  1.00  0.00    -0.132 A  
HETATM   24  C   UNL     1     -11.143   6.896  67.694  1.00  0.00    -0.251 A  
BRANCH  19  25
HETATM   25  O   UNL     1      -9.063   4.952  65.425  1.00  0.00    -0.150 OA 
HETATM   26  S   UNL     1      -8.440   3.523  65.904  1.00  0.00    -0.116 S  
HETATM   27  O   UNL     1      -7.002   3.662  65.993  1.00  0.00    -0.059 OA 
HETATM   28  O   UNL     1      -9.223   2.976  66.990  1.00  0.00    -0.170 OA 
HETATM   29  O   UNL     1      -8.696   2.591  64.616  1.00  0.00    -0.099 OA 
ENDBRANCH  19  25
ENDBRANCH   5   6
TORSDOF 2
ENDMDL
MODEL       26
REMARK 921   NORMALIZED FREE ENERGY PREDICTED BY IDOCK:   -5.88 KCAL/MOL
REMARK 922        TOTAL FREE ENERGY PREDICTED BY IDOCK:   -6.90 KCAL/MOL
REMARK 923 INTER-LIGAND FREE ENERGY PREDICTED BY IDOCK:   -6.67 KCAL/MOL
REMARK 924 INTRA-LIGAND FREE ENERGY PREDICTED BY IDOCK:   -0.23 KCAL/MOL
REMARK 927      BINDING AFFINITY PREDICTED BY RF-SCORE:    0.00 PKD
ROOT
HETATM    1  O   UNL     1     -12.682  14.865  64.194  1.00  0.00    -0.750 OA 
HETATM    2  S   UNL     1     -12.316  13.536  65.031  1.00  0.00    -0.429 S  
HETATM    3  O   UNL     1     -13.267  12.541  64.580  1.00  0.00    -0.848 OA 
HETATM    4  O   UNL     1     -12.263  13.939  66.419  1.00  0.00    -0.435 OA 
HETATM    5  O   UNL     1     -10.822  13.156  64.504  1.00  0.00    -0.340 OA 
ENDROOT
BRANCH   5   6
HETATM    6  C   UNL     1     -10.115  12.132  65.082  1.00  0.00    -0.261 A  
HETATM    7  C   UNL     1      -8.963  12.314  65.842  1.00  0.00     0.135 A  
HETATM    8  C   UNL     1      -8.309  11.216  66.407  1.00  0.00    -0.167 A  
HETATM    9  C   UNL     1      -8.798   9.910  66.236  1.00  0.00    -0.160 A  
HETATM   10  C   UNL     1      -8.046   8.739  66.886  1.00  0.00    -0.101 C  
HETATM   11  C   UNL     1      -9.960   9.747  65.462  1.00  0.00    -0.329 A  
HETATM   12  C   UNL     1      -7.343   7.813  65.887  1.00  0.00    -0.073 A  
HETATM   13  C   UNL     1     -10.625  10.847  64.910  1.00  0.00    -0.304 A  
HETATM   14  C   UNL     1      -8.830   8.000  67.977  1.00  0.00    -0.128 A  
HETATM   15  C   UNL     1      -5.951   7.680  65.935  1.00  0.00    -0.038 A  
HETATM   16  C   UNL     1      -9.985   7.258  67.686  1.00  0.00    -0.207 A  
HETATM   17  C   UNL     1      -5.310   6.848  65.021  1.00  0.00    -0.027 A  
HETATM   18  C   UNL     1     -10.695   6.595  68.688  1.00  0.00    -0.303 A  
HETATM   19  C   UNL     1     -10.227   6.607  69.998  1.00  0.00    -0.187 A  
HETATM   20  C   UNL     1      -6.066   6.163  64.081  1.00  0.00    -0.026 A  
HETATM   21  C   UNL     1      -9.085   7.345  70.313  1.00  0.00    -0.151 A  
HETATM   22  N   UNL     1      -8.091   7.135  64.974  1.00  0.00    -0.128 NA 
HETATM   23  C   UNL     1      -7.440   6.335  64.100  1.00  0.00    -0.083 A  
HETATM   24  C   UNL     1      -8.394   8.037  69.313  1.00  0.00    -0.134 A  
BRANCH  19  25
HETATM   25  O   UNL     1     -10.810   5.927  71.035  1.00  0.00    -0.260 OA 
HETATM   26  S   UNL     1     -11.835   6.663  72.069  1.00  0.00    -0.313 S  
HETATM   27  O   UNL     1     -11.055   7.251  73.138  1.00  0.00    -0.331 OA 
HETATM   28  O   UNL     1     -12.823   7.424  71.336  1.00  0.00    -0.358 OA 
HETATM   29  O   UNL     1     -12.598   5.413  72.740  1.00  0.00     0.064 OA 
ENDBRANCH  19  25
ENDBRANCH   5   6
TORSDOF 2
ENDMDL
MODEL       27
REMARK 921   NORMALIZED FREE ENERGY PREDICTED BY IDOCK:   -5.86 KCAL/MOL
REMARK 922        TOTAL FREE ENERGY PREDICTED BY IDOCK:   -6.89 KCAL/MOL
REMARK 923 INTER-LIGAND FREE ENERGY PREDICTED BY IDOCK:   -7.06 KCAL/MOL
REMARK 924 INTRA-LIGAND FREE ENERGY PREDICTED BY IDOCK:    0.17 KCAL/MOL
REMARK 927      BINDING AFFINITY PREDICTED BY RF-SCORE:    0.00 PKD
ROOT
HETATM    1  O   UNL     1     -10.768   7.003  66.625  1.00  0.00    -0.249 OA 
HETATM    2  S   UNL     1     -10.233   8.160  67.612  1.00  0.00    -0.249 S  
HETATM    3  O   UNL     1      -8.805   8.214  67.379  1.00  0.00    -0.126 OA 
HETATM    4  O   UNL     1     -10.761   7.846  68.921  1.00  0.00    -0.179 OA 
HETATM    5  O   UNL     1     -10.941   9.510  67.036  1.00  0.00    -0.138 OA 
ENDROOT
BRANCH   5   6
HETATM    6  C   UNL     1     -10.817  10.704  67.699  1.00  0.00    -0.292 A  
HETATM    7  C   UNL     1      -9.853  10.957  68.671  1.00  0.00    -0.194 A  
HETATM    8  C   UNL     1      -9.787  12.208  69.291  1.00  0.00     0.517 A  
HETATM    9  C   UNL     1     -10.676  13.239  68.946  1.00  0.00    -0.215 A  
HETATM   10  C   UNL     1     -10.555  14.598  69.652  1.00  0.00    -0.125 C  
HETATM   11  C   UNL     1     -11.645  12.962  67.967  1.00  0.00    -0.385 A  
HETATM   12  C   UNL     1     -11.717  14.919  70.600  1.00  0.00    -0.303 A  
HETATM   13  C   UNL     1     -11.701  11.716  67.333  1.00  0.00    -0.278 A  
HETATM   14  C   UNL     1     -10.157  15.763  68.738  1.00  0.00    -0.215 A  
HETATM   15  C   UNL     1     -11.462  15.095  71.965  1.00  0.00    -0.450 A  
HETATM   16  C   UNL     1     -11.002  16.228  67.720  1.00  0.00    -0.281 A  
HETATM   17  C   UNL     1     -12.517  15.375  72.829  1.00  0.00    -0.502 A  
HETATM   18  C   UNL     1     -10.626  17.284  66.888  1.00  0.00    -0.213 A  
HETATM   19  C   UNL     1      -9.419  17.942  67.100  1.00  0.00    -0.263 A  
HETATM   20  C   UNL     1     -13.803  15.476  72.318  1.00  0.00    -0.639 A  
HETATM   21  C   UNL     1      -8.558  17.492  68.101  1.00  0.00    -0.258 A  
HETATM   22  N   UNL     1     -12.974  15.028  70.092  1.00  0.00    -0.159 NA 
HETATM   23  C   UNL     1     -13.978  15.300  70.956  1.00  0.00    -0.282 A  
HETATM   24  C   UNL     1      -8.921  16.411  68.911  1.00  0.00    -0.256 A  
BRANCH  19  25
HETATM   25  O   UNL     1      -8.997  19.034  66.388  1.00  0.00    -0.322 OA 
HETATM   26  S   UNL     1      -7.429  19.236  65.985  1.00  0.00    -0.256 S  
HETATM   27  O   UNL     1      -6.766  19.922  67.074  1.00  0.00    -0.203 OA 
HETATM   28  O   UNL     1      -6.899  18.017  65.415  1.00  0.00    -0.449 OA 
HETATM   29  O   UNL     1      -7.519  20.318  64.796  1.00  0.00    -0.097 OA 
ENDBRANCH  19  25
ENDBRANCH   5   6
TORSDOF 2
ENDMDL
MODEL       28
REMARK 921   NORMALIZED FREE ENERGY PREDICTED BY IDOCK:   -5.84 KCAL/MOL
REMARK 922        TOTAL FREE ENERGY PREDICTED BY IDOCK:   -6.87 KCAL/MOL
REMARK 923 INTER-LIGAND FREE ENERGY PREDICTED BY IDOCK:   -6.87 KCAL/MOL
REMARK 924 INTRA-LIGAND FREE ENERGY PREDICTED BY IDOCK:    0.01 KCAL/MOL
REMARK 927      BINDING AFFINITY PREDICTED BY RF-SCORE:    0.00 PKD
ROOT
HETATM    1  O   UNL     1     -10.938  19.070  65.233  1.00  0.00    -0.511 OA 
HETATM    2  S   UNL     1     -10.129  17.984  66.109  1.00  0.00    -0.291 S  
HETATM    3  O   UNL     1     -10.757  18.021  67.414  1.00  0.00    -0.390 OA 
HETATM    4  O   UNL     1      -8.728  18.304  65.950  1.00  0.00    -0.500 OA 
HETATM    5  O   UNL     1     -10.466  16.572  65.370  1.00  0.00    -0.543 OA 
ENDROOT
BRANCH   5   6
HETATM    6  C   UNL     1      -9.851  15.411  65.764  1.00  0.00    -0.364 A  
HETATM    7  C   UNL     1      -8.762  15.364  66.631  1.00  0.00    -0.332 A  
HETATM    8  C   UNL     1      -8.202  14.135  66.993  1.00  0.00    -0.097 A  
HETATM    9  C   UNL     1      -8.722  12.926  66.506  1.00  0.00     0.039 A  
HETATM   10  C   UNL     1      -8.074  11.603  66.942  1.00  0.00    -0.164 C  
HETATM   11  C   UNL     1      -9.818  12.995  65.629  1.00  0.00    -0.181 A  
HETATM   12  C   UNL     1      -7.323  10.873  65.822  1.00  0.00     0.005 A  
HETATM   13  C   UNL     1     -10.391  14.223  65.279  1.00  0.00    -0.417 A  
HETATM   14  C   UNL     1      -8.977  10.692  67.783  1.00  0.00    -0.140 A  
HETATM   15  C   UNL     1      -5.946  10.656  65.947  1.00  0.00    -0.133 A  
HETATM   16  C   UNL     1     -10.129  10.095  67.251  1.00  0.00    -0.254 A  
HETATM   17  C   UNL     1      -5.260  10.004  64.926  1.00  0.00    -0.069 A  
HETATM   18  C   UNL     1     -10.947   9.274  68.029  1.00  0.00    -0.076 A  
HETATM   19  C   UNL     1     -10.595   8.981  69.342  1.00  0.00    -0.221 A  
HETATM   20  C   UNL     1      -5.956   9.578  63.805  1.00  0.00    -0.094 A  
HETATM   21  C   UNL     1      -9.457   9.570  69.895  1.00  0.00    -0.247 A  
HETATM   22  N   UNL     1      -8.014  10.449  64.730  1.00  0.00    -0.137 NA 
HETATM   23  C   UNL     1      -7.320   9.819  63.755  1.00  0.00    -0.129 A  
HETATM   24  C   UNL     1      -8.657  10.420  69.125  1.00  0.00    -0.169 A  
BRANCH  19  25
HETATM   25  O   UNL     1     -11.290   8.128  70.158  1.00  0.00    -0.200 OA 
HETATM   26  S   UNL     1     -12.144   8.677  71.435  1.00  0.00    -0.308 S  
HETATM   27  O   UNL     1     -11.257   8.749  72.577  1.00  0.00    -0.275 OA 
HETATM   28  O   UNL     1     -12.971   9.796  71.039  1.00  0.00    -0.334 OA 
HETATM   29  O   UNL     1     -13.129   7.441  71.743  1.00  0.00    -0.341 OA 
ENDBRANCH  19  25
ENDBRANCH   5   6
TORSDOF 2
ENDMDL
MODEL       29
REMARK 921   NORMALIZED FREE ENERGY PREDICTED BY IDOCK:   -5.78 KCAL/MOL
REMARK 922        TOTAL FREE ENERGY PREDICTED BY IDOCK:   -6.80 KCAL/MOL
REMARK 923 INTER-LIGAND FREE ENERGY PREDICTED BY IDOCK:   -6.64 KCAL/MOL
REMARK 924 INTRA-LIGAND FREE ENERGY PREDICTED BY IDOCK:   -0.16 KCAL/MOL
REMARK 927      BINDING AFFINITY PREDICTED BY RF-SCORE:    0.00 PKD
ROOT
HETATM    1  O   UNL     1      -9.313   1.483  64.794  1.00  0.00    -0.126 OA 
HETATM    2  S   UNL     1      -8.771   2.544  65.881  1.00  0.00    -0.128 S  
HETATM    3  O   UNL     1      -7.357   2.675  65.597  1.00  0.00    -0.064 OA 
HETATM    4  O   UNL     1      -9.229   2.068  67.168  1.00  0.00    -0.126 OA 
HETATM    5  O   UNL     1      -9.547   3.921  65.489  1.00  0.00    -0.167 OA 
ENDROOT
BRANCH   5   6
HETATM    6  C   UNL     1      -9.432   5.039  66.275  1.00  0.00    -0.157 A  
HETATM    7  C   UNL     1      -8.235   5.475  66.836  1.00  0.00    -0.105 A  
HETATM    8  C   UNL     1      -8.202   6.634  67.616  1.00  0.00    -0.122 A  
HETATM    9  C   UNL     1      -9.363   7.391  67.845  1.00  0.00    -0.138 A  
HETATM   10  C   UNL     1      -9.270   8.662  68.704  1.00  0.00    -0.138 C  
HETATM   11  C   UNL     1     -10.562   6.931  67.275  1.00  0.00    -0.393 A  
HETATM   12  C   UNL     1      -9.967   8.551  70.065  1.00  0.00    -0.188 A  
HETATM   13  C   UNL     1     -10.593   5.781  66.479  1.00  0.00    -0.294 A  
HETATM   14  C   UNL     1      -9.570   9.965  67.954  1.00  0.00    -0.157 A  
HETATM   15  C   UNL     1      -9.210   8.677  71.236  1.00  0.00    -0.283 A  
HETATM   16  C   UNL     1     -10.845  10.252  67.447  1.00  0.00    -0.336 A  
HETATM   17  C   UNL     1      -9.839   8.565  72.473  1.00  0.00    -0.324 A  
HETATM   18  C   UNL     1     -11.104  11.439  66.760  1.00  0.00    -0.343 A  
HETATM   19  C   UNL     1     -10.105  12.396  66.620  1.00  0.00    -0.221 A  
HETATM   20  C   UNL     1     -11.206   8.335  72.521  1.00  0.00    -0.446 A  
HETATM   21  C   UNL     1      -8.826  12.130  67.110  1.00  0.00    -0.191 A  
HETATM   22  N   UNL     1     -11.309   8.337  70.106  1.00  0.00    -0.134 NA 
HETATM   23  C   UNL     1     -11.892   8.233  71.322  1.00  0.00    -0.288 A  
HETATM   24  C   UNL     1      -8.559  10.925  67.768  1.00  0.00    -0.128 A  
BRANCH  19  25
HETATM   25  O   UNL     1     -10.281  13.620  66.030  1.00  0.00    -0.292 OA 
HETATM   26  S   UNL     1     -11.651  14.481  66.244  1.00  0.00    -0.340 S  
HETATM   27  O   UNL     1     -12.608  14.066  65.240  1.00  0.00    -0.495 OA 
HETATM   28  O   UNL     1     -11.991  14.535  67.649  1.00  0.00    -0.374 OA 
HETATM   29  O   UNL     1     -11.194  15.962  65.806  1.00  0.00    -0.139 OA 
ENDBRANCH  19  25
ENDBRANCH   5   6
TORSDOF 2
ENDMDL
MODEL       30
REMARK 921   NORMALIZED FREE ENERGY PREDICTED BY IDOCK:   -5.70 KCAL/MOL
REMARK 922        TOTAL FREE ENERGY PREDICTED BY IDOCK:   -6.70 KCAL/MOL
REMARK 923 INTER-LIGAND FREE ENERGY PREDICTED BY IDOCK:   -6.31 KCAL/MOL
REMARK 924 INTRA-LIGAND FREE ENERGY PREDICTED BY IDOCK:   -0.39 KCAL/MOL
REMARK 927      BINDING AFFINITY PREDICTED BY RF-SCORE:    0.00 PKD
ROOT
HETATM    1  O   UNL     1     -13.026  15.579  64.315  1.00  0.00    -0.225 OA 
HETATM    2  S   UNL     1     -11.757  14.616  64.565  1.00  0.00    -0.370 S  
HETATM    3  O   UNL     1     -10.610  15.499  64.539  1.00  0.00    -0.307 OA 
HETATM    4  O   UNL     1     -11.883  13.534  63.614  1.00  0.00    -0.418 OA 
HETATM    5  O   UNL     1     -11.995  14.058  66.077  1.00  0.00    -0.376 OA 
ENDROOT
BRANCH   5   6
HETATM    6  C   UNL     1     -11.170  13.100  66.608  1.00  0.00    -0.304 A  
HETATM    7  C   UNL     1      -9.942  13.375  67.204  1.00  0.00    -0.242 A  
HETATM    8  C   UNL     1      -9.167  12.339  67.733  1.00  0.00    -0.191 A  
HETATM    9  C   UNL     1      -9.606  11.006  67.690  1.00  0.00    -0.181 A  
HETATM   10  C   UNL     1      -8.720   9.907  68.295  1.00  0.00    -0.119 C  
HETATM   11  C   UNL     1     -10.846  10.749  67.081  1.00  0.00    -0.335 A  
HETATM   12  C   UNL     1      -8.102   8.959  67.259  1.00  0.00    -0.104 A  
HETATM   13  C   UNL     1     -11.631  11.786  66.566  1.00  0.00    -0.256 A  
HETATM   14  C   UNL     1      -9.321   9.194  69.512  1.00  0.00    -0.165 A  
HETATM   15  C   UNL     1      -6.710   8.891  67.135  1.00  0.00    -0.066 A  
HETATM   16  C   UNL     1     -10.464   8.387  69.408  1.00  0.00    -0.222 A  
HETATM   17  C   UNL     1      -6.147   8.039  66.188  1.00  0.00    -0.045 A  
HETATM   18  C   UNL     1     -11.007   7.749  70.524  1.00  0.00    -0.251 A  
HETATM   19  C   UNL     1     -10.379   7.854  71.761  1.00  0.00    -0.209 A  
HETATM   20  C   UNL     1      -6.979   7.272  65.387  1.00  0.00    -0.060 A  
HETATM   21  C   UNL     1      -9.246   8.657  71.890  1.00  0.00    -0.345 A  
HETATM   22  N   UNL     1      -8.923   8.200  66.485  1.00  0.00    -0.149 NA 
HETATM   23  C   UNL     1      -8.348   7.383  65.573  1.00  0.00    -0.135 A  
HETATM   24  C   UNL     1      -8.723   9.323  70.778  1.00  0.00    -0.272 A  
BRANCH  19  25
HETATM   25  O   UNL     1     -10.791   7.206  72.896  1.00  0.00    -0.272 OA 
HETATM   26  S   UNL     1     -10.854   5.577  72.974  1.00  0.00    -0.294 S  
HETATM   27  O   UNL     1     -12.146   5.149  72.483  1.00  0.00     0.019 OA 
HETATM   28  O   UNL     1      -9.620   5.007  72.478  1.00  0.00    -0.144 OA 
HETATM   29  O   UNL     1     -10.896   5.314  74.562  1.00  0.00    -0.277 OA 
ENDBRANCH  19  25
ENDBRANCH   5   6
TORSDOF 2
ENDMDL
MODEL       31
REMARK 921   NORMALIZED FREE ENERGY PREDICTED BY IDOCK:   -5.63 KCAL/MOL
REMARK 922        TOTAL FREE ENERGY PREDICTED BY IDOCK:   -6.62 KCAL/MOL
REMARK 923 INTER-LIGAND FREE ENERGY PREDICTED BY IDOCK:   -6.57 KCAL/MOL
REMARK 924 INTRA-LIGAND FREE ENERGY PREDICTED BY IDOCK:   -0.05 KCAL/MOL
REMARK 927      BINDING AFFINITY PREDICTED BY RF-SCORE:    0.00 PKD
ROOT
HETATM    1  O   UNL     1     -12.647  15.204  63.613  1.00  0.00    -0.614 OA 
HETATM    2  S   UNL     1     -12.131  14.115  64.686  1.00  0.00    -0.456 S  
HETATM    3  O   UNL     1     -13.338  13.509  65.207  1.00  0.00    -0.618 OA 
HETATM    4  O   UNL     1     -11.215  14.816  65.558  1.00  0.00    -0.329 OA 
HETATM    5  O   UNL     1     -11.317  13.039  63.773  1.00  0.00    -0.407 OA 
ENDROOT
BRANCH   5   6
HETATM    6  C   UNL     1     -10.620  12.011  64.356  1.00  0.00    -0.318 A  
HETATM    7  C   UNL     1      -9.406  11.525  63.878  1.00  0.00    -0.048 A  
HETATM    8  C   UNL     1      -8.754  10.482  64.541  1.00  0.00    -0.190 A  
HETATM    9  C   UNL     1      -9.294   9.907  65.703  1.00  0.00    -0.269 A  
HETATM   10  C   UNL     1      -8.532   8.768  66.398  1.00  0.00    -0.127 C  
HETATM   11  C   UNL     1     -10.522  10.408  66.167  1.00  0.00    -0.224 A  
HETATM   12  C   UNL     1      -9.217   7.400  66.295  1.00  0.00    -0.135 A  
HETATM   13  C   UNL     1     -11.168  11.465  65.515  1.00  0.00    -0.140 A  
HETATM   14  C   UNL     1      -8.017   9.104  67.803  1.00  0.00    -0.101 A  
HETATM   15  C   UNL     1      -8.564   6.352  65.637  1.00  0.00    -0.138 A  
HETATM   16  C   UNL     1      -8.890   9.339  68.875  1.00  0.00    -0.135 A  
HETATM   17  C   UNL     1      -9.190   5.113  65.533  1.00  0.00    -0.144 A  
HETATM   18  C   UNL     1      -8.410   9.651  70.148  1.00  0.00    -0.221 A  
HETATM   19  C   UNL     1      -7.040   9.672  70.391  1.00  0.00    -0.136 A  
HETATM   20  C   UNL     1     -10.449   4.940  66.088  1.00  0.00    -0.346 A  
HETATM   21  C   UNL     1      -6.153   9.449  69.338  1.00  0.00    -0.037 A  
HETATM   22  N   UNL     1     -10.447   7.234  66.851  1.00  0.00    -0.306 NA 
HETATM   23  C   UNL     1     -11.030   6.019  66.733  1.00  0.00    -0.225 A  
HETATM   24  C   UNL     1      -6.635   9.170  68.055  1.00  0.00    -0.060 A  
BRANCH  19  25
HETATM   25  O   UNL     1      -6.475   9.893  71.619  1.00  0.00    -0.305 OA 
HETATM   26  S   UNL     1      -6.385   8.713  72.742  1.00  0.00    -0.011 S  
HETATM   27  O   UNL     1      -7.612   8.724  73.510  1.00  0.00    -0.390 OA 
HETATM   28  O   UNL     1      -5.866   7.500  72.150  1.00  0.00    -0.037 OA 
HETATM   29  O   UNL     1      -5.256   9.277  73.741  1.00  0.00    -0.110 OA 
ENDBRANCH  19  25
ENDBRANCH   5   6
TORSDOF 2
ENDMDL
MODEL       32
REMARK 921   NORMALIZED FREE ENERGY PREDICTED BY IDOCK:   -5.57 KCAL/MOL
REMARK 922        TOTAL FREE ENERGY PREDICTED BY IDOCK:   -6.56 KCAL/MOL
REMARK 923 INTER-LIGAND FREE ENERGY PREDICTED BY IDOCK:   -6.32 KCAL/MOL
REMARK 924 INTRA-LIGAND FREE ENERGY PREDICTED BY IDOCK:   -0.24 KCAL/MOL
REMARK 927      BINDING AFFINITY PREDICTED BY RF-SCORE:    0.00 PKD
ROOT
HETATM    1  O   UNL     1      -8.488   8.305  64.415  1.00  0.00    -0.120 OA 
HETATM    2  S   UNL     1      -8.320   9.849  64.849  1.00  0.00    -0.162 S  
HETATM    3  O   UNL     1      -8.871  10.606  63.745  1.00  0.00    -0.183 OA 
HETATM    4  O   UNL     1      -6.937  10.006  65.241  1.00  0.00    -0.119 OA 
HETATM    5  O   UNL     1      -9.287   9.985  66.153  1.00  0.00    -0.157 OA 
ENDROOT
BRANCH   5   6
HETATM    6  C   UNL     1      -9.317  11.144  66.885  1.00  0.00    -0.175 A  
HETATM    7  C   UNL     1      -8.468  11.411  67.955  1.00  0.00    -0.145 A  
HETATM    8  C   UNL     1      -8.557  12.626  68.641  1.00  0.00     0.046 A  
HETATM    9  C   UNL     1      -9.489  13.607  68.266  1.00  0.00    -0.213 A  
HETATM   10  C   UNL     1      -9.539  14.928  69.048  1.00  0.00    -0.204 C  
HETATM   11  C   UNL     1     -10.340  13.317  67.187  1.00  0.00    -0.248 A  
HETATM   12  C   UNL     1     -10.803  15.108  69.897  1.00  0.00    -0.270 A  
HETATM   13  C   UNL     1     -10.241  12.108  66.488  1.00  0.00    -0.230 A  
HETATM   14  C   UNL     1      -9.152  16.170  68.235  1.00  0.00    -0.190 A  
HETATM   15  C   UNL     1     -10.687  15.224  71.287  1.00  0.00     0.077 A  
HETATM   16  C   UNL     1      -9.935  16.629  67.167  1.00  0.00    -0.268 A  
HETATM   17  C   UNL     1     -11.836  15.375  72.059  1.00  0.00    -0.523 A  
HETATM   18  C   UNL     1      -9.569  17.757  66.429  1.00  0.00    -0.293 A  
HETATM   19  C   UNL     1      -8.441  18.488  66.787  1.00  0.00    -0.282 A  
HETATM   20  C   UNL     1     -13.073  15.412  71.435  1.00  0.00    -0.563 A  
HETATM   21  C   UNL     1      -7.642  18.045  67.842  1.00  0.00    -0.231 A  
HETATM   22  N   UNL     1     -12.014  15.154  69.278  1.00  0.00    -0.309 NA 
HETATM   23  C   UNL     1     -13.111  15.302  70.055  1.00  0.00     0.121 A  
HETATM   24  C   UNL     1      -7.991  16.896  68.558  1.00  0.00    -0.242 A  
BRANCH  19  25
HETATM   25  O   UNL     1      -8.043  19.646  66.174  1.00  0.00    -0.331 OA 
HETATM   26  S   UNL     1      -6.571  19.785  65.484  1.00  0.00    -0.283 S  
HETATM   27  O   UNL     1      -5.633  20.217  66.499  1.00  0.00    -0.169 OA 
HETATM   28  O   UNL     1      -6.308  18.641  64.638  1.00  0.00    -0.457 OA 
HETATM   29  O   UNL     1      -6.766  21.058  64.518  1.00  0.00    -0.192 OA 
ENDBRANCH  19  25
ENDBRANCH   5   6
TORSDOF 2
ENDMDL
MODEL       33
REMARK 921   NORMALIZED FREE ENERGY PREDICTED BY IDOCK:   -5.50 KCAL/MOL
REMARK 922        TOTAL FREE ENERGY PREDICTED BY IDOCK:   -6.48 KCAL/MOL
REMARK 923 INTER-LIGAND FREE ENERGY PREDICTED BY IDOCK:   -6.18 KCAL/MOL
REMARK 924 INTRA-LIGAND FREE ENERGY PREDICTED BY IDOCK:   -0.30 KCAL/MOL
REMARK 927      BINDING AFFINITY PREDICTED BY RF-SCORE:    0.00 PKD
ROOT
HETATM    1  O   UNL     1      -8.242   7.301  63.588  1.00  0.00    -0.050 OA 
HETATM    2  S   UNL     1      -8.263   8.913  63.604  1.00  0.00    -0.158 S  
HETATM    3  O   UNL     1      -8.923   9.286  62.370  1.00  0.00    -0.247 OA 
HETATM    4  O   UNL     1      -6.905   9.328  63.876  1.00  0.00    -0.089 OA 
HETATM    5  O   UNL     1      -9.220   9.268  64.874  1.00  0.00    -0.225 OA 
ENDROOT
BRANCH   5   6
HETATM    6  C   UNL     1      -9.385  10.566  65.285  1.00  0.00    -0.213 A  
HETATM    7  C   UNL     1     -10.046  11.539  64.541  1.00  0.00    -0.324 A  
HETATM    8  C   UNL     1     -10.181  12.838  65.040  1.00  0.00    -0.292 A  
HETATM    9  C   UNL     1      -9.670  13.191  66.299  1.00  0.00    -0.269 A  
HETATM   10  C   UNL     1      -9.854  14.630  66.804  1.00  0.00    -0.262 C  
HETATM   11  C   UNL     1      -9.002  12.196  67.033  1.00  0.00    -0.201 A  
HETATM   12  C   UNL     1      -8.555  15.442  66.872  1.00  0.00    -0.259 A  
HETATM   13  C   UNL     1      -8.880  10.891  66.542  1.00  0.00    -0.169 A  
HETATM   14  C   UNL     1     -10.739  14.765  68.049  1.00  0.00    -0.248 A  
HETATM   15  C   UNL     1      -8.422  16.593  66.086  1.00  0.00    -0.308 A  
HETATM   16  C   UNL     1     -10.351  14.247  69.293  1.00  0.00    -0.072 A  
HETATM   17  C   UNL     1      -7.239  17.325  66.138  1.00  0.00    -0.304 A  
HETATM   18  C   UNL     1     -11.169  14.369  70.418  1.00  0.00    -0.061 A  
HETATM   19  C   UNL     1     -12.367  15.071  70.336  1.00  0.00    -0.348 A  
HETATM   20  C   UNL     1      -6.215  16.901  66.971  1.00  0.00    -0.226 A  
HETATM   21  C   UNL     1     -12.777  15.589  69.107  1.00  0.00     0.450 A  
HETATM   22  N   UNL     1      -7.558  15.028  67.700  1.00  0.00    -0.161 NA 
HETATM   23  C   UNL     1      -6.421  15.759  67.728  1.00  0.00    -0.155 A  
HETATM   24  C   UNL     1     -11.973  15.435  67.973  1.00  0.00    -0.003 A  
BRANCH  19  25
HETATM   25  O   UNL     1     -13.199  15.309  71.398  1.00  0.00    -0.402 OA 
HETATM   26  S   UNL     1     -12.621  15.803  72.841  1.00  0.00    -0.521 S  
HETATM   27  O   UNL     1     -12.273  14.630  73.615  1.00  0.00    -0.324 OA 
HETATM   28  O   UNL     1     -11.696  16.900  72.659  1.00  0.00    -0.329 OA 
HETATM   29  O   UNL     1     -13.937  16.402  73.549  1.00  0.00    -0.408 OA 
ENDBRANCH  19  25
ENDBRANCH   5   6
TORSDOF 2
ENDMDL
MODEL       34
REMARK 921   NORMALIZED FREE ENERGY PREDICTED BY IDOCK:   -5.40 KCAL/MOL
REMARK 922        TOTAL FREE ENERGY PREDICTED BY IDOCK:   -6.37 KCAL/MOL
REMARK 923 INTER-LIGAND FREE ENERGY PREDICTED BY IDOCK:   -6.54 KCAL/MOL
REMARK 924 INTRA-LIGAND FREE ENERGY PREDICTED BY IDOCK:    0.17 KCAL/MOL
REMARK 927      BINDING AFFINITY PREDICTED BY RF-SCORE:    0.00 PKD
ROOT
HETATM    1  O   UNL     1      -9.285   2.109  64.431  1.00  0.00    -0.118 OA 
HETATM    2  S   UNL     1      -8.775   3.049  65.638  1.00  0.00    -0.134 S  
HETATM    3  O   UNL     1      -7.362   3.241  65.386  1.00  0.00    -0.072 OA 
HETATM    4  O   UNL     1      -9.233   2.420  66.857  1.00  0.00    -0.133 OA 
HETATM    5  O   UNL     1      -9.577   4.446  65.398  1.00  0.00    -0.162 OA 
ENDROOT
BRANCH   5   6
HETATM    6  C   UNL     1      -9.492   5.468  66.308  1.00  0.00    -0.157 A  
HETATM    7  C   UNL     1      -8.298   5.908  66.874  1.00  0.00    -0.108 A  
HETATM    8  C   UNL     1      -8.298   6.967  67.787  1.00  0.00    -0.117 A  
HETATM    9  C   UNL     1      -9.489   7.619  68.146  1.00  0.00    -0.150 A  
HETATM   10  C   UNL     1      -9.432   8.783  69.147  1.00  0.00    -0.157 C  
HETATM   11  C   UNL     1     -10.683   7.157  67.567  1.00  0.00    -0.344 A  
HETATM   12  C   UNL     1     -10.063   8.471  70.509  1.00  0.00    -0.192 A  
HETATM   13  C   UNL     1     -10.683   6.109  66.640  1.00  0.00    -0.301 A  
HETATM   14  C   UNL     1      -9.836  10.145  68.570  1.00  0.00    -0.165 A  
HETATM   15  C   UNL     1      -9.265   8.503  71.659  1.00  0.00    -0.304 A  
HETATM   16  C   UNL     1     -11.146  10.411  68.147  1.00  0.00    -0.344 A  
HETATM   17  C   UNL     1      -9.834   8.208  72.895  1.00  0.00    -0.339 A  
HETATM   18  C   UNL     1     -11.501  11.653  67.617  1.00  0.00    -0.373 A  
HETATM   19  C   UNL     1     -10.563  12.679  67.558  1.00  0.00    -0.221 A  
HETATM   20  C   UNL     1     -11.182   7.891  72.964  1.00  0.00    -0.346 A  
HETATM   21  C   UNL     1      -9.252  12.435  67.966  1.00  0.00    -0.203 A  
HETATM   22  N   UNL     1     -11.388   8.171  70.571  1.00  0.00    -0.254 NA 
HETATM   23  C   UNL     1     -11.911   7.889  71.786  1.00  0.00    -0.298 A  
HETATM   24  C   UNL     1      -8.890  11.180  68.465  1.00  0.00    -0.161 A  
BRANCH  19  25
HETATM   25  O   UNL     1     -10.834  13.951  67.126  1.00  0.00    -0.280 OA 
HETATM   26  S   UNL     1     -10.728  15.233  68.129  1.00  0.00    -0.266 S  
HETATM   27  O   UNL     1     -12.001  15.390  68.800  1.00  0.00    -0.331 OA 
HETATM   28  O   UNL     1      -9.479  15.195  68.858  1.00  0.00    -0.196 OA 
HETATM   29  O   UNL     1     -10.640  16.466  67.097  1.00  0.00    -0.310 OA 
ENDBRANCH  19  25
ENDBRANCH   5   6
TORSDOF 2
ENDMDL
MODEL       35
REMARK 921   NORMALIZED FREE ENERGY PREDICTED BY IDOCK:   -5.36 KCAL/MOL
REMARK 922        TOTAL FREE ENERGY PREDICTED BY IDOCK:   -6.33 KCAL/MOL
REMARK 923 INTER-LIGAND FREE ENERGY PREDICTED BY IDOCK:   -6.23 KCAL/MOL
REMARK 924 INTRA-LIGAND FREE ENERGY PREDICTED BY IDOCK:   -0.10 KCAL/MOL
REMARK 927      BINDING AFFINITY PREDICTED BY RF-SCORE:    0.00 PKD
ROOT
HETATM    1  O   UNL     1     -10.730  16.449  66.327  1.00  0.00    -0.266 OA 
HETATM    2  S   UNL     1     -10.854  14.849  66.177  1.00  0.00    -0.333 S  
HETATM    3  O   UNL     1      -9.822  14.485  65.229  1.00  0.00    -0.325 OA 
HETATM    4  O   UNL     1     -12.247  14.579  65.899  1.00  0.00    -0.349 OA 
HETATM    5  O   UNL     1     -10.466  14.296  67.660  1.00  0.00    -0.246 OA 
ENDROOT
BRANCH   5   6
HETATM    6  C   UNL     1     -10.575  12.963  67.962  1.00  0.00    -0.227 A  
HETATM    7  C   UNL     1     -11.745  12.224  67.807  1.00  0.00    -0.403 A  
HETATM    8  C   UNL     1     -11.768  10.864  68.127  1.00  0.00    -0.231 A  
HETATM    9  C   UNL     1     -10.619  10.207  68.597  1.00  0.00    -0.236 A  
HETATM   10  C   UNL     1     -10.696   8.708  68.926  1.00  0.00    -0.109 C  
HETATM   11  C   UNL     1      -9.449  10.971  68.751  1.00  0.00    -0.190 A  
HETATM   12  C   UNL     1     -10.589   8.387  70.421  1.00  0.00    -0.223 A  
HETATM   13  C   UNL     1      -9.421  12.329  68.415  1.00  0.00    -0.175 A  
HETATM   14  C   UNL     1      -9.831   7.810  68.032  1.00  0.00    -0.192 A  
HETATM   15  C   UNL     1     -11.660   7.760  71.068  1.00  0.00    -0.301 A  
HETATM   16  C   UNL     1      -8.431   7.870  68.056  1.00  0.00    -0.123 A  
HETATM   17  C   UNL     1     -11.570   7.478  72.428  1.00  0.00    -0.356 A  
HETATM   18  C   UNL     1      -7.654   7.053  67.233  1.00  0.00    -0.108 A  
HETATM   19  C   UNL     1      -8.264   6.111  66.411  1.00  0.00    -0.113 A  
HETATM   20  C   UNL     1     -10.416   7.822  73.117  1.00  0.00    -0.413 A  
HETATM   21  C   UNL     1      -9.656   6.039  66.365  1.00  0.00    -0.168 A  
HETATM   22  N   UNL     1      -9.450   8.717  71.089  1.00  0.00    -0.194 NA 
HETATM   23  C   UNL     1      -9.392   8.431  72.409  1.00  0.00    -0.285 A  
HETATM   24  C   UNL     1     -10.434   6.882  67.165  1.00  0.00    -0.373 A  
BRANCH  19  25
HETATM   25  O   UNL     1      -7.587   5.215  65.625  1.00  0.00    -0.083 OA 
HETATM   26  S   UNL     1      -7.147   5.582  64.098  1.00  0.00    -0.051 S  
HETATM   27  O   UNL     1      -8.244   5.244  63.216  1.00  0.00    -0.106 OA 
HETATM   28  O   UNL     1      -6.509   6.880  64.061  1.00  0.00    -0.038 OA 
HETATM   29  O   UNL     1      -6.009   4.483  63.798  1.00  0.00    -0.017 OA 
ENDBRANCH  19  25
ENDBRANCH   5   6
TORSDOF 2
ENDMDL
MODEL       36
REMARK 921   NORMALIZED FREE ENERGY PREDICTED BY IDOCK:   -5.35 KCAL/MOL
REMARK 922        TOTAL FREE ENERGY PREDICTED BY IDOCK:   -6.31 KCAL/MOL
REMARK 923 INTER-LIGAND FREE ENERGY PREDICTED BY IDOCK:   -6.21 KCAL/MOL
REMARK 924 INTRA-LIGAND FREE ENERGY PREDICTED BY IDOCK:   -0.10 KCAL/MOL
REMARK 927      BINDING AFFINITY PREDICTED BY RF-SCORE:    0.00 PKD
ROOT
HETATM    1  O   UNL     1     -11.762   4.051  73.572  1.00  0.00    -0.157 OA 
HETATM    2  S   UNL     1     -10.658   5.016  72.901  1.00  0.00    -0.245 S  
HETATM    3  O   UNL     1      -9.461   4.205  72.815  1.00  0.00    -0.121 OA 
HETATM    4  O   UNL     1     -10.672   6.239  73.673  1.00  0.00    -0.267 OA 
HETATM    5  O   UNL     1     -11.250   5.293  71.409  1.00  0.00    -0.022 OA 
ENDROOT
BRANCH   5   6
HETATM    6  C   UNL     1     -10.636   6.182  70.566  1.00  0.00    -0.253 A  
HETATM    7  C   UNL     1     -10.016   5.821  69.372  1.00  0.00    -0.244 A  
HETATM    8  C   UNL     1      -9.423   6.794  68.562  1.00  0.00    -0.131 A  
HETATM    9  C   UNL     1      -9.445   8.152  68.921  1.00  0.00    -0.151 A  
HETATM   10  C   UNL     1      -8.786   9.182  67.991  1.00  0.00    -0.129 C  
HETATM   11  C   UNL     1     -10.071   8.495  70.131  1.00  0.00    -0.197 A  
HETATM   12  C   UNL     1      -7.511   9.816  68.560  1.00  0.00    -0.079 A  
HETATM   13  C   UNL     1     -10.680   7.525  70.934  1.00  0.00    -0.244 A  
HETATM   14  C   UNL     1      -9.755  10.189  67.359  1.00  0.00    -0.192 A  
HETATM   15  C   UNL     1      -6.295   9.633  67.891  1.00  0.00    -0.057 A  
HETATM   16  C   UNL     1     -10.441  11.139  68.129  1.00  0.00    -0.215 A  
HETATM   17  C   UNL     1      -5.135  10.198  68.413  1.00  0.00    -0.035 A  
HETATM   18  C   UNL     1     -11.326  12.047  67.544  1.00  0.00    -0.387 A  
HETATM   19  C   UNL     1     -11.497  12.063  66.164  1.00  0.00    -0.339 A  
HETATM   20  C   UNL     1      -5.207  10.936  69.585  1.00  0.00    -0.038 A  
HETATM   21  C   UNL     1     -10.831  11.122  65.379  1.00  0.00    -0.212 A  
HETATM   22  N   UNL     1      -7.591  10.548  69.704  1.00  0.00    -0.150 NA 
HETATM   23  C   UNL     1      -6.446  11.084  70.186  1.00  0.00    -0.128 A  
HETATM   24  C   UNL     1      -9.970  10.191  65.970  1.00  0.00    -0.322 A  
BRANCH  19  25
HETATM   25  O   UNL     1     -12.283  12.961  65.491  1.00  0.00    -0.435 OA 
HETATM   26  S   UNL     1     -11.743  14.454  65.115  1.00  0.00    -0.387 S  
HETATM   27  O   UNL     1     -12.019  15.331  66.234  1.00  0.00     0.066 OA 
HETATM   28  O   UNL     1     -10.429  14.373  64.515  1.00  0.00    -0.349 OA 
HETATM   29  O   UNL     1     -12.768  14.907  63.959  1.00  0.00    -0.792 OA 
ENDBRANCH  19  25
ENDBRANCH   5   6
TORSDOF 2
ENDMDL
MODEL       37
REMARK 921   NORMALIZED FREE ENERGY PREDICTED BY IDOCK:   -5.34 KCAL/MOL
REMARK 922        TOTAL FREE ENERGY PREDICTED BY IDOCK:   -6.30 KCAL/MOL
REMARK 923 INTER-LIGAND FREE ENERGY PREDICTED BY IDOCK:   -6.46 KCAL/MOL
REMARK 924 INTRA-LIGAND FREE ENERGY PREDICTED BY IDOCK:    0.16 KCAL/MOL
REMARK 927      BINDING AFFINITY PREDICTED BY RF-SCORE:    0.00 PKD
ROOT
HETATM    1  O   UNL     1     -12.358  14.270  66.952  1.00  0.00    -0.408 OA 
HETATM    2  S   UNL     1     -11.482  12.960  67.296  1.00  0.00    -0.356 S  
HETATM    3  O   UNL     1     -10.107  13.381  67.131  1.00  0.00    -0.236 OA 
HETATM    4  O   UNL     1     -12.033  11.889  66.495  1.00  0.00    -0.588 OA 
HETATM    5  O   UNL     1     -11.797  12.695  68.872  1.00  0.00    -0.302 OA 
ENDROOT
BRANCH   5   6
HETATM    6  C   UNL     1     -11.317  11.577  69.504  1.00  0.00    -0.274 A  
HETATM    7  C   UNL     1     -12.018  10.873  70.480  1.00  0.00    -0.466 A  
HETATM    8  C   UNL     1     -11.460   9.733  71.066  1.00  0.00    -0.458 A  
HETATM    9  C   UNL     1     -10.193   9.263  70.682  1.00  0.00    -0.335 A  
HETATM   10  C   UNL     1      -9.630   8.001  71.352  1.00  0.00    -0.195 C  
HETATM   11  C   UNL     1      -9.500   9.990  69.700  1.00  0.00    -0.247 A  
HETATM   12  C   UNL     1      -8.435   8.261  72.277  1.00  0.00    -0.187 A  
HETATM   13  C   UNL     1     -10.064  11.121  69.100  1.00  0.00    -0.134 A  
HETATM   14  C   UNL     1      -9.441   6.805  70.411  1.00  0.00    -0.168 A  
HETATM   15  C   UNL     1      -8.542   7.958  73.639  1.00  0.00    -0.316 A  
HETATM   16  C   UNL     1      -8.500   6.823  69.371  1.00  0.00    -0.132 A  
HETATM   17  C   UNL     1      -7.462   8.205  74.483  1.00  0.00    -0.257 A  
HETATM   18  C   UNL     1      -8.342   5.731  68.515  1.00  0.00    -0.107 A  
HETATM   19  C   UNL     1      -9.080   4.570  68.723  1.00  0.00    -0.120 A  
HETATM   20  C   UNL     1      -6.298   8.743  73.955  1.00  0.00    -0.065 A  
HETATM   21  C   UNL     1     -10.027   4.532  69.746  1.00  0.00    -0.268 A  
HETATM   22  N   UNL     1      -7.292   8.779  71.751  1.00  0.00    -0.249 NA 
HETATM   23  C   UNL     1      -6.261   9.008  72.595  1.00  0.00     0.075 A  
HETATM   24  C   UNL     1     -10.209   5.640  70.581  1.00  0.00    -0.292 A  
BRANCH  19  25
HETATM   25  O   UNL     1      -8.942   3.423  67.986  1.00  0.00    -0.111 OA 
HETATM   26  S   UNL     1      -7.569   3.093  67.169  1.00  0.00    -0.075 S  
HETATM   27  O   UNL     1      -7.664   3.702  65.859  1.00  0.00    -0.086 OA 
HETATM   28  O   UNL     1      -6.420   3.294  68.024  1.00  0.00    -0.035 OA 
HETATM   29  O   UNL     1      -7.699   1.509  66.909  1.00  0.00    -0.062 OA 
ENDBRANCH  19  25
ENDBRANCH   5   6
TORSDOF 2
ENDMDL
MODEL       38
REMARK 921   NORMALIZED FREE ENERGY PREDICTED BY IDOCK:   -5.33 KCAL/MOL
REMARK 922        TOTAL FREE ENERGY PREDICTED BY IDOCK:   -6.29 KCAL/MOL
REMARK 923 INTER-LIGAND FREE ENERGY PREDICTED BY IDOCK:   -6.17 KCAL/MOL
REMARK 924 INTRA-LIGAND FREE ENERGY PREDICTED BY IDOCK:   -0.11 KCAL/MOL
REMARK 927      BINDING AFFINITY PREDICTED BY RF-SCORE:    0.00 PKD
ROOT
HETATM    1  O   UNL     1      -8.917   2.046  64.199  1.00  0.00    -0.096 OA 
HETATM    2  S   UNL     1      -9.024   3.577  64.695  1.00  0.00    -0.133 S  
HETATM    3  O   UNL     1     -10.369   3.986  64.345  1.00  0.00    -0.222 OA 
HETATM    4  O   UNL     1      -7.874   4.258  64.144  1.00  0.00    -0.082 OA 
HETATM    5  O   UNL     1      -8.882   3.464  66.314  1.00  0.00    -0.120 OA 
ENDROOT
BRANCH   5   6
HETATM    6  C   UNL     1      -8.805   4.591  67.091  1.00  0.00    -0.109 A  
HETATM    7  C   UNL     1      -7.609   5.191  67.476  1.00  0.00    -0.088 A  
HETATM    8  C   UNL     1      -7.620   6.348  68.260  1.00  0.00    -0.103 A  
HETATM    9  C   UNL     1      -8.827   6.940  68.667  1.00  0.00    -0.124 A  
HETATM   10  C   UNL     1      -8.782   8.217  69.521  1.00  0.00    -0.142 C  
HETATM   11  C   UNL     1     -10.023   6.317  68.273  1.00  0.00    -0.152 A  
HETATM   12  C   UNL     1      -9.249   8.020  70.968  1.00  0.00    -0.149 A  
HETATM   13  C   UNL     1     -10.014   5.169  67.474  1.00  0.00    -0.211 A  
HETATM   14  C   UNL     1      -9.364   9.463  68.842  1.00  0.00    -0.154 A  
HETATM   15  C   UNL     1      -8.352   8.255  72.017  1.00  0.00    -0.219 A  
HETATM   16  C   UNL     1     -10.727   9.569  68.532  1.00  0.00    -0.222 A  
HETATM   17  C   UNL     1      -8.770   8.066  73.331  1.00  0.00    -0.323 A  
HETATM   18  C   UNL     1     -11.244  10.705  67.908  1.00  0.00    -0.376 A  
HETATM   19  C   UNL     1     -10.416  11.789  67.636  1.00  0.00    -0.197 A  
HETATM   20  C   UNL     1     -10.071   7.651  73.576  1.00  0.00    -0.345 A  
HETATM   21  C   UNL     1      -9.054  11.703  67.929  1.00  0.00    -0.171 A  
HETATM   22  N   UNL     1     -10.529   7.624  71.203  1.00  0.00    -0.208 NA 
HETATM   23  C   UNL     1     -10.905   7.449  72.490  1.00  0.00    -0.283 A  
HETATM   24  C   UNL     1      -8.531  10.550  68.523  1.00  0.00    -0.131 A  
BRANCH  19  25
HETATM   25  O   UNL     1     -10.843  12.974  67.096  1.00  0.00    -0.255 OA 
HETATM   26  S   UNL     1     -11.424  13.058  65.574  1.00  0.00    -0.336 S  
HETATM   27  O   UNL     1     -10.309  13.263  64.674  1.00  0.00    -0.381 OA 
HETATM   28  O   UNL     1     -12.401  12.014  65.356  1.00  0.00    -0.457 OA 
HETATM   29  O   UNL     1     -12.219  14.458  65.590  1.00  0.00    -0.384 OA 
ENDBRANCH  19  25
ENDBRANCH   5   6
TORSDOF 2
ENDMDL
MODEL       39
REMARK 921   NORMALIZED FREE ENERGY PREDICTED BY IDOCK:   -5.32 KCAL/MOL
REMARK 922        TOTAL FREE ENERGY PREDICTED BY IDOCK:   -6.28 KCAL/MOL
REMARK 923 INTER-LIGAND FREE ENERGY PREDICTED BY IDOCK:   -6.00 KCAL/MOL
REMARK 924 INTRA-LIGAND FREE ENERGY PREDICTED BY IDOCK:   -0.28 KCAL/MOL
REMARK 927      BINDING AFFINITY PREDICTED BY RF-SCORE:    0.00 PKD
ROOT
HETATM    1  O   UNL     1     -13.869  15.409  73.364  1.00  0.00    -0.271 OA 
HETATM    2  S   UNL     1     -13.086  15.513  71.959  1.00  0.00    -0.473 S  
HETATM    3  O   UNL     1     -11.996  16.432  72.209  1.00  0.00    -0.524 OA 
HETATM    4  O   UNL     1     -14.091  15.805  70.961  1.00  0.00    -0.417 OA 
HETATM    5  O   UNL     1     -12.503  14.008  71.737  1.00  0.00    -0.313 OA 
ENDROOT
BRANCH   5   6
HETATM    6  C   UNL     1     -11.869  13.667  70.569  1.00  0.00    -0.203 A  
HETATM    7  C   UNL     1     -10.833  14.405  70.004  1.00  0.00     0.036 A  
HETATM    8  C   UNL     1     -10.230  13.981  68.816  1.00  0.00    -0.200 A  
HETATM    9  C   UNL     1     -10.642  12.803  68.172  1.00  0.00    -0.242 A  
HETATM   10  C   UNL     1      -9.940  12.376  66.873  1.00  0.00    -0.223 C  
HETATM   11  C   UNL     1     -11.692  12.074  68.756  1.00  0.00    -0.377 A  
HETATM   12  C   UNL     1     -10.818  12.488  65.620  1.00  0.00    -0.277 A  
HETATM   13  C   UNL     1     -12.284  12.489  69.954  1.00  0.00    -0.233 A  
HETATM   14  C   UNL     1      -9.154  11.063  66.969  1.00  0.00    -0.154 A  
HETATM   15  C   UNL     1     -10.438  13.356  64.590  1.00  0.00    -0.428 A  
HETATM   16  C   UNL     1      -9.792   9.832  67.174  1.00  0.00    -0.238 A  
HETATM   17  C   UNL     1     -11.240  13.466  63.457  1.00  0.00     0.145 A  
HETATM   18  C   UNL     1      -9.066   8.643  67.268  1.00  0.00    -0.152 A  
HETATM   19  C   UNL     1      -7.686   8.654  67.094  1.00  0.00    -0.096 A  
HETATM   20  C   UNL     1     -12.399  12.710  63.370  1.00  0.00    -0.553 A  
HETATM   21  C   UNL     1      -7.029   9.869  66.896  1.00  0.00    -0.088 A  
HETATM   22  N   UNL     1     -11.948  11.735  65.536  1.00  0.00    -0.267 NA 
HETATM   23  C   UNL     1     -12.706  11.865  64.424  1.00  0.00     0.018 A  
HETATM   24  C   UNL     1      -7.754  11.063  66.837  1.00  0.00    -0.140 A  
BRANCH  19  25
HETATM   25  O   UNL     1      -6.897   7.535  67.092  1.00  0.00    -0.067 OA 
HETATM   26  S   UNL     1      -7.146   6.315  66.037  1.00  0.00    -0.068 S  
HETATM   27  O   UNL     1      -8.114   5.407  66.616  1.00  0.00    -0.104 OA 
HETATM   28  O   UNL     1      -7.296   6.839  64.697  1.00  0.00    -0.077 OA 
HETATM   29  O   UNL     1      -5.743   5.527  66.088  1.00  0.00    -0.016 OA 
ENDBRANCH  19  25
ENDBRANCH   5   6
TORSDOF 2
ENDMDL
MODEL       40
REMARK 921   NORMALIZED FREE ENERGY PREDICTED BY IDOCK:   -5.23 KCAL/MOL
REMARK 922        TOTAL FREE ENERGY PREDICTED BY IDOCK:   -6.18 KCAL/MOL
REMARK 923 INTER-LIGAND FREE ENERGY PREDICTED BY IDOCK:   -6.18 KCAL/MOL
REMARK 924 INTRA-LIGAND FREE ENERGY PREDICTED BY IDOCK:   -0.01 KCAL/MOL
REMARK 927      BINDING AFFINITY PREDICTED BY RF-SCORE:    0.00 PKD
ROOT
HETATM    1  O   UNL     1      -8.247  10.557  63.841  1.00  0.00    -0.147 OA 
HETATM    2  S   UNL     1      -9.183  10.337  65.135  1.00  0.00    -0.229 S  
HETATM    3  O   UNL     1     -10.530  10.582  64.664  1.00  0.00    -0.311 OA 
HETATM    4  O   UNL     1      -8.606  11.142  66.188  1.00  0.00    -0.173 OA 
HETATM    5  O   UNL     1      -8.994   8.755  65.477  1.00  0.00    -0.193 OA 
ENDROOT
BRANCH   5   6
HETATM    6  C   UNL     1      -9.552   8.211  66.605  1.00  0.00    -0.229 A  
HETATM    7  C   UNL     1     -10.453   7.149  66.592  1.00  0.00    -0.205 A  
HETATM    8  C   UNL     1     -10.966   6.645  67.791  1.00  0.00    -0.367 A  
HETATM    9  C   UNL     1     -10.582   7.181  69.030  1.00  0.00    -0.225 A  
HETATM   10  C   UNL     1     -11.169   6.584  70.318  1.00  0.00    -0.433 C  
HETATM   11  C   UNL     1      -9.675   8.255  69.022  1.00  0.00    -0.167 A  
HETATM   12  C   UNL     1     -12.142   7.513  71.054  1.00  0.00    -0.277 A  
HETATM   13  C   UNL     1      -9.148   8.750  67.824  1.00  0.00    -0.143 A  
HETATM   14  C   UNL     1     -10.145   5.902  71.234  1.00  0.00    -0.245 A  
HETATM   15  C   UNL     1     -13.474   7.118  71.222  1.00  0.00    -0.309 A  
HETATM   16  C   UNL     1      -9.135   6.626  71.883  1.00  0.00    -0.143 A  
HETATM   17  C   UNL     1     -14.362   7.965  71.879  1.00  0.00    -0.549 A  
HETATM   18  C   UNL     1      -8.204   5.993  72.709  1.00  0.00    -0.118 A  
HETATM   19  C   UNL     1      -8.303   4.627  72.953  1.00  0.00    -0.100 A  
HETATM   20  C   UNL     1     -13.907   9.184  72.359  1.00  0.00    -0.524 A  
HETATM   21  C   UNL     1      -9.295   3.886  72.312  1.00  0.00    -0.173 A  
HETATM   22  N   UNL     1     -11.687   8.703  71.532  1.00  0.00    -0.287 NA 
HETATM   23  C   UNL     1     -12.573   9.504  72.166  1.00  0.00    -0.334 A  
HETATM   24  C   UNL     1     -10.207   4.515  71.458  1.00  0.00    -0.195 A  
BRANCH  19  25
HETATM   25  O   UNL     1      -7.486   3.932  73.805  1.00  0.00    -0.067 OA 
HETATM   26  S   UNL     1      -6.304   2.955  73.246  1.00  0.00    -0.013 S  
HETATM   27  O   UNL     1      -6.872   1.643  73.016  1.00  0.00    -0.020 OA 
HETATM   28  O   UNL     1      -5.528   3.640  72.236  1.00  0.00     0.000 OA 
HETATM   29  O   UNL     1      -5.361   2.787  74.540  1.00  0.00     0.000 OA 
ENDBRANCH  19  25
ENDBRANCH   5   6
TORSDOF 2
ENDMDL
MODEL       41
REMARK 921   NORMALIZED FREE ENERGY PREDICTED BY IDOCK:   -5.20 KCAL/MOL
REMARK 922        TOTAL FREE ENERGY PREDICTED BY IDOCK:   -6.15 KCAL/MOL
REMARK 923 INTER-LIGAND FREE ENERGY PREDICTED BY IDOCK:   -6.13 KCAL/MOL
REMARK 924 INTRA-LIGAND FREE ENERGY PREDICTED BY IDOCK:   -0.01 KCAL/MOL
REMARK 927      BINDING AFFINITY PREDICTED BY RF-SCORE:    0.00 PKD
ROOT
HETATM    1  O   UNL     1      -8.051  19.923  69.447  1.00  0.00    -0.062 OA 
HETATM    2  S   UNL     1      -8.431  18.827  68.327  1.00  0.00    -0.336 S  
HETATM    3  O   UNL     1      -7.613  19.169  67.182  1.00  0.00    -0.230 OA 
HETATM    4  O   UNL     1      -9.874  18.830  68.238  1.00  0.00    -0.332 OA 
HETATM    5  O   UNL     1      -7.917  17.425  68.978  1.00  0.00    -0.221 OA 
ENDROOT
BRANCH   5   6
HETATM    6  C   UNL     1      -8.177  16.229  68.360  1.00  0.00    -0.185 A  
HETATM    7  C   UNL     1      -7.328  15.632  67.431  1.00  0.00    -0.235 A  
HETATM    8  C   UNL     1      -7.664  14.403  66.856  1.00  0.00     0.265 A  
HETATM    9  C   UNL     1      -8.849  13.735  67.204  1.00  0.00    -0.240 A  
HETATM   10  C   UNL     1      -9.166  12.382  66.549  1.00  0.00    -0.215 C  
HETATM   11  C   UNL     1      -9.695  14.356  68.140  1.00  0.00    -0.223 A  
HETATM   12  C   UNL     1     -10.347  12.419  65.573  1.00  0.00    -0.271 A  
HETATM   13  C   UNL     1      -9.352  15.578  68.729  1.00  0.00    -0.209 A  
HETATM   14  C   UNL     1      -9.192  11.192  67.516  1.00  0.00    -0.155 A  
HETATM   15  C   UNL     1     -10.134  12.110  64.225  1.00  0.00    -0.317 A  
HETATM   16  C   UNL     1     -10.165  11.074  68.518  1.00  0.00    -0.203 A  
HETATM   17  C   UNL     1     -11.204  12.154  63.335  1.00  0.00    -0.494 A  
HETATM   18  C   UNL     1     -10.175   9.989  69.397  1.00  0.00    -0.239 A  
HETATM   19  C   UNL     1      -9.246   8.964  69.250  1.00  0.00    -0.145 A  
HETATM   20  C   UNL     1     -12.463  12.501  63.803  1.00  0.00    -0.552 A  
HETATM   21  C   UNL     1      -8.264   9.064  68.265  1.00  0.00    -0.116 A  
HETATM   22  N   UNL     1     -11.581  12.749  66.041  1.00  0.00    -0.361 NA 
HETATM   23  C   UNL     1     -12.600  12.784  65.152  1.00  0.00    -0.444 A  
HETATM   24  C   UNL     1      -8.234  10.168  67.407  1.00  0.00    -0.114 A  
BRANCH  19  25
HETATM   25  O   UNL     1      -9.221   7.826  70.013  1.00  0.00    -0.153 OA 
HETATM   26  S   UNL     1      -7.817   7.111  70.433  1.00  0.00    -0.101 S  
HETATM   27  O   UNL     1      -7.444   6.190  69.379  1.00  0.00    -0.088 OA 
HETATM   28  O   UNL     1      -6.891   8.094  70.950  1.00  0.00    -0.040 OA 
HETATM   29  O   UNL     1      -8.264   6.180  71.668  1.00  0.00    -0.116 OA 
ENDBRANCH  19  25
ENDBRANCH   5   6
TORSDOF 2
ENDMDL
MODEL       42
REMARK 921   NORMALIZED FREE ENERGY PREDICTED BY IDOCK:   -5.17 KCAL/MOL
REMARK 922        TOTAL FREE ENERGY PREDICTED BY IDOCK:   -6.11 KCAL/MOL
REMARK 923 INTER-LIGAND FREE ENERGY PREDICTED BY IDOCK:   -6.14 KCAL/MOL
REMARK 924 INTRA-LIGAND FREE ENERGY PREDICTED BY IDOCK:    0.02 KCAL/MOL
REMARK 927      BINDING AFFINITY PREDICTED BY RF-SCORE:    0.00 PKD
ROOT
HETATM    1  O   UNL     1     -10.951   5.059  73.950  1.00  0.00    -0.302 OA 
HETATM    2  S   UNL     1     -10.132   5.203  72.569  1.00  0.00    -0.187 S  
HETATM    3  O   UNL     1     -10.022   3.852  72.061  1.00  0.00    -0.167 OA 
HETATM    4  O   UNL     1      -8.952   5.978  72.883  1.00  0.00    -0.127 OA 
HETATM    5  O   UNL     1     -11.133   6.073  71.622  1.00  0.00    -0.262 OA 
ENDROOT
BRANCH   5   6
HETATM    6  C   UNL     1     -10.727   6.507  70.387  1.00  0.00    -0.255 A  
HETATM    7  C   UNL     1     -11.333   6.129  69.192  1.00  0.00    -0.303 A  
HETATM    8  C   UNL     1     -10.864   6.629  67.973  1.00  0.00    -0.345 A  
HETATM    9  C   UNL     1      -9.786   7.527  67.921  1.00  0.00    -0.185 A  
HETATM   10  C   UNL     1      -9.316   8.053  66.556  1.00  0.00    -0.261 C  
HETATM   11  C   UNL     1      -9.185   7.893  69.137  1.00  0.00    -0.144 A  
HETATM   12  C   UNL     1      -7.941   7.531  66.123  1.00  0.00    -0.111 A  
HETATM   13  C   UNL     1      -9.664   7.407  70.359  1.00  0.00    -0.175 A  
HETATM   14  C   UNL     1      -9.504   9.560  66.350  1.00  0.00    -0.251 A  
HETATM   15  C   UNL     1      -7.834   6.761  64.959  1.00  0.00    -0.118 A  
HETATM   16  C   UNL     1      -8.789  10.505  67.099  1.00  0.00    -0.140 A  
HETATM   17  C   UNL     1      -6.587   6.277  64.570  1.00  0.00    -0.034 A  
HETATM   18  C   UNL     1      -8.974  11.876  66.908  1.00  0.00    -0.196 A  
HETATM   19  C   UNL     1      -9.835  12.331  65.915  1.00  0.00    -0.251 A  
HETATM   20  C   UNL     1      -5.474   6.571  65.344  1.00  0.00    -0.021 A  
HETATM   21  C   UNL     1     -10.564  11.409  65.163  1.00  0.00    -0.352 A  
HETATM   22  N   UNL     1      -6.851   7.831  66.880  1.00  0.00    -0.070 NA 
HETATM   23  C   UNL     1      -5.655   7.347  66.477  1.00  0.00    -0.024 A  
HETATM   24  C   UNL     1     -10.403  10.037  65.379  1.00  0.00    -0.111 A  
BRANCH  19  25
HETATM   25  O   UNL     1     -10.027  13.651  65.601  1.00  0.00    -0.288 OA 
HETATM   26  S   UNL     1     -11.503  14.341  65.679  1.00  0.00    -0.336 S  
HETATM   27  O   UNL     1     -12.167  14.135  64.409  1.00  0.00    -0.484 OA 
HETATM   28  O   UNL     1     -12.139  14.016  66.936  1.00  0.00    -0.424 OA 
HETATM   29  O   UNL     1     -11.143  15.911  65.718  1.00  0.00    -0.216 OA 
ENDBRANCH  19  25
ENDBRANCH   5   6
TORSDOF 2
ENDMDL
MODEL       43
REMARK 921   NORMALIZED FREE ENERGY PREDICTED BY IDOCK:   -5.15 KCAL/MOL
REMARK 922        TOTAL FREE ENERGY PREDICTED BY IDOCK:   -6.09 KCAL/MOL
REMARK 923 INTER-LIGAND FREE ENERGY PREDICTED BY IDOCK:   -5.74 KCAL/MOL
REMARK 924 INTRA-LIGAND FREE ENERGY PREDICTED BY IDOCK:   -0.36 KCAL/MOL
REMARK 927      BINDING AFFINITY PREDICTED BY RF-SCORE:    0.00 PKD
ROOT
HETATM    1  O   UNL     1     -10.660   2.934  64.658  1.00  0.00     0.238 OA 
HETATM    2  S   UNL     1      -9.709   3.946  65.477  1.00  0.00    -0.153 S  
HETATM    3  O   UNL     1      -8.639   4.274  64.558  1.00  0.00    -0.116 OA 
HETATM    4  O   UNL     1      -9.431   3.300  66.740  1.00  0.00    -0.180 OA 
HETATM    5  O   UNL     1     -10.657   5.250  65.715  1.00  0.00    -0.080 OA 
ENDROOT
BRANCH   5   6
HETATM    6  C   UNL     1     -10.228   6.295  66.493  1.00  0.00    -0.100 A  
HETATM    7  C   UNL     1      -9.262   7.215  66.096  1.00  0.00    -0.126 A  
HETATM    8  C   UNL     1      -8.891   8.260  66.947  1.00  0.00    -0.155 A  
HETATM    9  C   UNL     1      -9.485   8.417  68.209  1.00  0.00    -0.147 A  
HETATM   10  C   UNL     1      -9.047   9.588  69.102  1.00  0.00    -0.152 C  
HETATM   11  C   UNL     1     -10.455   7.476  68.594  1.00  0.00    -0.207 A  
HETATM   12  C   UNL     1      -8.257   9.167  70.347  1.00  0.00    -0.171 A  
HETATM   13  C   UNL     1     -10.840   6.439  67.736  1.00  0.00    -0.418 A  
HETATM   14  C   UNL     1     -10.139  10.628  69.378  1.00  0.00    -0.199 A  
HETATM   15  C   UNL     1      -6.938   9.607  70.505  1.00  0.00    -0.133 A  
HETATM   16  C   UNL     1     -11.281  10.319  70.132  1.00  0.00    -0.387 A  
HETATM   17  C   UNL     1      -6.215   9.216  71.629  1.00  0.00    -0.056 A  
HETATM   18  C   UNL     1     -12.273  11.272  70.371  1.00  0.00    -0.453 A  
HETATM   19  C   UNL     1     -12.113  12.576  69.914  1.00  0.00    -0.252 A  
HETATM   20  C   UNL     1      -6.819   8.400  72.574  1.00  0.00    -0.104 A  
HETATM   21  C   UNL     1     -10.989  12.903  69.155  1.00  0.00    -0.184 A  
HETATM   22  N   UNL     1      -8.859   8.376  71.275  1.00  0.00    -0.151 NA 
HETATM   23  C   UNL     1      -8.131   8.012  72.356  1.00  0.00    -0.131 A  
HETATM   24  C   UNL     1     -10.012  11.939  68.887  1.00  0.00    -0.024 A  
BRANCH  19  25
HETATM   25  O   UNL     1     -12.991  13.597  70.162  1.00  0.00    -0.030 OA 
HETATM   26  S   UNL     1     -13.009  14.379  71.593  1.00  0.00    -0.363 S  
HETATM   27  O   UNL     1     -13.883  13.656  72.494  1.00  0.00    -0.627 OA 
HETATM   28  O   UNL     1     -11.665  14.756  71.972  1.00  0.00    -0.330 OA 
HETATM   29  O   UNL     1     -13.801  15.734  71.232  1.00  0.00    -0.547 OA 
ENDBRANCH  19  25
ENDBRANCH   5   6
TORSDOF 2
ENDMDL
MODEL       44
REMARK 921   NORMALIZED FREE ENERGY PREDICTED BY IDOCK:   -5.06 KCAL/MOL
REMARK 922        TOTAL FREE ENERGY PREDICTED BY IDOCK:   -5.99 KCAL/MOL
REMARK 923 INTER-LIGAND FREE ENERGY PREDICTED BY IDOCK:   -5.78 KCAL/MOL
REMARK 924 INTRA-LIGAND FREE ENERGY PREDICTED BY IDOCK:   -0.21 KCAL/MOL
REMARK 927      BINDING AFFINITY PREDICTED BY RF-SCORE:    0.00 PKD
ROOT
HETATM    1  O   UNL     1     -12.490  14.905  63.718  1.00  0.00    -0.768 OA 
HETATM    2  S   UNL     1     -12.173  13.697  64.737  1.00  0.00    -0.402 S  
HETATM    3  O   UNL     1     -13.199  12.711  64.473  1.00  0.00    -0.783 OA 
HETATM    4  O   UNL     1     -12.040  14.300  66.044  1.00  0.00    -0.405 OA 
HETATM    5  O   UNL     1     -10.727  13.142  64.230  1.00  0.00    -0.386 OA 
ENDROOT
BRANCH   5   6
HETATM    6  C   UNL     1     -10.062  12.173  64.937  1.00  0.00    -0.254 A  
HETATM    7  C   UNL     1      -8.765  12.318  65.424  1.00  0.00     0.825 A  
HETATM    8  C   UNL     1      -8.164  11.283  66.147  1.00  0.00    -0.088 A  
HETATM    9  C   UNL     1      -8.848  10.085  66.410  1.00  0.00    -0.158 A  
HETATM   10  C   UNL     1      -8.144   8.984  67.218  1.00  0.00    -0.103 C  
HETATM   11  C   UNL     1     -10.154   9.957  65.906  1.00  0.00    -0.316 A  
HETATM   12  C   UNL     1      -7.789   7.736  66.400  1.00  0.00    -0.094 A  
HETATM   13  C   UNL     1     -10.763  10.998  65.197  1.00  0.00    -0.253 A  
HETATM   14  C   UNL     1      -8.783   8.678  68.578  1.00  0.00    -0.139 A  
HETATM   15  C   UNL     1      -6.447   7.368  66.256  1.00  0.00    -0.045 A  
HETATM   16  C   UNL     1     -10.061   8.111  68.684  1.00  0.00    -0.211 A  
HETATM   17  C   UNL     1      -6.122   6.242  65.504  1.00  0.00    -0.030 A  
HETATM   18  C   UNL     1     -10.635   7.843  69.928  1.00  0.00    -0.242 A  
HETATM   19  C   UNL     1      -9.915   8.079  71.094  1.00  0.00    -0.174 A  
HETATM   20  C   UNL     1      -7.138   5.504  64.915  1.00  0.00    -0.061 A  
HETATM   21  C   UNL     1      -8.644   8.650  71.013  1.00  0.00    -0.211 A  
HETATM   22  N   UNL     1      -8.791   7.010  65.833  1.00  0.00    -0.138 NA 
HETATM   23  C   UNL     1      -8.444   5.922  65.109  1.00  0.00    -0.130 A  
HETATM   24  C   UNL     1      -8.084   8.949  69.767  1.00  0.00    -0.109 A  
BRANCH  19  25
HETATM   25  O   UNL     1     -10.361   7.779  72.355  1.00  0.00    -0.215 OA 
HETATM   26  S   UNL     1     -10.593   6.237  72.834  1.00  0.00    -0.246 S  
HETATM   27  O   UNL     1     -11.937   5.845  72.466  1.00  0.00    -0.274 OA 
HETATM   28  O   UNL     1      -9.441   5.431  72.494  1.00  0.00    -0.145 OA 
HETATM   29  O   UNL     1     -10.618   6.379  74.438  1.00  0.00    -0.226 OA 
ENDBRANCH  19  25
ENDBRANCH   5   6
TORSDOF 2
ENDMDL
MODEL       45
REMARK 921   NORMALIZED FREE ENERGY PREDICTED BY IDOCK:   -5.05 KCAL/MOL
REMARK 922        TOTAL FREE ENERGY PREDICTED BY IDOCK:   -5.98 KCAL/MOL
REMARK 923 INTER-LIGAND FREE ENERGY PREDICTED BY IDOCK:   -5.79 KCAL/MOL
REMARK 924 INTRA-LIGAND FREE ENERGY PREDICTED BY IDOCK:   -0.19 KCAL/MOL
REMARK 927      BINDING AFFINITY PREDICTED BY RF-SCORE:    0.00 PKD
ROOT
HETATM    1  O   UNL     1      -5.273   5.741  66.813  1.00  0.00    -0.005 OA 
HETATM    2  S   UNL     1      -6.470   6.724  66.365  1.00  0.00    -0.048 S  
HETATM    3  O   UNL     1      -7.646   5.881  66.324  1.00  0.00    -0.090 OA 
HETATM    4  O   UNL     1      -6.004   7.408  65.179  1.00  0.00    -0.037 OA 
HETATM    5  O   UNL     1      -6.584   7.775  67.605  1.00  0.00    -0.059 OA 
ENDROOT
BRANCH   5   6
HETATM    6  C   UNL     1      -7.428   8.854  67.534  1.00  0.00    -0.085 A  
HETATM    7  C   UNL     1      -8.588   8.984  68.292  1.00  0.00    -0.130 A  
HETATM    8  C   UNL     1      -9.388  10.123  68.168  1.00  0.00    -0.140 A  
HETATM    9  C   UNL     1      -9.041  11.165  67.292  1.00  0.00    -0.152 A  
HETATM   10  C   UNL     1      -9.950  12.400  67.201  1.00  0.00    -0.211 C  
HETATM   11  C   UNL     1      -7.868  11.013  66.533  1.00  0.00    -0.155 A  
HETATM   12  C   UNL     1     -10.702  12.528  65.870  1.00  0.00    -0.264 A  
HETATM   13  C   UNL     1      -7.057   9.880  66.669  1.00  0.00    -0.087 A  
HETATM   14  C   UNL     1      -9.308  13.707  67.683  1.00  0.00    -0.215 A  
HETATM   15  C   UNL     1     -12.101  12.497  65.867  1.00  0.00    -0.420 A  
HETATM   16  C   UNL     1      -8.231  14.296  67.006  1.00  0.00    -0.116 A  
HETATM   17  C   UNL     1     -12.785  12.602  64.658  1.00  0.00    -0.458 A  
HETATM   18  C   UNL     1      -7.650  15.483  67.458  1.00  0.00    -0.201 A  
HETATM   19  C   UNL     1      -8.178  16.139  68.565  1.00  0.00    -0.186 A  
HETATM   20  C   UNL     1     -12.066  12.739  63.481  1.00  0.00    -0.642 A  
HETATM   21  C   UNL     1      -9.244  15.567  69.259  1.00  0.00    -0.268 A  
HETATM   22  N   UNL     1      -9.991  12.673  64.720  1.00  0.00    -0.192 NA 
HETATM   23  C   UNL     1     -10.683  12.772  63.563  1.00  0.00    -0.190 A  
HETATM   24  C   UNL     1      -9.803  14.361  68.825  1.00  0.00    -0.214 A  
BRANCH  19  25
HETATM   25  O   UNL     1      -7.726  17.343  69.039  1.00  0.00    -0.238 OA 
HETATM   26  S   UNL     1      -7.952  18.727  68.206  1.00  0.00    -0.328 S  
HETATM   27  O   UNL     1      -6.848  18.886  67.284  1.00  0.00    -0.205 OA 
HETATM   28  O   UNL     1      -9.329  18.830  67.774  1.00  0.00    -0.286 OA 
HETATM   29  O   UNL     1      -7.723  19.848  69.338  1.00  0.00    -0.169 OA 
ENDBRANCH  19  25
ENDBRANCH   5   6
TORSDOF 2
ENDMDL
MODEL       46
REMARK 921   NORMALIZED FREE ENERGY PREDICTED BY IDOCK:   -5.01 KCAL/MOL
REMARK 922        TOTAL FREE ENERGY PREDICTED BY IDOCK:   -5.93 KCAL/MOL
REMARK 923 INTER-LIGAND FREE ENERGY PREDICTED BY IDOCK:   -5.82 KCAL/MOL
REMARK 924 INTRA-LIGAND FREE ENERGY PREDICTED BY IDOCK:   -0.11 KCAL/MOL
REMARK 927      BINDING AFFINITY PREDICTED BY RF-SCORE:    0.00 PKD
ROOT
HETATM    1  O   UNL     1     -10.952   5.767  73.141  1.00  0.00    -0.258 OA 
HETATM    2  S   UNL     1     -10.935   7.007  72.111  1.00  0.00    -0.243 S  
HETATM    3  O   UNL     1     -10.151   8.028  72.773  1.00  0.00    -0.266 OA 
HETATM    4  O   UNL     1     -12.315   7.246  71.751  1.00  0.00    -0.313 OA 
HETATM    5  O   UNL     1     -10.118   6.424  70.827  1.00  0.00    -0.184 OA 
ENDROOT
BRANCH   5   6
HETATM    6  C   UNL     1     -10.000   7.163  69.678  1.00  0.00    -0.174 A  
HETATM    7  C   UNL     1     -10.849   7.037  68.582  1.00  0.00    -0.191 A  
HETATM    8  C   UNL     1     -10.666   7.840  67.452  1.00  0.00    -0.300 A  
HETATM    9  C   UNL     1      -9.639   8.795  67.396  1.00  0.00    -0.206 A  
HETATM   10  C   UNL     1      -9.487   9.658  66.134  1.00  0.00    -0.274 C  
HETATM   11  C   UNL     1      -8.790   8.904  68.511  1.00  0.00    -0.134 A  
HETATM   12  C   UNL     1      -8.234   9.346  65.307  1.00  0.00    -0.132 A  
HETATM   13  C   UNL     1      -8.982   8.114  69.649  1.00  0.00    -0.154 A  
HETATM   14  C   UNL     1      -9.738  11.156  66.346  1.00  0.00    -0.235 A  
HETATM   15  C   UNL     1      -8.374   8.881  63.995  1.00  0.00    -0.168 A  
HETATM   16  C   UNL     1      -8.889  11.944  67.136  1.00  0.00    -0.180 A  
HETATM   17  C   UNL     1      -7.237   8.587  63.247  1.00  0.00    -0.092 A  
HETATM   18  C   UNL     1      -9.131  13.305  67.328  1.00  0.00    -0.221 A  
HETATM   19  C   UNL     1     -10.196  13.922  66.680  1.00  0.00    -0.276 A  
HETATM   20  C   UNL     1      -5.985   8.764  63.818  1.00  0.00    -0.072 A  
HETATM   21  C   UNL     1     -11.059  13.156  65.896  1.00  0.00    -0.298 A  
HETATM   22  N   UNL     1      -7.009   9.533  65.869  1.00  0.00    -0.089 NA 
HETATM   23  C   UNL     1      -5.923   9.238  65.118  1.00  0.00    -0.060 A  
HETATM   24  C   UNL     1     -10.835  11.786  65.732  1.00  0.00    -0.341 A  
BRANCH  19  25
HETATM   25  O   UNL     1     -10.470  15.263  66.746  1.00  0.00    -0.281 OA 
HETATM   26  S   UNL     1     -10.934  15.972  68.140  1.00  0.00    -0.337 S  
HETATM   27  O   UNL     1     -12.374  15.861  68.247  1.00  0.00     0.257 OA 
HETATM   28  O   UNL     1     -10.055  15.576  69.217  1.00  0.00    -0.222 OA 
HETATM   29  O   UNL     1     -10.651  17.529  67.841  1.00  0.00    -0.378 OA 
ENDBRANCH  19  25
ENDBRANCH   5   6
TORSDOF 2
ENDMDL
MODEL       47
REMARK 921   NORMALIZED FREE ENERGY PREDICTED BY IDOCK:   -4.96 KCAL/MOL
REMARK 922        TOTAL FREE ENERGY PREDICTED BY IDOCK:   -5.88 KCAL/MOL
REMARK 923 INTER-LIGAND FREE ENERGY PREDICTED BY IDOCK:   -5.81 KCAL/MOL
REMARK 924 INTRA-LIGAND FREE ENERGY PREDICTED BY IDOCK:   -0.06 KCAL/MOL
REMARK 927      BINDING AFFINITY PREDICTED BY RF-SCORE:    0.00 PKD
ROOT
HETATM    1  O   UNL     1      -9.724   3.437  71.580  1.00  0.00    -0.154 OA 
HETATM    2  S   UNL     1      -9.718   4.958  71.045  1.00  0.00    -0.197 S  
HETATM    3  O   UNL     1      -8.493   5.528  71.566  1.00  0.00    -0.124 OA 
HETATM    4  O   UNL     1     -11.005   5.512  71.399  1.00  0.00    -0.224 OA 
HETATM    5  O   UNL     1      -9.609   4.792  69.428  1.00  0.00    -0.145 OA 
ENDROOT
BRANCH   5   6
HETATM    6  C   UNL     1      -9.697   5.885  68.604  1.00  0.00    -0.127 A  
HETATM    7  C   UNL     1     -10.783   6.146  67.772  1.00  0.00    -0.382 A  
HETATM    8  C   UNL     1     -10.798   7.292  66.972  1.00  0.00    -0.350 A  
HETATM    9  C   UNL     1      -9.735   8.209  66.993  1.00  0.00    -0.275 A  
HETATM   10  C   UNL     1      -9.807   9.458  66.100  1.00  0.00    -0.356 C  
HETATM   11  C   UNL     1      -8.647   7.925  67.835  1.00  0.00    -0.125 A  
HETATM   12  C   UNL     1      -8.807   9.455  64.937  1.00  0.00    -0.202 A  
HETATM   13  C   UNL     1      -8.638   6.788  68.650  1.00  0.00    -0.122 A  
HETATM   14  C   UNL     1      -9.876  10.787  66.860  1.00  0.00    -0.224 A  
HETATM   15  C   UNL     1      -9.284   9.476  63.621  1.00  0.00    -0.060 A  
HETATM   16  C   UNL     1      -8.805  11.253  67.637  1.00  0.00    -0.138 A  
HETATM   17  C   UNL     1      -8.377   9.462  62.564  1.00  0.00    -0.179 A  
HETATM   18  C   UNL     1      -8.883  12.462  68.331  1.00  0.00    -0.129 A  
HETATM   19  C   UNL     1     -10.013  13.264  68.211  1.00  0.00    -0.236 A  
HETATM   20  C   UNL     1      -7.018   9.432  62.837  1.00  0.00    -0.096 A  
HETATM   21  C   UNL     1     -11.093  12.817  67.450  1.00  0.00    -0.312 A  
HETATM   22  N   UNL     1      -7.475   9.437  65.211  1.00  0.00    -0.098 NA 
HETATM   23  C   UNL     1      -6.619   9.424  64.163  1.00  0.00    -0.095 A  
HETATM   24  C   UNL     1     -11.028  11.590  66.783  1.00  0.00    -0.347 A  
BRANCH  19  25
HETATM   25  O   UNL     1     -10.152  14.497  68.790  1.00  0.00    -0.233 OA 
HETATM   26  S   UNL     1     -11.509  14.914  69.594  1.00  0.00    -0.312 S  
HETATM   27  O   UNL     1     -12.451  15.462  68.640  1.00  0.00     0.065 OA 
HETATM   28  O   UNL     1     -11.881  13.868  70.521  1.00  0.00    -0.302 OA 
HETATM   29  O   UNL     1     -11.014  16.173  70.469  1.00  0.00    -0.331 OA 
ENDBRANCH  19  25
ENDBRANCH   5   6
TORSDOF 2
ENDMDL
MODEL       48
REMARK 921   NORMALIZED FREE ENERGY PREDICTED BY IDOCK:   -4.89 KCAL/MOL
REMARK 922        TOTAL FREE ENERGY PREDICTED BY IDOCK:   -5.81 KCAL/MOL
REMARK 923 INTER-LIGAND FREE ENERGY PREDICTED BY IDOCK:   -5.52 KCAL/MOL
REMARK 924 INTRA-LIGAND FREE ENERGY PREDICTED BY IDOCK:   -0.29 KCAL/MOL
REMARK 927      BINDING AFFINITY PREDICTED BY RF-SCORE:    0.00 PKD
ROOT
HETATM    1  O   UNL     1      -5.481  17.218  70.146  1.00  0.00    -0.211 OA 
HETATM    2  S   UNL     1      -6.228  16.465  68.931  1.00  0.00    -0.154 S  
HETATM    3  O   UNL     1      -5.356  16.649  67.790  1.00  0.00    -0.110 OA 
HETATM    4  O   UNL     1      -7.583  16.971  68.920  1.00  0.00    -0.236 OA 
HETATM    5  O   UNL     1      -6.221  14.902  69.390  1.00  0.00    -0.102 OA 
ENDROOT
BRANCH   5   6
HETATM    6  C   UNL     1      -6.885  13.954  68.655  1.00  0.00    -0.101 A  
HETATM    7  C   UNL     1      -6.319  13.260  67.589  1.00  0.00    -0.161 A  
HETATM    8  C   UNL     1      -7.062  12.298  66.899  1.00  0.00     0.047 A  
HETATM    9  C   UNL     1      -8.384  11.998  67.266  1.00  0.00    -0.176 A  
HETATM   10  C   UNL     1      -9.154  10.925  66.480  1.00  0.00    -0.183 C  
HETATM   11  C   UNL     1      -8.939  12.712  68.342  1.00  0.00    -0.125 A  
HETATM   12  C   UNL     1     -10.301  11.476  65.625  1.00  0.00    -0.261 A  
HETATM   13  C   UNL     1      -8.190  13.663  69.044  1.00  0.00     0.243 A  
HETATM   14  C   UNL     1      -9.524   9.678  67.291  1.00  0.00    -0.175 A  
HETATM   15  C   UNL     1     -10.260  11.315  64.235  1.00  0.00    -0.383 A  
HETATM   16  C   UNL     1     -10.437   9.730  68.354  1.00  0.00    -0.250 A  
HETATM   17  C   UNL     1     -11.295  11.825  63.456  1.00  0.00    -0.496 A  
HETATM   18  C   UNL     1     -10.761   8.589  69.090  1.00  0.00    -0.128 A  
HETATM   19  C   UNL     1     -10.225   7.355  68.736  1.00  0.00    -0.191 A  
HETATM   20  C   UNL     1     -12.350  12.481  64.073  1.00  0.00    -0.557 A  
HETATM   21  C   UNL     1      -9.309   7.281  67.687  1.00  0.00    -0.139 A  
HETATM   22  N   UNL     1     -11.337  12.109  66.237  1.00  0.00    -0.342 NA 
HETATM   23  C   UNL     1     -12.328  12.594  65.454  1.00  0.00    -0.436 A  
HETATM   24  C   UNL     1      -8.959   8.430  66.972  1.00  0.00    -0.161 A  
BRANCH  19  25
HETATM   25  O   UNL     1     -10.539   6.170  69.348  1.00  0.00    -0.223 OA 
HETATM   26  S   UNL     1      -9.453   5.366  70.261  1.00  0.00    -0.172 S  
HETATM   27  O   UNL     1      -8.683   4.501  69.393  1.00  0.00    -0.083 OA 
HETATM   28  O   UNL     1      -8.819   6.272  71.194  1.00  0.00    -0.140 OA 
HETATM   29  O   UNL     1     -10.392   4.379  71.118  1.00  0.00    -0.109 OA 
ENDBRANCH  19  25
ENDBRANCH   5   6
TORSDOF 2
ENDMDL
MODEL       49
REMARK 921   NORMALIZED FREE ENERGY PREDICTED BY IDOCK:   -4.86 KCAL/MOL
REMARK 922        TOTAL FREE ENERGY PREDICTED BY IDOCK:   -5.76 KCAL/MOL
REMARK 923 INTER-LIGAND FREE ENERGY PREDICTED BY IDOCK:   -5.93 KCAL/MOL
REMARK 924 INTRA-LIGAND FREE ENERGY PREDICTED BY IDOCK:    0.16 KCAL/MOL
REMARK 927      BINDING AFFINITY PREDICTED BY RF-SCORE:    0.00 PKD
ROOT
HETATM    1  O   UNL     1      -9.052   6.406  72.705  1.00  0.00    -0.136 OA 
HETATM    2  S   UNL     1      -9.792   6.936  71.374  1.00  0.00    -0.177 S  
HETATM    3  O   UNL     1     -11.138   7.256  71.802  1.00  0.00    -0.230 OA 
HETATM    4  O   UNL     1      -9.553   5.936  70.357  1.00  0.00    -0.162 OA 
HETATM    5  O   UNL     1      -8.985   8.304  71.010  1.00  0.00    -0.139 OA 
ENDROOT
BRANCH   5   6
HETATM    6  C   UNL     1      -9.254   8.989  69.853  1.00  0.00    -0.173 A  
HETATM    7  C   UNL     1     -10.481   8.952  69.194  1.00  0.00    -0.236 A  
HETATM    8  C   UNL     1     -10.676   9.692  68.024  1.00  0.00    -0.284 A  
HETATM    9  C   UNL     1      -9.654  10.494  67.491  1.00  0.00    -0.181 A  
HETATM   10  C   UNL     1      -9.924  11.294  66.207  1.00  0.00    -0.260 C  
HETATM   11  C   UNL     1      -8.423  10.514  68.168  1.00  0.00    -0.123 A  
HETATM   12  C   UNL     1      -9.154  10.790  64.981  1.00  0.00    -0.203 A  
HETATM   13  C   UNL     1      -8.231   9.788  69.348  1.00  0.00    -0.135 A  
HETATM   14  C   UNL     1      -9.893  12.817  66.382  1.00  0.00    -0.269 A  
HETATM   15  C   UNL     1      -9.863  10.314  63.872  1.00  0.00    -0.251 A  
HETATM   16  C   UNL     1      -8.712  13.501  66.706  1.00  0.00    -0.100 A  
HETATM   17  C   UNL     1      -9.165   9.846  62.762  1.00  0.00    -0.292 A  
HETATM   18  C   UNL     1      -8.697  14.887  66.870  1.00  0.00    -0.276 A  
HETATM   19  C   UNL     1      -9.853  15.628  66.648  1.00  0.00    -0.244 A  
HETATM   20  C   UNL     1      -7.779   9.864  62.776  1.00  0.00    -0.131 A  
HETATM   21  C   UNL     1     -11.041  14.968  66.332  1.00  0.00    -0.329 A  
HETATM   22  N   UNL     1      -7.794  10.820  64.996  1.00  0.00     0.028 NA 
HETATM   23  C   UNL     1      -7.144  10.359  63.903  1.00  0.00     0.022 A  
HETATM   24  C   UNL     1     -11.063  13.576  66.202  1.00  0.00    -0.299 A  
BRANCH  19  25
HETATM   25  O   UNL     1      -9.920  16.995  66.709  1.00  0.00    -0.272 OA 
HETATM   26  S   UNL     1      -9.470  17.812  68.048  1.00  0.00    -0.291 S  
HETATM   27  O   UNL     1     -10.615  17.902  68.930  1.00  0.00    -0.242 OA 
HETATM   28  O   UNL     1      -8.184  17.342  68.510  1.00  0.00    -0.250 OA 
HETATM   29  O   UNL     1      -9.256  19.304  67.480  1.00  0.00    -0.292 OA 
ENDBRANCH  19  25
ENDBRANCH   5   6
TORSDOF 2
ENDMDL
MODEL       50
REMARK 921   NORMALIZED FREE ENERGY PREDICTED BY IDOCK:   -4.57 KCAL/MOL
REMARK 922        TOTAL FREE ENERGY PREDICTED BY IDOCK:   -5.44 KCAL/MOL
REMARK 923 INTER-LIGAND FREE ENERGY PREDICTED BY IDOCK:   -5.46 KCAL/MOL
REMARK 924 INTRA-LIGAND FREE ENERGY PREDICTED BY IDOCK:    0.02 KCAL/MOL
REMARK 927      BINDING AFFINITY PREDICTED BY RF-SCORE:    0.00 PKD
ROOT
HETATM    1  O   UNL     1      -9.099  18.399  67.828  1.00  0.00    -0.271 OA 
HETATM    2  S   UNL     1      -9.032  16.990  67.048  1.00  0.00    -0.229 S  
HETATM    3  O   UNL     1      -8.328  17.281  65.816  1.00  0.00    -0.535 OA 
HETATM    4  O   UNL     1     -10.385  16.479  67.028  1.00  0.00    -0.295 OA 
HETATM    5  O   UNL     1      -8.102  16.064  68.014  1.00  0.00    -0.142 OA 
ENDROOT
BRANCH   5   6
HETATM    6  C   UNL     1      -7.912  14.734  67.738  1.00  0.00    -0.157 A  
HETATM    7  C   UNL     1      -6.661  14.128  67.655  1.00  0.00    -0.188 A  
HETATM    8  C   UNL     1      -6.556  12.762  67.381  1.00  0.00    -0.140 A  
HETATM    9  C   UNL     1      -7.698  11.966  67.195  1.00  0.00    -0.163 A  
HETATM   10  C   UNL     1      -7.527  10.467  66.906  1.00  0.00    -0.110 C  
HETATM   11  C   UNL     1      -8.951  12.597  67.278  1.00  0.00    -0.194 A  
HETATM   12  C   UNL     1      -7.916  10.055  65.481  1.00  0.00    -0.139 A  
HETATM   13  C   UNL     1      -9.059  13.962  67.569  1.00  0.00    -0.201 A  
HETATM   14  C   UNL     1      -8.073   9.536  67.995  1.00  0.00    -0.102 A  
HETATM   15  C   UNL     1      -6.945   9.506  64.635  1.00  0.00    -0.102 A  
HETATM   16  C   UNL     1      -9.444   9.451  68.277  1.00  0.00    -0.147 A  
HETATM   17  C   UNL     1      -7.293   9.142  63.337  1.00  0.00    -0.096 A  
HETATM   18  C   UNL     1      -9.930   8.606  69.276  1.00  0.00    -0.195 A  
HETATM   19  C   UNL     1      -9.056   7.778  69.974  1.00  0.00    -0.150 A  
HETATM   20  C   UNL     1      -8.599   9.327  62.908  1.00  0.00    -0.220 A  
HETATM   21  C   UNL     1      -7.687   7.851  69.716  1.00  0.00    -0.099 A  
HETATM   22  N   UNL     1      -9.200  10.229  65.069  1.00  0.00    -0.193 NA 
HETATM   23  C   UNL     1      -9.508   9.866  63.803  1.00  0.00    -0.120 A  
HETATM   24  C   UNL     1      -7.199   8.724  68.738  1.00  0.00    -0.075 A  
BRANCH  19  25
HETATM   25  O   UNL     1      -9.444   6.862  70.916  1.00  0.00    -0.158 OA 
HETATM   26  S   UNL     1     -10.647   5.799  70.629  1.00  0.00    -0.278 S  
HETATM   27  O   UNL     1     -11.901   6.425  70.991  1.00  0.00    -0.343 OA 
HETATM   28  O   UNL     1     -10.453   5.161  69.346  1.00  0.00    -0.230 OA 
HETATM   29  O   UNL     1     -10.392   4.681  71.760  1.00  0.00    -0.195 OA 
ENDBRANCH  19  25
ENDBRANCH   5   6
TORSDOF 2
ENDMDL
MODEL       51
REMARK 921   NORMALIZED FREE ENERGY PREDICTED BY IDOCK:   -4.56 KCAL/MOL
REMARK 922        TOTAL FREE ENERGY PREDICTED BY IDOCK:   -5.43 KCAL/MOL
REMARK 923 INTER-LIGAND FREE ENERGY PREDICTED BY IDOCK:   -5.12 KCAL/MOL
REMARK 924 INTRA-LIGAND FREE ENERGY PREDICTED BY IDOCK:   -0.31 KCAL/MOL
REMARK 927      BINDING AFFINITY PREDICTED BY RF-SCORE:    0.00 PKD
ROOT
HETATM    1  O   UNL     1     -11.867  13.007  69.655  1.00  0.00    -0.305 OA 
HETATM    2  S   UNL     1     -11.365  11.531  69.244  1.00  0.00    -0.307 S  
HETATM    3  O   UNL     1     -10.021  11.725  68.741  1.00  0.00    -0.194 OA 
HETATM    4  O   UNL     1     -12.401  10.975  68.402  1.00  0.00    -0.528 OA 
HETATM    5  O   UNL     1     -11.317  10.736  70.666  1.00  0.00    -0.298 OA 
ENDROOT
BRANCH   5   6
HETATM    6  C   UNL     1     -11.043   9.393  70.708  1.00  0.00    -0.300 A  
HETATM    7  C   UNL     1     -12.017   8.399  70.662  1.00  0.00    -0.032 A  
HETATM    8  C   UNL     1     -11.651   7.051  70.698  1.00  0.00    -0.379 A  
HETATM    9  C   UNL     1     -10.303   6.664  70.769  1.00  0.00    -0.232 A  
HETATM   10  C   UNL     1      -9.955   5.167  70.797  1.00  0.00    -0.285 C  
HETATM   11  C   UNL     1      -9.336   7.681  70.820  1.00  0.00    -0.162 A  
HETATM   12  C   UNL     1      -9.398   4.678  72.139  1.00  0.00    -0.136 A  
HETATM   13  C   UNL     1      -9.699   9.032  70.767  1.00  0.00    -0.306 A  
HETATM   14  C   UNL     1      -9.172   4.668  69.577  1.00  0.00    -0.182 A  
HETATM   15  C   UNL     1     -10.098   3.703  72.859  1.00  0.00    -0.221 A  
HETATM   16  C   UNL     1      -7.862   5.094  69.313  1.00  0.00    -0.080 A  
HETATM   17  C   UNL     1      -9.600   3.266  74.083  1.00  0.00    -0.125 A  
HETATM   18  C   UNL     1      -7.161   4.638  68.195  1.00  0.00    -0.065 A  
HETATM   19  C   UNL     1      -7.735   3.694  67.349  1.00  0.00    -0.078 A  
HETATM   20  C   UNL     1      -8.415   3.803  74.564  1.00  0.00    -0.088 A  
HETATM   21  C   UNL     1      -9.040   3.262  67.588  1.00  0.00    -0.210 A  
HETATM   22  N   UNL     1      -8.230   5.200  72.600  1.00  0.00    -0.112 NA 
HETATM   23  C   UNL     1      -7.771   4.756  73.792  1.00  0.00    -0.094 A  
HETATM   24  C   UNL     1      -9.754   3.745  68.689  1.00  0.00    -0.089 A  
BRANCH  19  25
HETATM   25  O   UNL     1      -7.101   3.132  66.273  1.00  0.00    -0.056 OA 
HETATM   26  S   UNL     1      -7.471   3.562  64.744  1.00  0.00    -0.073 S  
HETATM   27  O   UNL     1      -8.571   2.734  64.293  1.00  0.00    -0.089 OA 
HETATM   28  O   UNL     1      -7.501   5.003  64.625  1.00  0.00    -0.071 OA 
HETATM   29  O   UNL     1      -6.187   3.042  63.923  1.00  0.00    -0.017 OA 
ENDBRANCH  19  25
ENDBRANCH   5   6
TORSDOF 2
ENDMDL
MODEL       52
REMARK 921   NORMALIZED FREE ENERGY PREDICTED BY IDOCK:   -4.31 KCAL/MOL
REMARK 922        TOTAL FREE ENERGY PREDICTED BY IDOCK:   -5.15 KCAL/MOL
REMARK 923 INTER-LIGAND FREE ENERGY PREDICTED BY IDOCK:   -5.55 KCAL/MOL
REMARK 924 INTRA-LIGAND FREE ENERGY PREDICTED BY IDOCK:    0.40 KCAL/MOL
REMARK 927      BINDING AFFINITY PREDICTED BY RF-SCORE:    0.00 PKD
ROOT
HETATM    1  O   UNL     1     -11.881  13.934  63.811  1.00  0.00    -0.337 OA 
HETATM    2  S   UNL     1     -11.755  12.408  64.317  1.00  0.00    -0.412 S  
HETATM    3  O   UNL     1     -12.426  11.626  63.300  1.00  0.00    -0.471 OA 
HETATM    4  O   UNL     1     -12.219  12.401  65.686  1.00  0.00    -0.599 OA 
HETATM    5  O   UNL     1     -10.152  12.123  64.271  1.00  0.00    -0.301 OA 
ENDROOT
BRANCH   5   6
HETATM    6  C   UNL     1      -9.636  10.947  64.751  1.00  0.00    -0.252 A  
HETATM    7  C   UNL     1      -8.337  10.511  64.507  1.00  0.00    -0.108 A  
HETATM    8  C   UNL     1      -7.885   9.302  65.047  1.00  0.00    -0.111 A  
HETATM    9  C   UNL     1      -8.717   8.508  65.852  1.00  0.00    -0.203 A  
HETATM   10  C   UNL     1      -8.168   7.194  66.427  1.00  0.00    -0.120 C  
HETATM   11  C   UNL     1     -10.026   8.963  66.082  1.00  0.00    -0.290 A  
HETATM   12  C   UNL     1      -8.796   5.933  65.821  1.00  0.00    -0.139 A  
HETATM   13  C   UNL     1     -10.474  10.181  65.558  1.00  0.00    -0.076 A  
HETATM   14  C   UNL     1      -8.053   7.160  67.955  1.00  0.00    -0.120 A  
HETATM   15  C   UNL     1      -7.986   5.028  65.125  1.00  0.00    -0.103 A  
HETATM   16  C   UNL     1      -9.184   7.194  68.784  1.00  0.00    -0.136 A  
HETATM   17  C   UNL     1      -8.557   3.888  64.564  1.00  0.00    -0.107 A  
HETATM   18  C   UNL     1      -9.068   7.170  70.175  1.00  0.00    -0.152 A  
HETATM   19  C   UNL     1      -7.815   7.048  70.767  1.00  0.00    -0.096 A  
HETATM   20  C   UNL     1      -9.919   3.670  64.710  1.00  0.00    -0.160 A  
HETATM   21  C   UNL     1      -6.675   7.021  69.963  1.00  0.00    -0.055 A  
HETATM   22  N   UNL     1     -10.131   5.719  65.976  1.00  0.00     0.007 NA 
HETATM   23  C   UNL     1     -10.656   4.604  65.420  1.00  0.00    -0.133 A  
HETATM   24  C   UNL     1      -6.792   7.079  68.571  1.00  0.00    -0.073 A  
BRANCH  19  25
HETATM   25  O   UNL     1      -7.604   6.941  72.116  1.00  0.00    -0.091 OA 
HETATM   26  S   UNL     1      -7.951   8.168  73.135  1.00  0.00    -0.151 S  
HETATM   27  O   UNL     1      -6.795   9.036  73.210  1.00  0.00    -0.334 OA 
HETATM   28  O   UNL     1      -9.276   8.682  72.862  1.00  0.00    -0.280 OA 
HETATM   29  O   UNL     1      -8.013   7.421  74.560  1.00  0.00    -0.147 OA 
ENDBRANCH  19  25
ENDBRANCH   5   6
TORSDOF 2
ENDMDL
MODEL       53
REMARK 921   NORMALIZED FREE ENERGY PREDICTED BY IDOCK:   -4.13 KCAL/MOL
REMARK 922        TOTAL FREE ENERGY PREDICTED BY IDOCK:   -4.96 KCAL/MOL
REMARK 923 INTER-LIGAND FREE ENERGY PREDICTED BY IDOCK:   -4.88 KCAL/MOL
REMARK 924 INTRA-LIGAND FREE ENERGY PREDICTED BY IDOCK:   -0.07 KCAL/MOL
REMARK 927      BINDING AFFINITY PREDICTED BY RF-SCORE:    0.00 PKD
ROOT
HETATM    1  O   UNL     1      -8.592   6.827  65.436  1.00  0.00    -0.132 OA 
HETATM    2  S   UNL     1      -8.119   8.005  66.431  1.00  0.00    -0.111 S  
HETATM    3  O   UNL     1      -6.713   8.191  66.142  1.00  0.00    -0.052 OA 
HETATM    4  O   UNL     1      -8.562   7.615  67.752  1.00  0.00    -0.121 OA 
HETATM    5  O   UNL     1      -8.968   9.298  65.920  1.00  0.00    -0.159 OA 
ENDROOT
BRANCH   5   6
HETATM    6  C   UNL     1      -8.922  10.483  66.609  1.00  0.00    -0.141 A  
HETATM    7  C   UNL     1      -8.253  10.654  67.817  1.00  0.00    -0.111 A  
HETATM    8  C   UNL     1      -8.245  11.901  68.449  1.00  0.00    -0.160 A  
HETATM    9  C   UNL     1      -8.896  13.009  67.882  1.00  0.00    -0.193 A  
HETATM   10  C   UNL     1      -8.849  14.359  68.613  1.00  0.00    -0.167 C  
HETATM   11  C   UNL     1      -9.570  12.814  66.664  1.00  0.00    -0.255 A  
HETATM   12  C   UNL     1     -10.196  14.803  69.197  1.00  0.00    -0.220 A  
HETATM   13  C   UNL     1      -9.564  11.571  66.022  1.00  0.00    -0.251 A  
HETATM   14  C   UNL     1      -8.098  15.468  67.866  1.00  0.00    -0.147 A  
HETATM   15  C   UNL     1     -10.322  14.972  70.581  1.00  0.00     0.233 A  
HETATM   16  C   UNL     1      -8.571  15.999  66.658  1.00  0.00    -0.316 A  
HETATM   17  C   UNL     1     -11.547  15.364  71.114  1.00  0.00    -0.425 A  
HETATM   18  C   UNL     1      -7.874  17.003  65.983  1.00  0.00    -0.167 A  
HETATM   19  C   UNL     1      -6.719  17.543  66.537  1.00  0.00    -0.241 A  
HETATM   20  C   UNL     1     -12.619  15.584  70.262  1.00  0.00    -0.362 A  
HETATM   21  C   UNL     1      -6.225  17.025  67.735  1.00  0.00    -0.154 A  
HETATM   22  N   UNL     1     -11.240  15.027  68.356  1.00  0.00    -0.279 NA 
HETATM   23  C   UNL     1     -12.417  15.407  68.903  1.00  0.00     0.210 A  
HETATM   24  C   UNL     1      -6.905  15.995  68.392  1.00  0.00    -0.124 A  
BRANCH  19  25
HETATM   25  O   UNL     1      -6.008  18.579  65.990  1.00  0.00    -0.153 OA 
HETATM   26  S   UNL     1      -6.554  20.115  66.054  1.00  0.00    -0.248 S  
HETATM   27  O   UNL     1      -7.409  20.340  64.907  1.00  0.00    -0.198 OA 
HETATM   28  O   UNL     1      -6.979  20.438  67.398  1.00  0.00    -0.255 OA 
HETATM   29  O   UNL     1      -5.218  20.964  65.758  1.00  0.00    -0.184 OA 
ENDBRANCH  19  25
ENDBRANCH   5   6
TORSDOF 2
ENDMDL
MODEL       54
REMARK 921   NORMALIZED FREE ENERGY PREDICTED BY IDOCK:   -4.13 KCAL/MOL
REMARK 922        TOTAL FREE ENERGY PREDICTED BY IDOCK:   -4.95 KCAL/MOL
REMARK 923 INTER-LIGAND FREE ENERGY PREDICTED BY IDOCK:   -4.86 KCAL/MOL
REMARK 924 INTRA-LIGAND FREE ENERGY PREDICTED BY IDOCK:   -0.08 KCAL/MOL
REMARK 927      BINDING AFFINITY PREDICTED BY RF-SCORE:    0.00 PKD
ROOT
HETATM    1  O   UNL     1      -8.472  18.086  66.863  1.00  0.00    -0.234 OA 
HETATM    2  S   UNL     1      -7.706  16.788  67.435  1.00  0.00    -0.178 S  
HETATM    3  O   UNL     1      -7.525  17.057  68.846  1.00  0.00    -0.230 OA 
HETATM    4  O   UNL     1      -6.569  16.580  66.566  1.00  0.00    -0.250 OA 
HETATM    5  O   UNL     1      -8.789  15.588  67.232  1.00  0.00    -0.184 OA 
ENDROOT
BRANCH   5   6
HETATM    6  C   UNL     1      -8.449  14.286  67.498  1.00  0.00    -0.187 A  
HETATM    7  C   UNL     1      -7.187  13.884  67.930  1.00  0.00    -0.162 A  
HETATM    8  C   UNL     1      -6.927  12.536  68.191  1.00  0.00    -0.089 A  
HETATM    9  C   UNL     1      -7.925  11.559  68.037  1.00  0.00    -0.130 A  
HETATM   10  C   UNL     1      -7.588  10.092  68.346  1.00  0.00    -0.083 C  
HETATM   11  C   UNL     1      -9.189  11.984  67.597  1.00  0.00    -0.182 A  
HETATM   12  C   UNL     1      -7.549   9.184  67.111  1.00  0.00    -0.091 A  
HETATM   13  C   UNL     1      -9.456  13.335  67.351  1.00  0.00    -0.218 A  
HETATM   14  C   UNL     1      -8.352   9.495  69.535  1.00  0.00    -0.145 A  
HETATM   15  C   UNL     1      -6.353   8.544  66.767  1.00  0.00    -0.056 A  
HETATM   16  C   UNL     1      -9.740   9.299  69.500  1.00  0.00    -0.179 A  
HETATM   17  C   UNL     1      -6.312   7.728  65.639  1.00  0.00    -0.042 A  
HETATM   18  C   UNL     1     -10.425   8.761  70.591  1.00  0.00    -0.253 A  
HETATM   19  C   UNL     1      -9.725   8.349  71.720  1.00  0.00    -0.237 A  
HETATM   20  C   UNL     1      -7.461   7.563  64.880  1.00  0.00    -0.089 A  
HETATM   21  C   UNL     1      -8.344   8.542  71.780  1.00  0.00    -0.221 A  
HETATM   22  N   UNL     1      -8.682   9.017  66.377  1.00  0.00    -0.127 NA 
HETATM   23  C   UNL     1      -8.611   8.219  65.287  1.00  0.00    -0.132 A  
HETATM   24  C   UNL     1      -7.663   9.112  70.700  1.00  0.00    -0.152 A  
BRANCH  19  25
HETATM   25  O   UNL     1     -10.297   7.743  72.808  1.00  0.00    -0.258 OA 
HETATM   26  S   UNL     1     -10.825   6.201  72.745  1.00  0.00    -0.263 S  
HETATM   27  O   UNL     1     -12.191   6.208  72.265  1.00  0.00    -0.293 OA 
HETATM   28  O   UNL     1      -9.813   5.350  72.158  1.00  0.00    -0.163 OA 
HETATM   29  O   UNL     1     -10.928   5.812  74.305  1.00  0.00    -0.034 OA 
ENDBRANCH  19  25
ENDBRANCH   5   6
TORSDOF 2
ENDMDL
MODEL       55
REMARK 921   NORMALIZED FREE ENERGY PREDICTED BY IDOCK:   -4.12 KCAL/MOL
REMARK 922        TOTAL FREE ENERGY PREDICTED BY IDOCK:   -4.95 KCAL/MOL
REMARK 923 INTER-LIGAND FREE ENERGY PREDICTED BY IDOCK:   -5.25 KCAL/MOL
REMARK 924 INTRA-LIGAND FREE ENERGY PREDICTED BY IDOCK:    0.30 KCAL/MOL
REMARK 927      BINDING AFFINITY PREDICTED BY RF-SCORE:    0.00 PKD
ROOT
HETATM    1  O   UNL     1      -9.574   3.327  63.878  1.00  0.00    -0.121 OA 
HETATM    2  S   UNL     1      -8.768   4.536  64.577  1.00  0.00    -0.152 S  
HETATM    3  O   UNL     1      -8.642   5.542  63.543  1.00  0.00    -0.075 OA 
HETATM    4  O   UNL     1      -7.597   3.939  65.180  1.00  0.00    -0.079 OA 
HETATM    5  O   UNL     1      -9.789   5.054  65.735  1.00  0.00    -0.166 OA 
ENDROOT
BRANCH   5   6
HETATM    6  C   UNL     1      -9.399   6.014  66.634  1.00  0.00    -0.144 A  
HETATM    7  C   UNL     1      -8.075   6.386  66.849  1.00  0.00    -0.109 A  
HETATM    8  C   UNL     1      -7.764   7.384  67.777  1.00  0.00    -0.112 A  
HETATM    9  C   UNL     1      -8.770   8.042  68.503  1.00  0.00    -0.131 A  
HETATM   10  C   UNL     1      -8.374   9.138  69.504  1.00  0.00    -0.126 C  
HETATM   11  C   UNL     1     -10.099   7.649  68.276  1.00  0.00    -0.214 A  
HETATM   12  C   UNL     1      -8.594   8.755  70.973  1.00  0.00    -0.192 A  
HETATM   13  C   UNL     1     -10.414   6.662  67.335  1.00  0.00    -0.325 A  
HETATM   14  C   UNL     1      -8.869  10.544  69.145  1.00  0.00    -0.161 A  
HETATM   15  C   UNL     1      -7.495   8.694  71.839  1.00  0.00    -0.099 A  
HETATM   16  C   UNL     1     -10.233  10.869  69.139  1.00  0.00    -0.215 A  
HETATM   17  C   UNL     1      -7.692   8.336  73.170  1.00  0.00    -0.180 A  
HETATM   18  C   UNL     1     -10.673  12.151  68.804  1.00  0.00    -0.252 A  
HETATM   19  C   UNL     1      -9.751  13.155  68.528  1.00  0.00    -0.137 A  
HETATM   20  C   UNL     1      -8.974   8.049  73.613  1.00  0.00    -0.313 A  
HETATM   21  C   UNL     1      -8.389  12.852  68.520  1.00  0.00    -0.054 A  
HETATM   22  N   UNL     1      -9.855   8.486  71.404  1.00  0.00    -0.206 NA 
HETATM   23  C   UNL     1     -10.014   8.141  72.702  1.00  0.00    -0.301 A  
HETATM   24  C   UNL     1      -7.951  11.559  68.823  1.00  0.00    -0.107 A  
BRANCH  19  25
HETATM   25  O   UNL     1     -10.080  14.458  68.263  1.00  0.00    -0.226 OA 
HETATM   26  S   UNL     1      -9.749  15.654  69.321  1.00  0.00    -0.284 S  
HETATM   27  O   UNL     1     -10.856  15.757  70.249  1.00  0.00    -0.311 OA 
HETATM   28  O   UNL     1      -8.379  15.554  69.774  1.00  0.00    -0.197 OA 
HETATM   29  O   UNL     1      -9.850  16.967  68.395  1.00  0.00    -0.257 OA 
ENDBRANCH  19  25
ENDBRANCH   5   6
TORSDOF 2
ENDMDL
MODEL       56
REMARK 921   NORMALIZED FREE ENERGY PREDICTED BY IDOCK:   -4.00 KCAL/MOL
REMARK 922        TOTAL FREE ENERGY PREDICTED BY IDOCK:   -4.81 KCAL/MOL
REMARK 923 INTER-LIGAND FREE ENERGY PREDICTED BY IDOCK:   -5.21 KCAL/MOL
REMARK 924 INTRA-LIGAND FREE ENERGY PREDICTED BY IDOCK:    0.40 KCAL/MOL
REMARK 927      BINDING AFFINITY PREDICTED BY RF-SCORE:    0.00 PKD
ROOT
HETATM    1  O   UNL     1     -12.138  14.981  68.042  1.00  0.00    -0.230 OA 
HETATM    2  S   UNL     1     -11.498  13.526  67.772  1.00  0.00    -0.335 S  
HETATM    3  O   UNL     1     -10.122  13.789  67.408  1.00  0.00    -0.240 OA 
HETATM    4  O   UNL     1     -12.395  12.859  66.854  1.00  0.00    -0.384 OA 
HETATM    5  O   UNL     1     -11.560  12.806  69.232  1.00  0.00    -0.282 OA 
ENDROOT
BRANCH   5   6
HETATM    6  C   UNL     1     -11.207  11.489  69.379  1.00  0.00    -0.259 A  
HETATM    7  C   UNL     1     -12.068  10.501  69.849  1.00  0.00    -0.318 A  
HETATM    8  C   UNL     1     -11.631   9.178  69.957  1.00  0.00     0.036 A  
HETATM    9  C   UNL     1     -10.328   8.808  69.586  1.00  0.00    -0.213 A  
HETATM   10  C   UNL     1      -9.902   7.338  69.716  1.00  0.00    -0.177 C  
HETATM   11  C   UNL     1      -9.473   9.821  69.118  1.00  0.00    -0.191 A  
HETATM   12  C   UNL     1      -8.866   7.080  70.817  1.00  0.00    -0.149 A  
HETATM   13  C   UNL     1      -9.914  11.143  68.993  1.00  0.00    -0.155 A  
HETATM   14  C   UNL     1      -9.586   6.642  68.387  1.00  0.00    -0.123 A  
HETATM   15  C   UNL     1      -9.196   6.239  71.886  1.00  0.00    -0.147 A  
HETATM   16  C   UNL     1      -8.490   7.018  67.596  1.00  0.00    -0.123 A  
HETATM   17  C   UNL     1      -8.260   6.013  72.893  1.00  0.00    -0.117 A  
HETATM   18  C   UNL     1      -8.217   6.382  66.384  1.00  0.00    -0.115 A  
HETATM   19  C   UNL     1      -8.998   5.310  65.967  1.00  0.00    -0.144 A  
HETATM   20  C   UNL     1      -7.018   6.623  72.814  1.00  0.00    -0.076 A  
HETATM   21  C   UNL     1     -10.098   4.923  66.733  1.00  0.00    -0.269 A  
HETATM   22  N   UNL     1      -7.645   7.672  70.728  1.00  0.00    -0.079 NA 
HETATM   23  C   UNL     1      -6.758   7.434  71.721  1.00  0.00    -0.053 A  
HETATM   24  C   UNL     1     -10.392   5.584  67.931  1.00  0.00    -0.240 A  
BRANCH  19  25
HETATM   25  O   UNL     1      -8.765   4.575  64.834  1.00  0.00    -0.128 OA 
HETATM   26  S   UNL     1      -9.846   3.483  64.287  1.00  0.00    -0.190 S  
HETATM   27  O   UNL     1      -9.581   2.218  64.939  1.00  0.00    -0.094 OA 
HETATM   28  O   UNL     1     -11.170   4.065  64.257  1.00  0.00    -0.325 OA 
HETATM   29  O   UNL     1      -9.380   3.278  62.759  1.00  0.00    -0.091 OA 
ENDBRANCH  19  25
ENDBRANCH   5   6
TORSDOF 2
ENDMDL
MODEL       57
REMARK 921   NORMALIZED FREE ENERGY PREDICTED BY IDOCK:   -3.81 KCAL/MOL
REMARK 922        TOTAL FREE ENERGY PREDICTED BY IDOCK:   -4.59 KCAL/MOL
REMARK 923 INTER-LIGAND FREE ENERGY PREDICTED BY IDOCK:   -4.63 KCAL/MOL
REMARK 924 INTRA-LIGAND FREE ENERGY PREDICTED BY IDOCK:    0.04 KCAL/MOL
REMARK 927      BINDING AFFINITY PREDICTED BY RF-SCORE:    0.00 PKD
ROOT
HETATM    1  O   UNL     1     -10.470  13.636  64.694  1.00  0.00    -0.411 OA 
HETATM    2  S   UNL     1     -10.405  12.243  65.503  1.00  0.00    -0.273 S  
HETATM    3  O   UNL     1     -11.640  11.565  65.172  1.00  0.00    -0.122 OA 
HETATM    4  O   UNL     1     -10.091  12.590  66.871  1.00  0.00    -0.221 OA 
HETATM    5  O   UNL     1      -9.145  11.467  64.822  1.00  0.00    -0.102 OA 
ENDROOT
BRANCH   5   6
HETATM    6  C   UNL     1      -8.697  10.276  65.333  1.00  0.00    -0.169 A  
HETATM    7  C   UNL     1      -7.391  10.055  65.761  1.00  0.00    -0.117 A  
HETATM    8  C   UNL     1      -7.019   8.812  66.282  1.00  0.00    -0.081 A  
HETATM    9  C   UNL     1      -7.947   7.765  66.399  1.00  0.00    -0.099 A  
HETATM   10  C   UNL     1      -7.489   6.422  66.987  1.00  0.00    -0.084 C  
HETATM   11  C   UNL     1      -9.259   8.006  65.958  1.00  0.00    -0.179 A  
HETATM   12  C   UNL     1      -7.440   5.275  65.970  1.00  0.00    -0.082 A  
HETATM   13  C   UNL     1      -9.637   9.255  65.451  1.00  0.00    -0.237 A  
HETATM   14  C   UNL     1      -8.149   6.046  68.319  1.00  0.00    -0.110 A  
HETATM   15  C   UNL     1      -6.217   4.653  65.694  1.00  0.00    -0.031 A  
HETATM   16  C   UNL     1      -9.519   5.760  68.412  1.00  0.00    -0.137 A  
HETATM   17  C   UNL     1      -6.169   3.620  64.762  1.00  0.00    -0.024 A  
HETATM   18  C   UNL     1     -10.111   5.425  69.631  1.00  0.00    -0.319 A  
HETATM   19  C   UNL     1      -9.329   5.308  70.776  1.00  0.00    -0.159 A  
HETATM   20  C   UNL     1      -7.336   3.224  64.127  1.00  0.00    -0.063 A  
HETATM   21  C   UNL     1      -7.966   5.596  70.709  1.00  0.00    -0.112 A  
HETATM   22  N   UNL     1      -8.590   4.885  65.358  1.00  0.00    -0.133 NA 
HETATM   23  C   UNL     1      -8.512   3.879  64.458  1.00  0.00    -0.102 A  
HETATM   24  C   UNL     1      -7.381   5.964  69.494  1.00  0.00    -0.075 A  
BRANCH  19  25
HETATM   25  O   UNL     1      -9.803   4.913  72.000  1.00  0.00    -0.163 OA 
HETATM   26  S   UNL     1     -10.837   5.842  72.855  1.00  0.00    -0.272 S  
HETATM   27  O   UNL     1     -10.060   6.762  73.659  1.00  0.00    -0.231 OA 
HETATM   28  O   UNL     1     -11.919   6.294  72.008  1.00  0.00    -0.330 OA 
HETATM   29  O   UNL     1     -11.458   4.787  73.900  1.00  0.00    -0.187 OA 
ENDBRANCH  19  25
ENDBRANCH   5   6
TORSDOF 2
ENDMDL
MODEL       58
REMARK 921   NORMALIZED FREE ENERGY PREDICTED BY IDOCK:   -3.66 KCAL/MOL
REMARK 922        TOTAL FREE ENERGY PREDICTED BY IDOCK:   -4.43 KCAL/MOL
REMARK 923 INTER-LIGAND FREE ENERGY PREDICTED BY IDOCK:   -4.08 KCAL/MOL
REMARK 924 INTRA-LIGAND FREE ENERGY PREDICTED BY IDOCK:   -0.35 KCAL/MOL
REMARK 927      BINDING AFFINITY PREDICTED BY RF-SCORE:    0.00 PKD
ROOT
HETATM    1  O   UNL     1      -5.351  15.646  71.156  1.00  0.00    -0.123 OA 
HETATM    2  S   UNL     1      -5.912  15.101  69.746  1.00  0.00    -0.141 S  
HETATM    3  O   UNL     1      -5.164  15.831  68.743  1.00  0.00    -0.101 OA 
HETATM    4  O   UNL     1      -7.352  15.206  69.820  1.00  0.00    -0.200 OA 
HETATM    5  O   UNL     1      -5.467  13.534  69.740  1.00  0.00    -0.087 OA 
ENDROOT
BRANCH   5   6
HETATM    6  C   UNL     1      -5.877  12.693  68.737  1.00  0.00    -0.068 A  
HETATM    7  C   UNL     1      -5.138  12.439  67.585  1.00  0.00    -0.096 A  
HETATM    8  C   UNL     1      -5.623  11.557  66.615  1.00  0.00    -0.140 A  
HETATM    9  C   UNL     1      -6.854  10.900  66.779  1.00  0.00    -0.121 A  
HETATM   10  C   UNL     1      -7.337   9.934  65.687  1.00  0.00    -0.116 C  
HETATM   11  C   UNL     1      -7.587  11.173  67.946  1.00  0.00    -0.099 A  
HETATM   12  C   UNL     1      -8.553  10.435  64.899  1.00  0.00    -0.182 A  
HETATM   13  C   UNL     1      -7.094  12.043  68.926  1.00  0.00    -0.104 A  
HETATM   14  C   UNL     1      -7.440   8.468  66.126  1.00  0.00    -0.089 A  
HETATM   15  C   UNL     1      -8.436  10.656  63.521  1.00  0.00    -0.089 A  
HETATM   16  C   UNL     1      -8.372   8.046  67.085  1.00  0.00    -0.121 A  
HETATM   17  C   UNL     1      -9.535  11.122  62.806  1.00  0.00    -0.357 A  
HETATM   18  C   UNL     1      -8.452   6.710  67.483  1.00  0.00    -0.121 A  
HETATM   19  C   UNL     1      -7.640   5.754  66.881  1.00  0.00    -0.099 A  
HETATM   20  C   UNL     1     -10.729  11.356  63.473  1.00  0.00    -0.453 A  
HETATM   21  C   UNL     1      -6.700   6.152  65.930  1.00  0.00    -0.048 A  
HETATM   22  N   UNL     1      -9.723  10.652  65.556  1.00  0.00    -0.220 NA 
HETATM   23  C   UNL     1     -10.774  11.105  64.835  1.00  0.00    -0.248 A  
HETATM   24  C   UNL     1      -6.598   7.496  65.558  1.00  0.00    -0.045 A  
BRANCH  19  25
HETATM   25  O   UNL     1      -7.697   4.412  67.148  1.00  0.00    -0.087 OA 
HETATM   26  S   UNL     1      -9.044   3.539  66.855  1.00  0.00    -0.178 S  
HETATM   27  O   UNL     1      -9.898   3.619  68.021  1.00  0.00    -0.091 OA 
HETATM   28  O   UNL     1      -9.538   3.818  65.525  1.00  0.00    -0.168 OA 
HETATM   29  O   UNL     1      -8.478   2.031  66.847  1.00  0.00    -0.086 OA 
ENDBRANCH  19  25
ENDBRANCH   5   6
TORSDOF 2
ENDMDL
MODEL       59
REMARK 921   NORMALIZED FREE ENERGY PREDICTED BY IDOCK:   -3.63 KCAL/MOL
REMARK 922        TOTAL FREE ENERGY PREDICTED BY IDOCK:   -4.40 KCAL/MOL
REMARK 923 INTER-LIGAND FREE ENERGY PREDICTED BY IDOCK:   -4.19 KCAL/MOL
REMARK 924 INTRA-LIGAND FREE ENERGY PREDICTED BY IDOCK:   -0.21 KCAL/MOL
REMARK 927      BINDING AFFINITY PREDICTED BY RF-SCORE:    0.00 PKD
ROOT
HETATM    1  O   UNL     1      -5.617  20.941  65.635  1.00  0.00    -0.206 OA 
HETATM    2  S   UNL     1      -6.930  20.244  66.259  1.00  0.00    -0.250 S  
HETATM    3  O   UNL     1      -8.039  20.829  65.535  1.00  0.00     0.395 OA 
HETATM    4  O   UNL     1      -6.818  20.392  67.693  1.00  0.00    -0.258 OA 
HETATM    5  O   UNL     1      -6.761  18.677  65.847  1.00  0.00    -0.227 OA 
ENDROOT
BRANCH   5   6
HETATM    6  C   UNL     1      -7.640  17.732  66.311  1.00  0.00    -0.287 A  
HETATM    7  C   UNL     1      -8.868  17.455  65.717  1.00  0.00     0.224 A  
HETATM    8  C   UNL     1      -9.701  16.465  66.247  1.00  0.00    -0.332 A  
HETATM    9  C   UNL     1      -9.320  15.721  67.376  1.00  0.00    -0.214 A  
HETATM   10  C   UNL     1     -10.268  14.638  67.913  1.00  0.00    -0.226 C  
HETATM   11  C   UNL     1      -8.079  16.020  67.964  1.00  0.00    -0.148 A  
HETATM   12  C   UNL     1     -10.903  14.976  69.268  1.00  0.00    -0.261 A  
HETATM   13  C   UNL     1      -7.237  16.998  67.424  1.00  0.00    -0.181 A  
HETATM   14  C   UNL     1      -9.728  13.207  67.817  1.00  0.00    -0.218 A  
HETATM   15  C   UNL     1     -12.294  15.101  69.363  1.00  0.00    -0.165 A  
HETATM   16  C   UNL     1      -8.620  12.782  68.565  1.00  0.00    -0.048 A  
HETATM   17  C   UNL     1     -12.871  15.419  70.589  1.00  0.00    -0.484 A  
HETATM   18  C   UNL     1      -8.132  11.478  68.464  1.00  0.00    -0.146 A  
HETATM   19  C   UNL     1      -8.783  10.550  67.658  1.00  0.00    -0.121 A  
HETATM   20  C   UNL     1     -12.055  15.602  71.696  1.00  0.00    -0.496 A  
HETATM   21  C   UNL     1      -9.882  10.952  66.899  1.00  0.00    -0.222 A  
HETATM   22  N   UNL     1     -10.098  15.143  70.352  1.00  0.00     0.035 NA 
HETATM   23  C   UNL     1     -10.688  15.452  71.529  1.00  0.00     0.283 A  
HETATM   24  C   UNL     1     -10.349  12.268  66.975  1.00  0.00    -0.237 A  
BRANCH  19  25
HETATM   25  O   UNL     1      -8.427   9.232  67.551  1.00  0.00    -0.115 OA 
HETATM   26  S   UNL     1      -7.097   8.771  66.727  1.00  0.00    -0.082 S  
HETATM   27  O   UNL     1      -7.464   8.592  65.338  1.00  0.00    -0.082 OA 
HETATM   28  O   UNL     1      -5.962   9.578  67.119  1.00  0.00    -0.051 OA 
HETATM   29  O   UNL     1      -6.843   7.285  67.292  1.00  0.00    -0.071 OA 
ENDBRANCH  19  25
ENDBRANCH   5   6
TORSDOF 2
ENDMDL
MODEL       60
REMARK 921   NORMALIZED FREE ENERGY PREDICTED BY IDOCK:   -3.61 KCAL/MOL
REMARK 922        TOTAL FREE ENERGY PREDICTED BY IDOCK:   -4.37 KCAL/MOL
REMARK 923 INTER-LIGAND FREE ENERGY PREDICTED BY IDOCK:   -4.61 KCAL/MOL
REMARK 924 INTRA-LIGAND FREE ENERGY PREDICTED BY IDOCK:    0.24 KCAL/MOL
REMARK 927      BINDING AFFINITY PREDICTED BY RF-SCORE:    0.00 PKD
ROOT
HETATM    1  O   UNL     1      -6.446   4.350  74.506  1.00  0.00    -0.053 OA 
HETATM    2  S   UNL     1      -6.700   4.369  72.914  1.00  0.00    -0.054 S  
HETATM    3  O   UNL     1      -6.877   2.978  72.551  1.00  0.00    -0.025 OA 
HETATM    4  O   UNL     1      -5.626   5.153  72.346  1.00  0.00    -0.015 OA 
HETATM    5  O   UNL     1      -8.112   5.166  72.762  1.00  0.00    -0.107 OA 
ENDROOT
BRANCH   5   6
HETATM    6  C   UNL     1      -8.604   5.490  71.524  1.00  0.00    -0.132 A  
HETATM    7  C   UNL     1      -9.955   5.447  71.188  1.00  0.00    -0.257 A  
HETATM    8  C   UNL     1     -10.375   5.806  69.904  1.00  0.00    -0.330 A  
HETATM    9  C   UNL     1      -9.457   6.227  68.929  1.00  0.00    -0.130 A  
HETATM   10  C   UNL     1      -9.972   6.619  67.536  1.00  0.00    -0.171 C  
HETATM   11  C   UNL     1      -8.098   6.259  69.286  1.00  0.00    -0.110 A  
HETATM   12  C   UNL     1      -9.577   5.641  66.423  1.00  0.00    -0.157 A  
HETATM   13  C   UNL     1      -7.678   5.917  70.576  1.00  0.00    -0.100 A  
HETATM   14  C   UNL     1      -9.773   8.094  67.169  1.00  0.00    -0.259 A  
HETATM   15  C   UNL     1     -10.577   4.963  65.716  1.00  0.00    -0.229 A  
HETATM   16  C   UNL     1      -8.497   8.646  66.988  1.00  0.00    -0.110 A  
HETATM   17  C   UNL     1     -10.219   4.066  64.713  1.00  0.00    -0.223 A  
HETATM   18  C   UNL     1      -8.327   9.993  66.662  1.00  0.00    -0.125 A  
HETATM   19  C   UNL     1      -9.437  10.803  66.447  1.00  0.00    -0.171 A  
HETATM   20  C   UNL     1      -8.877   3.864  64.431  1.00  0.00    -0.124 A  
HETATM   21  C   UNL     1     -10.717  10.278  66.629  1.00  0.00    -0.183 A  
HETATM   22  N   UNL     1      -8.259   5.455  66.143  1.00  0.00    -0.109 NA 
HETATM   23  C   UNL     1      -7.943   4.578  65.163  1.00  0.00    -0.098 A  
HETATM   24  C   UNL     1     -10.884   8.937  66.990  1.00  0.00    -0.039 A  
BRANCH  19  25
HETATM   25  O   UNL     1      -9.375  12.113  66.051  1.00  0.00    -0.232 OA 
HETATM   26  S   UNL     1     -10.101  13.299  66.904  1.00  0.00    -0.255 S  
HETATM   27  O   UNL     1     -11.468  13.417  66.442  1.00  0.00    -0.308 OA 
HETATM   28  O   UNL     1      -9.778  13.172  68.308  1.00  0.00    -0.222 OA 
HETATM   29  O   UNL     1      -9.355  14.618  66.360  1.00  0.00    -0.279 OA 
ENDBRANCH  19  25
ENDBRANCH   5   6
TORSDOF 2
ENDMDL
MODEL       61
REMARK 921   NORMALIZED FREE ENERGY PREDICTED BY IDOCK:   -3.60 KCAL/MOL
REMARK 922        TOTAL FREE ENERGY PREDICTED BY IDOCK:   -4.36 KCAL/MOL
REMARK 923 INTER-LIGAND FREE ENERGY PREDICTED BY IDOCK:   -4.26 KCAL/MOL
REMARK 924 INTRA-LIGAND FREE ENERGY PREDICTED BY IDOCK:   -0.10 KCAL/MOL
REMARK 927      BINDING AFFINITY PREDICTED BY RF-SCORE:    0.00 PKD
ROOT
HETATM    1  O   UNL     1      -9.568   2.134  70.157  1.00  0.00    -0.095 OA 
HETATM    2  S   UNL     1      -8.943   3.185  69.106  1.00  0.00    -0.136 S  
HETATM    3  O   UNL     1      -9.498   2.801  67.825  1.00  0.00    -0.210 OA 
HETATM    4  O   UNL     1      -7.515   3.175  69.330  1.00  0.00    -0.047 OA 
HETATM    5  O   UNL     1      -9.571   4.613  69.577  1.00  0.00    -0.153 OA 
ENDROOT
BRANCH   5   6
HETATM    6  C   UNL     1      -9.170   5.783  68.985  1.00  0.00    -0.119 A  
HETATM    7  C   UNL     1      -8.264   5.851  67.930  1.00  0.00    -0.108 A  
HETATM    8  C   UNL     1      -7.919   7.087  67.375  1.00  0.00    -0.112 A  
HETATM    9  C   UNL     1      -8.480   8.282  67.853  1.00  0.00    -0.132 A  
HETATM   10  C   UNL     1      -8.072   9.612  67.201  1.00  0.00    -0.110 C  
HETATM   11  C   UNL     1      -9.389   8.193  68.921  1.00  0.00    -0.147 A  
HETATM   12  C   UNL     1      -7.223  10.518  68.101  1.00  0.00    -0.087 A  
HETATM   13  C   UNL     1      -9.748   6.956  69.466  1.00  0.00    -0.159 A  
HETATM   14  C   UNL     1      -9.207  10.344  66.472  1.00  0.00    -0.184 A  
HETATM   15  C   UNL     1      -5.923  10.855  67.706  1.00  0.00    -0.043 A  
HETATM   16  C   UNL     1     -10.307  10.876  67.160  1.00  0.00    -0.262 A  
HETATM   17  C   UNL     1      -5.147  11.667  68.528  1.00  0.00    -0.039 A  
HETATM   18  C   UNL     1     -11.337  11.533  66.486  1.00  0.00    -0.263 A  
HETATM   19  C   UNL     1     -11.257  11.729  65.111  1.00  0.00    -0.250 A  
HETATM   20  C   UNL     1      -5.679  12.131  69.721  1.00  0.00    -0.111 A  
HETATM   21  C   UNL     1     -10.175  11.201  64.405  1.00  0.00    -0.390 A  
HETATM   22  N   UNL     1      -7.755  10.979  69.265  1.00  0.00    -0.108 NA 
HETATM   23  C   UNL     1      -6.976  11.766  70.042  1.00  0.00     0.497 A  
HETATM   24  C   UNL     1      -9.161  10.513  65.077  1.00  0.00    -0.231 A  
BRANCH  19  25
HETATM   25  O   UNL     1     -12.177  12.425  64.373  1.00  0.00    -0.411 OA 
HETATM   26  S   UNL     1     -12.319  14.045  64.494  1.00  0.00    -0.335 S  
HETATM   27  O   UNL     1     -13.237  14.340  65.574  1.00  0.00    -0.641 OA 
HETATM   28  O   UNL     1     -11.016  14.668  64.408  1.00  0.00    -0.270 OA 
HETATM   29  O   UNL     1     -13.117  14.420  63.147  1.00  0.00     0.394 OA 
ENDBRANCH  19  25
ENDBRANCH   5   6
TORSDOF 2
ENDMDL
MODEL       62
REMARK 921   NORMALIZED FREE ENERGY PREDICTED BY IDOCK:   -3.52 KCAL/MOL
REMARK 922        TOTAL FREE ENERGY PREDICTED BY IDOCK:   -4.27 KCAL/MOL
REMARK 923 INTER-LIGAND FREE ENERGY PREDICTED BY IDOCK:   -4.49 KCAL/MOL
REMARK 924 INTRA-LIGAND FREE ENERGY PREDICTED BY IDOCK:    0.22 KCAL/MOL
REMARK 927      BINDING AFFINITY PREDICTED BY RF-SCORE:    0.00 PKD
ROOT
HETATM    1  O   UNL     1      -5.127   7.591  67.472  1.00  0.00    -0.023 OA 
HETATM    2  S   UNL     1      -6.525   8.204  66.952  1.00  0.00    -0.057 S  
HETATM    3  O   UNL     1      -7.433   7.076  66.918  1.00  0.00    -0.083 OA 
HETATM    4  O   UNL     1      -6.214   8.944  65.750  1.00  0.00    -0.052 OA 
HETATM    5  O   UNL     1      -6.957   9.229  68.142  1.00  0.00    -0.074 OA 
ENDROOT
BRANCH   5   6
HETATM    6  C   UNL     1      -8.054  10.041  68.003  1.00  0.00    -0.112 A  
HETATM    7  C   UNL     1      -9.314   9.587  67.624  1.00  0.00    -0.141 A  
HETATM    8  C   UNL     1     -10.384  10.480  67.518  1.00  0.00    -0.265 A  
HETATM    9  C   UNL     1     -10.222  11.847  67.799  1.00  0.00    -0.211 A  
HETATM   10  C   UNL     1     -11.432  12.784  67.676  1.00  0.00    -0.387 C  
HETATM   11  C   UNL     1      -8.941  12.286  68.175  1.00  0.00    -0.192 A  
HETATM   12  C   UNL     1     -11.344  13.773  66.507  1.00  0.00    -0.325 A  
HETATM   13  C   UNL     1      -7.873  11.390  68.298  1.00  0.00    -0.132 A  
HETATM   14  C   UNL     1     -11.891  13.418  68.995  1.00  0.00    -0.378 A  
HETATM   15  C   UNL     1     -12.301  13.719  65.488  1.00  0.00    -0.507 A  
HETATM   16  C   UNL     1     -11.093  14.337  69.691  1.00  0.00    -0.218 A  
HETATM   17  C   UNL     1     -12.215  14.609  64.420  1.00  0.00    -0.473 A  
HETATM   18  C   UNL     1     -11.518  14.902  70.896  1.00  0.00    -0.305 A  
HETATM   19  C   UNL     1     -12.780  14.606  71.398  1.00  0.00    -0.333 A  
HETATM   20  C   UNL     1     -11.183  15.535  64.389  1.00  0.00    -0.232 A  
HETATM   21  C   UNL     1     -13.588  13.687  70.726  1.00  0.00     0.325 A  
HETATM   22  N   UNL     1     -10.335  14.686  66.489  1.00  0.00    -0.276 NA 
HETATM   23  C   UNL     1     -10.278  15.536  65.438  1.00  0.00    -0.377 A  
HETATM   24  C   UNL     1     -13.147  13.096  69.538  1.00  0.00     1.469 A  
BRANCH  19  25
HETATM   25  O   UNL     1     -13.315  15.165  72.528  1.00  0.00    -0.365 OA 
HETATM   26  S   UNL     1     -12.388  15.973  73.601  1.00  0.00    -0.595 S  
HETATM   27  O   UNL     1     -11.856  15.018  74.549  1.00  0.00    -0.260 OA 
HETATM   28  O   UNL     1     -11.540  16.920  72.912  1.00  0.00    -0.215 OA 
HETATM   29  O   UNL     1     -13.481  16.822  74.424  1.00  0.00     0.301 OA 
ENDBRANCH  19  25
ENDBRANCH   5   6
TORSDOF 2
ENDMDL
MODEL       63
REMARK 921   NORMALIZED FREE ENERGY PREDICTED BY IDOCK:   -3.47 KCAL/MOL
REMARK 922        TOTAL FREE ENERGY PREDICTED BY IDOCK:   -4.21 KCAL/MOL
REMARK 923 INTER-LIGAND FREE ENERGY PREDICTED BY IDOCK:   -4.87 KCAL/MOL
REMARK 924 INTRA-LIGAND FREE ENERGY PREDICTED BY IDOCK:    0.66 KCAL/MOL
REMARK 927      BINDING AFFINITY PREDICTED BY RF-SCORE:    0.00 PKD
ROOT
HETATM    1  O   UNL     1      -6.303   5.128  62.431  1.00  0.00    -0.020 OA 
HETATM    2  S   UNL     1      -7.208   5.775  63.598  1.00  0.00    -0.059 S  
HETATM    3  O   UNL     1      -7.650   4.648  64.392  1.00  0.00    -0.070 OA 
HETATM    4  O   UNL     1      -8.162   6.636  62.934  1.00  0.00    -0.081 OA 
HETATM    5  O   UNL     1      -6.148   6.672  64.449  1.00  0.00    -0.033 OA 
ENDROOT
BRANCH   5   6
HETATM    6  C   UNL     1      -6.576   7.482  65.470  1.00  0.00    -0.045 A  
HETATM    7  C   UNL     1      -5.741   7.988  66.462  1.00  0.00    -0.040 A  
HETATM    8  C   UNL     1      -6.257   8.819  67.462  1.00  0.00    -0.052 A  
HETATM    9  C   UNL     1      -7.616   9.172  67.485  1.00  0.00    -0.088 A  
HETATM   10  C   UNL     1      -8.129  10.095  68.601  1.00  0.00    -0.109 C  
HETATM   11  C   UNL     1      -8.442   8.647  66.477  1.00  0.00    -0.118 A  
HETATM   12  C   UNL     1      -9.054   9.405  69.611  1.00  0.00    -0.181 A  
HETATM   13  C   UNL     1      -7.924   7.830  65.467  1.00  0.00    -0.121 A  
HETATM   14  C   UNL     1      -8.638  11.460  68.121  1.00  0.00    -0.153 A  
HETATM   15  C   UNL     1      -8.671   9.331  70.955  1.00  0.00    -0.234 A  
HETATM   16  C   UNL     1      -9.784  11.584  67.322  1.00  0.00    -0.197 A  
HETATM   17  C   UNL     1      -9.504   8.695  71.871  1.00  0.00    -0.369 A  
HETATM   18  C   UNL     1     -10.233  12.831  66.885  1.00  0.00    -0.241 A  
HETATM   19  C   UNL     1      -9.580  13.990  67.293  1.00  0.00    -0.238 A  
HETATM   20  C   UNL     1     -10.701   8.148  71.433  1.00  0.00    -0.280 A  
HETATM   21  C   UNL     1      -8.434  13.890  68.081  1.00  0.00    -0.171 A  
HETATM   22  N   UNL     1     -10.232   8.881  69.178  1.00  0.00    -0.201 NA 
HETATM   23  C   UNL     1     -11.020   8.268  70.091  1.00  0.00    -0.222 A  
HETATM   24  C   UNL     1      -7.965  12.638  68.490  1.00  0.00    -0.093 A  
BRANCH  19  25
HETATM   25  O   UNL     1      -9.989  15.260  66.979  1.00  0.00    -0.230 OA 
HETATM   26  S   UNL     1     -10.354  16.349  68.138  1.00  0.00    -0.297 S  
HETATM   27  O   UNL     1     -11.749  16.186  68.489  1.00  0.00    -0.348 OA 
HETATM   28  O   UNL     1      -9.313  16.378  69.141  1.00  0.00    -0.256 OA 
HETATM   29  O   UNL     1     -10.280  17.741  67.333  1.00  0.00    -0.324 OA 
ENDBRANCH  19  25
ENDBRANCH   5   6
TORSDOF 2
ENDMDL
MODEL       64
REMARK 921   NORMALIZED FREE ENERGY PREDICTED BY IDOCK:   -3.45 KCAL/MOL
REMARK 922        TOTAL FREE ENERGY PREDICTED BY IDOCK:   -4.19 KCAL/MOL
REMARK 923 INTER-LIGAND FREE ENERGY PREDICTED BY IDOCK:   -4.13 KCAL/MOL
REMARK 924 INTRA-LIGAND FREE ENERGY PREDICTED BY IDOCK:   -0.06 KCAL/MOL
REMARK 927      BINDING AFFINITY PREDICTED BY RF-SCORE:    0.00 PKD
ROOT
HETATM    1  O   UNL     1     -12.944  15.130  70.221  1.00  0.00    -0.287 OA 
HETATM    2  S   UNL     1     -12.141  13.756  69.958  1.00  0.00    -0.345 S  
HETATM    3  O   UNL     1     -10.801  14.013  70.442  1.00  0.00     0.306 OA 
HETATM    4  O   UNL     1     -12.379  13.412  68.574  1.00  0.00    -0.194 OA 
HETATM    5  O   UNL     1     -12.888  12.687  70.934  1.00  0.00    -0.219 OA 
ENDROOT
BRANCH   5   6
HETATM    6  C   UNL     1     -12.556  11.356  70.899  1.00  0.00    -0.356 A  
HETATM    7  C   UNL     1     -13.488  10.323  70.866  1.00  0.00    -0.100 A  
HETATM    8  C   UNL     1     -13.064   8.992  70.818  1.00  0.00     0.216 A  
HETATM    9  C   UNL     1     -11.699   8.663  70.791  1.00  0.00    -0.239 A  
HETATM   10  C   UNL     1     -11.288   7.184  70.730  1.00  0.00    -0.322 C  
HETATM   11  C   UNL     1     -10.774   9.720  70.830  1.00  0.00    -0.375 A  
HETATM   12  C   UNL     1     -10.628   6.662  72.013  1.00  0.00    -0.211 A  
HETATM   13  C   UNL     1     -11.197  11.053  70.860  1.00  0.00     0.595 A  
HETATM   14  C   UNL     1     -10.561   6.772  69.444  1.00  0.00    -0.265 A  
HETATM   15  C   UNL     1     -11.241   5.628  72.729  1.00  0.00    -0.347 A  
HETATM   16  C   UNL     1      -9.289   7.268  69.121  1.00  0.00    -0.146 A  
HETATM   17  C   UNL     1     -10.650   5.161  73.900  1.00  0.00    -0.340 A  
HETATM   18  C   UNL     1      -8.640   6.892  67.944  1.00  0.00    -0.122 A  
HETATM   19  C   UNL     1      -9.225   5.960  67.092  1.00  0.00    -0.116 A  
HETATM   20  C   UNL     1      -9.461   5.729  74.332  1.00  0.00    -0.159 A  
HETATM   21  C   UNL     1     -10.493   5.460  67.389  1.00  0.00    -0.253 A  
HETATM   22  N   UNL     1      -9.457   7.217  72.426  1.00  0.00    -0.145 NA 
HETATM   23  C   UNL     1      -8.907   6.742  73.567  1.00  0.00    -0.130 A  
HETATM   24  C   UNL     1     -11.157   5.864  68.552  1.00  0.00    -0.171 A  
BRANCH  19  25
HETATM   25  O   UNL     1      -8.636   5.473  65.956  1.00  0.00    -0.124 OA 
HETATM   26  S   UNL     1      -7.637   4.184  65.997  1.00  0.00    -0.090 S  
HETATM   27  O   UNL     1      -6.296   4.658  66.267  1.00  0.00    -0.034 OA 
HETATM   28  O   UNL     1      -8.237   3.113  66.763  1.00  0.00    -0.086 OA 
HETATM   29  O   UNL     1      -7.619   3.717  64.457  1.00  0.00    -0.074 OA 
ENDBRANCH  19  25
ENDBRANCH   5   6
TORSDOF 2
ENDMDL
MODEL       65
REMARK 921   NORMALIZED FREE ENERGY PREDICTED BY IDOCK:   -3.40 KCAL/MOL
REMARK 922        TOTAL FREE ENERGY PREDICTED BY IDOCK:   -4.14 KCAL/MOL
REMARK 923 INTER-LIGAND FREE ENERGY PREDICTED BY IDOCK:   -4.81 KCAL/MOL
REMARK 924 INTRA-LIGAND FREE ENERGY PREDICTED BY IDOCK:    0.67 KCAL/MOL
REMARK 927      BINDING AFFINITY PREDICTED BY RF-SCORE:    0.00 PKD
ROOT
HETATM    1  O   UNL     1     -11.251   1.820  63.106  1.00  0.00    -0.249 OA 
HETATM    2  S   UNL     1     -10.223   2.988  63.531  1.00  0.00    -0.203 S  
HETATM    3  O   UNL     1     -10.083   3.807  62.345  1.00  0.00    -0.133 OA 
HETATM    4  O   UNL     1      -9.079   2.321  64.113  1.00  0.00    -0.102 OA 
HETATM    5  O   UNL     1     -11.033   3.809  64.681  1.00  0.00    -0.141 OA 
ENDROOT
BRANCH   5   6
HETATM    6  C   UNL     1     -10.425   4.821  65.379  1.00  0.00    -0.072 A  
HETATM    7  C   UNL     1      -9.157   5.314  65.087  1.00  0.00    -0.065 A  
HETATM    8  C   UNL     1      -8.614   6.358  65.841  1.00  0.00    -0.151 A  
HETATM    9  C   UNL     1      -9.332   6.942  66.898  1.00  0.00    -0.177 A  
HETATM   10  C   UNL     1      -8.693   8.093  67.690  1.00  0.00    -0.130 C  
HETATM   11  C   UNL     1     -10.609   6.427  67.180  1.00  0.00    -0.389 A  
HETATM   12  C   UNL     1      -8.313   7.728  69.130  1.00  0.00    -0.134 A  
HETATM   13  C   UNL     1     -11.160   5.393  66.415  1.00  0.00     0.096 A  
HETATM   14  C   UNL     1      -9.413   9.440  67.557  1.00  0.00    -0.154 A  
HETATM   15  C   UNL     1      -6.971   7.786  69.522  1.00  0.00    -0.058 A  
HETATM   16  C   UNL     1     -10.704   9.643  68.065  1.00  0.00    -0.284 A  
HETATM   17  C   UNL     1      -6.623   7.445  70.827  1.00  0.00    -0.043 A  
HETATM   18  C   UNL     1     -11.353  10.873  67.931  1.00  0.00    -0.380 A  
HETATM   19  C   UNL     1     -10.696  11.947  67.341  1.00  0.00    -0.232 A  
HETATM   20  C   UNL     1      -7.616   7.057  71.714  1.00  0.00    -0.088 A  
HETATM   21  C   UNL     1      -9.413  11.766  66.821  1.00  0.00    -0.202 A  
HETATM   22  N   UNL     1      -9.293   7.359  69.999  1.00  0.00    -0.152 NA 
HETATM   23  C   UNL     1      -8.924   7.033  71.259  1.00  0.00    -0.137 A  
HETATM   24  C   UNL     1      -8.778  10.524  66.925  1.00  0.00    -0.130 A  
BRANCH  19  25
HETATM   25  O   UNL     1     -11.218  13.209  67.231  1.00  0.00    -0.267 OA 
HETATM   26  S   UNL     1     -10.279  14.492  66.867  1.00  0.00    -0.267 S  
HETATM   27  O   UNL     1      -9.739  15.023  68.101  1.00  0.00    -0.209 OA 
HETATM   28  O   UNL     1      -9.435  14.187  65.733  1.00  0.00    -0.181 OA 
HETATM   29  O   UNL     1     -11.362  15.579  66.378  1.00  0.00    -0.177 OA 
ENDBRANCH  19  25
ENDBRANCH   5   6
TORSDOF 2
ENDMDL
MODEL       66
REMARK 921   NORMALIZED FREE ENERGY PREDICTED BY IDOCK:   -3.38 KCAL/MOL
REMARK 922        TOTAL FREE ENERGY PREDICTED BY IDOCK:   -4.12 KCAL/MOL
REMARK 923 INTER-LIGAND FREE ENERGY PREDICTED BY IDOCK:   -4.70 KCAL/MOL
REMARK 924 INTRA-LIGAND FREE ENERGY PREDICTED BY IDOCK:    0.58 KCAL/MOL
REMARK 927      BINDING AFFINITY PREDICTED BY RF-SCORE:    0.00 PKD
ROOT
HETATM    1  O   UNL     1      -7.728   6.622  73.971  1.00  0.00    -0.096 OA 
HETATM    2  S   UNL     1      -7.276   7.285  72.572  1.00  0.00    -0.073 S  
HETATM    3  O   UNL     1      -6.812   6.174  71.768  1.00  0.00    -0.065 OA 
HETATM    4  O   UNL     1      -6.390   8.376  72.914  1.00  0.00    -0.087 OA 
HETATM    5  O   UNL     1      -8.668   7.869  71.960  1.00  0.00    -0.118 OA 
ENDROOT
BRANCH   5   6
HETATM    6  C   UNL     1      -8.669   8.621  70.813  1.00  0.00    -0.173 A  
HETATM    7  C   UNL     1      -9.691   8.598  69.869  1.00  0.00    -0.175 A  
HETATM    8  C   UNL     1      -9.619   9.407  68.731  1.00  0.00    -0.156 A  
HETATM    9  C   UNL     1      -8.529  10.265  68.516  1.00  0.00    -0.121 A  
HETATM   10  C   UNL     1      -8.503  11.140  67.253  1.00  0.00    -0.137 C  
HETATM   11  C   UNL     1      -7.505  10.271  69.478  1.00  0.00    -0.142 A  
HETATM   12  C   UNL     1      -7.434  10.734  66.231  1.00  0.00    -0.138 A  
HETATM   13  C   UNL     1      -7.584   9.475  70.626  1.00  0.00    -0.145 A  
HETATM   14  C   UNL     1      -8.575  12.649  67.515  1.00  0.00    -0.185 A  
HETATM   15  C   UNL     1      -7.828  10.314  64.955  1.00  0.00    -0.134 A  
HETATM   16  C   UNL     1      -7.539  13.337  68.162  1.00  0.00    -0.141 A  
HETATM   17  C   UNL     1      -6.859   9.935  64.029  1.00  0.00    -0.126 A  
HETATM   18  C   UNL     1      -7.618  14.710  68.402  1.00  0.00    -0.119 A  
HETATM   19  C   UNL     1      -8.711  15.437  67.942  1.00  0.00    -0.160 A  
HETATM   20  C   UNL     1      -5.521   9.984  64.390  1.00  0.00    -0.100 A  
HETATM   21  C   UNL     1      -9.757  14.771  67.302  1.00  0.00    -0.230 A  
HETATM   22  N   UNL     1      -6.123  10.795  66.586  1.00  0.00    -0.079 NA 
HETATM   23  C   UNL     1      -5.205  10.420  65.666  1.00  0.00    -0.081 A  
HETATM   24  C   UNL     1      -9.692  13.390  67.093  1.00  0.00    -0.237 A  
BRANCH  19  25
HETATM   25  O   UNL     1      -8.844  16.795  68.062  1.00  0.00    -0.208 OA 
HETATM   26  S   UNL     1     -10.309  17.514  68.048  1.00  0.00    -0.382 S  
HETATM   27  O   UNL     1     -10.667  17.786  66.672  1.00  0.00    -0.259 OA 
HETATM   28  O   UNL     1     -11.208  16.829  68.950  1.00  0.00    -0.250 OA 
HETATM   29  O   UNL     1      -9.988  18.953  68.695  1.00  0.00    -0.381 OA 
ENDBRANCH  19  25
ENDBRANCH   5   6
TORSDOF 2
ENDMDL
MODEL       67
REMARK 921   NORMALIZED FREE ENERGY PREDICTED BY IDOCK:   -3.27 KCAL/MOL
REMARK 922        TOTAL FREE ENERGY PREDICTED BY IDOCK:   -3.99 KCAL/MOL
REMARK 923 INTER-LIGAND FREE ENERGY PREDICTED BY IDOCK:   -4.44 KCAL/MOL
REMARK 924 INTRA-LIGAND FREE ENERGY PREDICTED BY IDOCK:    0.46 KCAL/MOL
REMARK 927      BINDING AFFINITY PREDICTED BY RF-SCORE:    0.00 PKD
ROOT
HETATM    1  O   UNL     1     -14.251  14.984  72.157  1.00  0.00    -0.469 OA 
HETATM    2  S   UNL     1     -13.235  13.809  71.726  1.00  0.00    -0.399 S  
HETATM    3  O   UNL     1     -12.040  14.047  72.509  1.00  0.00     0.113 OA 
HETATM    4  O   UNL     1     -13.192  13.826  70.281  1.00  0.00     0.082 OA 
HETATM    5  O   UNL     1     -13.978  12.455  72.245  1.00  0.00    -0.247 OA 
ENDROOT
BRANCH   5   6
HETATM    6  C   UNL     1     -13.466  11.218  71.949  1.00  0.00    -0.174 A  
HETATM    7  C   UNL     1     -14.246  10.091  71.704  1.00  0.00     0.414 A  
HETATM    8  C   UNL     1     -13.642   8.868  71.397  1.00  0.00    -0.311 A  
HETATM    9  C   UNL     1     -12.246   8.745  71.316  1.00  0.00    -0.332 A  
HETATM   10  C   UNL     1     -11.634   7.380  70.967  1.00  0.00    -0.315 C  
HETATM   11  C   UNL     1     -11.476   9.892  71.572  1.00  0.00    -0.322 A  
HETATM   12  C   UNL     1     -10.884   6.713  72.126  1.00  0.00    -0.229 A  
HETATM   13  C   UNL     1     -12.079  11.121  71.862  1.00  0.00     0.745 A  
HETATM   14  C   UNL     1     -10.883   7.337  69.630  1.00  0.00    -0.238 A  
HETATM   15  C   UNL     1     -11.333   5.482  72.617  1.00  0.00    -0.346 A  
HETATM   16  C   UNL     1      -9.699   8.059  69.423  1.00  0.00    -0.170 A  
HETATM   17  C   UNL     1     -10.659   4.881  73.677  1.00  0.00    -0.321 A  
HETATM   18  C   UNL     1      -9.027   8.018  68.200  1.00  0.00    -0.135 A  
HETATM   19  C   UNL     1      -9.494   7.200  67.176  1.00  0.00    -0.147 A  
HETATM   20  C   UNL     1      -9.553   5.513  74.224  1.00  0.00    -0.160 A  
HETATM   21  C   UNL     1     -10.674   6.479  67.357  1.00  0.00    -0.412 A  
HETATM   22  N   UNL     1      -9.792   7.333  72.651  1.00  0.00    -0.161 NA 
HETATM   23  C   UNL     1      -9.160   6.724  73.679  1.00  0.00    -0.146 A  
HETATM   24  C   UNL     1     -11.365   6.548  68.571  1.00  0.00    -0.179 A  
BRANCH  19  25
HETATM   25  O   UNL     1      -8.865   7.035  65.970  1.00  0.00    -0.156 OA 
HETATM   26  S   UNL     1      -8.020   8.245  65.275  1.00  0.00    -0.135 S  
HETATM   27  O   UNL     1      -8.934   9.037  64.479  1.00  0.00    -0.152 OA 
HETATM   28  O   UNL     1      -7.127   8.847  66.240  1.00  0.00    -0.080 OA 
HETATM   29  O   UNL     1      -7.107   7.455  64.209  1.00  0.00    -0.060 OA 
ENDBRANCH  19  25
ENDBRANCH   5   6
TORSDOF 2
ENDMDL
MODEL       68
REMARK 921   NORMALIZED FREE ENERGY PREDICTED BY IDOCK:   -3.24 KCAL/MOL
REMARK 922        TOTAL FREE ENERGY PREDICTED BY IDOCK:   -3.96 KCAL/MOL
REMARK 923 INTER-LIGAND FREE ENERGY PREDICTED BY IDOCK:   -3.65 KCAL/MOL
REMARK 924 INTRA-LIGAND FREE ENERGY PREDICTED BY IDOCK:   -0.31 KCAL/MOL
REMARK 927      BINDING AFFINITY PREDICTED BY RF-SCORE:    0.00 PKD
ROOT
HETATM    1  O   UNL     1     -12.043  13.295  63.979  1.00  0.00    -0.418 OA 
HETATM    2  S   UNL     1     -11.041  12.562  65.008  1.00  0.00    -0.310 S  
HETATM    3  O   UNL     1     -11.858  12.255  66.164  1.00  0.00    -0.507 OA 
HETATM    4  O   UNL     1      -9.886  13.424  65.123  1.00  0.00    -0.194 OA 
HETATM    5  O   UNL     1     -10.636  11.188  64.232  1.00  0.00    -0.340 OA 
ENDROOT
BRANCH   5   6
HETATM    6  C   UNL     1      -9.688  10.344  64.752  1.00  0.00    -0.320 A  
HETATM    7  C   UNL     1      -8.317  10.523  64.594  1.00  0.00    -0.114 A  
HETATM    8  C   UNL     1      -7.416   9.621  65.168  1.00  0.00    -0.115 A  
HETATM    9  C   UNL     1      -7.866   8.525  65.923  1.00  0.00    -0.099 A  
HETATM   10  C   UNL     1      -6.834   7.569  66.540  1.00  0.00    -0.062 C  
HETATM   11  C   UNL     1      -9.253   8.359  66.067  1.00  0.00    -0.247 A  
HETATM   12  C   UNL     1      -6.811   6.174  65.903  1.00  0.00    -0.057 A  
HETATM   13  C   UNL     1     -10.155   9.271  65.507  1.00  0.00     0.150 A  
HETATM   14  C   UNL     1      -6.808   7.554  68.073  1.00  0.00    -0.067 A  
HETATM   15  C   UNL     1      -5.647   5.729  65.265  1.00  0.00    -0.016 A  
HETATM   16  C   UNL     1      -7.888   7.072  68.827  1.00  0.00    -0.118 A  
HETATM   17  C   UNL     1      -5.629   4.467  64.676  1.00  0.00    -0.014 A  
HETATM   18  C   UNL     1      -7.857   7.071  70.223  1.00  0.00    -0.105 A  
HETATM   19  C   UNL     1      -6.715   7.493  70.895  1.00  0.00    -0.043 A  
HETATM   20  C   UNL     1      -6.765   3.674  64.735  1.00  0.00    -0.047 A  
HETATM   21  C   UNL     1      -5.631   7.984  70.166  1.00  0.00    -0.023 A  
HETATM   22  N   UNL     1      -7.925   5.397  65.973  1.00  0.00    -0.103 NA 
HETATM   23  C   UNL     1      -7.877   4.177  65.391  1.00  0.00    -0.086 A  
HETATM   24  C   UNL     1      -5.677   8.017  68.769  1.00  0.00    -0.031 A  
BRANCH  19  25
HETATM   25  O   UNL     1      -6.560   7.458  72.256  1.00  0.00    -0.050 OA 
HETATM   26  S   UNL     1      -6.984   6.148  73.130  1.00  0.00    -0.080 S  
HETATM   27  O   UNL     1      -8.384   6.270  73.478  1.00  0.00    -0.120 OA 
HETATM   28  O   UNL     1      -6.450   4.949  72.522  1.00  0.00    -0.042 OA 
HETATM   29  O   UNL     1      -6.183   6.383  74.507  1.00  0.00    -0.068 OA 
ENDBRANCH  19  25
ENDBRANCH   5   6
TORSDOF 2
ENDMDL
MODEL       69
REMARK 921   NORMALIZED FREE ENERGY PREDICTED BY IDOCK:   -3.14 KCAL/MOL
REMARK 922        TOTAL FREE ENERGY PREDICTED BY IDOCK:   -3.85 KCAL/MOL
REMARK 923 INTER-LIGAND FREE ENERGY PREDICTED BY IDOCK:   -3.93 KCAL/MOL
REMARK 924 INTRA-LIGAND FREE ENERGY PREDICTED BY IDOCK:    0.08 KCAL/MOL
REMARK 927      BINDING AFFINITY PREDICTED BY RF-SCORE:    0.00 PKD
ROOT
HETATM    1  O   UNL     1      -6.364   6.179  62.803  1.00  0.00    -0.028 OA 
HETATM    2  S   UNL     1      -7.390   6.971  63.762  1.00  0.00    -0.088 S  
HETATM    3  O   UNL     1      -7.924   5.958  64.649  1.00  0.00    -0.111 OA 
HETATM    4  O   UNL     1      -8.258   7.724  62.885  1.00  0.00    -0.131 OA 
HETATM    5  O   UNL     1      -6.425   7.985  64.596  1.00  0.00    -0.055 OA 
ENDROOT
BRANCH   5   6
HETATM    6  C   UNL     1      -6.959   8.923  65.442  1.00  0.00    -0.080 A  
HETATM    7  C   UNL     1      -6.391   9.282  66.662  1.00  0.00    -0.066 A  
HETATM    8  C   UNL     1      -6.995  10.258  67.460  1.00  0.00    -0.085 A  
HETATM    9  C   UNL     1      -8.172  10.906  67.053  1.00  0.00    -0.134 A  
HETATM   10  C   UNL     1      -8.789  11.978  67.965  1.00  0.00    -0.179 C  
HETATM   11  C   UNL     1      -8.732  10.526  65.822  1.00  0.00    -0.188 A  
HETATM   12  C   UNL     1     -10.119  11.565  68.608  1.00  0.00    -0.207 A  
HETATM   13  C   UNL     1      -8.120   9.561  65.013  1.00  0.00    -0.125 A  
HETATM   14  C   UNL     1      -8.794  13.394  67.377  1.00  0.00    -0.214 A  
HETATM   15  C   UNL     1     -10.210  11.479  70.002  1.00  0.00     1.196 A  
HETATM   16  C   UNL     1      -9.566  13.728  66.255  1.00  0.00    -0.265 A  
HETATM   17  C   UNL     1     -11.413  11.093  70.587  1.00  0.00    -0.037 A  
HETATM   18  C   UNL     1      -9.557  15.019  65.724  1.00  0.00    -0.327 A  
HETATM   19  C   UNL     1      -8.821  16.023  66.346  1.00  0.00    -0.328 A  
HETATM   20  C   UNL     1     -12.500  10.805  69.776  1.00  0.00    -0.231 A  
HETATM   21  C   UNL     1      -8.040  15.713  67.459  1.00  0.00    -0.181 A  
HETATM   22  N   UNL     1     -11.185  11.294  67.807  1.00  0.00    -0.271 NA 
HETATM   23  C   UNL     1     -12.339  10.922  68.405  1.00  0.00     0.687 A  
HETATM   24  C   UNL     1      -8.023  14.411  67.969  1.00  0.00    -0.139 A  
BRANCH  19  25
HETATM   25  O   UNL     1      -8.808  17.334  65.947  1.00  0.00    -0.528 OA 
HETATM   26  S   UNL     1     -10.114  18.294  66.128  1.00  0.00    -0.300 S  
HETATM   27  O   UNL     1     -10.956  18.140  64.960  1.00  0.00    -0.726 OA 
HETATM   28  O   UNL     1     -10.640  18.173  67.470  1.00  0.00    -0.402 OA 
HETATM   29  O   UNL     1      -9.475  19.767  65.997  1.00  0.00    -0.383 OA 
ENDBRANCH  19  25
ENDBRANCH   5   6
TORSDOF 2
ENDMDL
MODEL       70
REMARK 921   NORMALIZED FREE ENERGY PREDICTED BY IDOCK:   -3.13 KCAL/MOL
REMARK 922        TOTAL FREE ENERGY PREDICTED BY IDOCK:   -3.84 KCAL/MOL
REMARK 923 INTER-LIGAND FREE ENERGY PREDICTED BY IDOCK:   -3.64 KCAL/MOL
REMARK 924 INTRA-LIGAND FREE ENERGY PREDICTED BY IDOCK:   -0.20 KCAL/MOL
REMARK 927      BINDING AFFINITY PREDICTED BY RF-SCORE:    0.00 PKD
ROOT
HETATM    1  O   UNL     1     -11.147   4.192  72.835  1.00  0.00    -0.137 OA 
HETATM    2  S   UNL     1     -10.609   5.393  71.903  1.00  0.00    -0.208 S  
HETATM    3  O   UNL     1      -9.410   5.865  72.563  1.00  0.00    -0.142 OA 
HETATM    4  O   UNL     1     -11.737   6.273  71.692  1.00  0.00    -0.305 OA 
HETATM    5  O   UNL     1     -10.218   4.646  70.508  1.00  0.00    -0.223 OA 
ENDROOT
BRANCH   5   6
HETATM    6  C   UNL     1      -9.827   5.371  69.412  1.00  0.00    -0.184 A  
HETATM    7  C   UNL     1     -10.712   5.968  68.519  1.00  0.00    -0.354 A  
HETATM    8  C   UNL     1     -10.230   6.702  67.431  1.00  0.00    -0.243 A  
HETATM    9  C   UNL     1      -8.852   6.866  67.217  1.00  0.00    -0.118 A  
HETATM   10  C   UNL     1      -8.375   7.689  66.011  1.00  0.00    -0.135 C  
HETATM   11  C   UNL     1      -7.975   6.251  68.126  1.00  0.00    -0.108 A  
HETATM   12  C   UNL     1      -7.695   6.860  64.914  1.00  0.00    -0.113 A  
HETATM   13  C   UNL     1      -8.456   5.531  69.225  1.00  0.00    -0.101 A  
HETATM   14  C   UNL     1      -7.629   8.980  66.370  1.00  0.00    -0.092 A  
HETATM   15  C   UNL     1      -8.262   6.815  63.636  1.00  0.00     0.095 A  
HETATM   16  C   UNL     1      -6.381   8.961  67.007  1.00  0.00    -0.060 A  
HETATM   17  C   UNL     1      -7.652   6.054  62.642  1.00  0.00    -0.075 A  
HETATM   18  C   UNL     1      -5.714  10.143  67.336  1.00  0.00    -0.042 A  
HETATM   19  C   UNL     1      -6.256  11.372  66.975  1.00  0.00    -0.123 A  
HETATM   20  C   UNL     1      -6.490   5.357  62.939  1.00  0.00    -0.025 A  
HETATM   21  C   UNL     1      -7.501  11.416  66.347  1.00  0.00    -0.013 A  
HETATM   22  N   UNL     1      -6.550   6.188  65.209  1.00  0.00    -0.042 NA 
HETATM   23  C   UNL     1      -5.981   5.457  64.223  1.00  0.00    -0.022 A  
HETATM   24  C   UNL     1      -8.184  10.232  66.049  1.00  0.00    -0.141 A  
BRANCH  19  25
HETATM   25  O   UNL     1      -5.644  12.580  67.185  1.00  0.00    -0.281 OA 
HETATM   26  S   UNL     1      -6.406  13.800  67.955  1.00  0.00    -0.155 S  
HETATM   27  O   UNL     1      -7.153  14.559  66.974  1.00  0.00    -0.095 OA 
HETATM   28  O   UNL     1      -7.017  13.316  69.173  1.00  0.00    -0.098 OA 
HETATM   29  O   UNL     1      -5.180  14.752  68.382  1.00  0.00    -0.097 OA 
ENDBRANCH  19  25
ENDBRANCH   5   6
TORSDOF 2
ENDMDL
MODEL       71
REMARK 921   NORMALIZED FREE ENERGY PREDICTED BY IDOCK:   -2.93 KCAL/MOL
REMARK 922        TOTAL FREE ENERGY PREDICTED BY IDOCK:   -3.61 KCAL/MOL
REMARK 923 INTER-LIGAND FREE ENERGY PREDICTED BY IDOCK:   -4.12 KCAL/MOL
REMARK 924 INTRA-LIGAND FREE ENERGY PREDICTED BY IDOCK:    0.52 KCAL/MOL
REMARK 927      BINDING AFFINITY PREDICTED BY RF-SCORE:    0.00 PKD
ROOT
HETATM    1  O   UNL     1      -5.146   5.464  62.609  1.00  0.00    -0.009 OA 
HETATM    2  S   UNL     1      -6.305   5.900  63.642  1.00  0.00    -0.029 S  
HETATM    3  O   UNL     1      -6.564   4.713  64.429  1.00  0.00    -0.041 OA 
HETATM    4  O   UNL     1      -7.347   6.504  62.842  1.00  0.00    -0.053 OA 
HETATM    5  O   UNL     1      -5.585   7.033  64.565  1.00  0.00    -0.031 OA 
ENDROOT
BRANCH   5   6
HETATM    6  C   UNL     1      -6.303   7.736  65.498  1.00  0.00    -0.042 A  
HETATM    7  C   UNL     1      -5.728   8.459  66.540  1.00  0.00    -0.043 A  
HETATM    8  C   UNL     1      -6.534   9.160  67.442  1.00  0.00    -0.064 A  
HETATM    9  C   UNL     1      -7.933   9.165  67.317  1.00  0.00    -0.102 A  
HETATM   10  C   UNL     1      -8.771   9.959  68.330  1.00  0.00    -0.119 C  
HETATM   11  C   UNL     1      -8.494   8.426  66.262  1.00  0.00    -0.132 A  
HETATM   12  C   UNL     1      -9.600   9.086  69.279  1.00  0.00    -0.162 A  
HETATM   13  C   UNL     1      -7.688   7.738  65.348  1.00  0.00    -0.106 A  
HETATM   14  C   UNL     1      -9.545  11.142  67.735  1.00  0.00    -0.180 A  
HETATM   15  C   UNL     1      -9.354   9.143  70.656  1.00  0.00    -0.312 A  
HETATM   16  C   UNL     1     -10.595  10.958  66.824  1.00  0.00    -0.313 A  
HETATM   17  C   UNL     1     -10.098   8.343  71.519  1.00  0.00    -0.293 A  
HETATM   18  C   UNL     1     -11.287  12.043  66.284  1.00  0.00    -0.415 A  
HETATM   19  C   UNL     1     -10.984  13.337  66.694  1.00  0.00    -0.283 A  
HETATM   20  C   UNL     1     -11.072   7.505  70.996  1.00  0.00    -0.274 A  
HETATM   21  C   UNL     1      -9.938  13.545  67.593  1.00  0.00    -0.229 A  
HETATM   22  N   UNL     1     -10.561   8.275  68.762  1.00  0.00    -0.171 NA 
HETATM   23  C   UNL     1     -11.267   7.509  69.625  1.00  0.00    -0.005 A  
HETATM   24  C   UNL     1      -9.223  12.459  68.108  1.00  0.00    -0.205 A  
BRANCH  19  25
HETATM   25  O   UNL     1     -11.655  14.457  66.280  1.00  0.00    -0.354 OA 
HETATM   26  S   UNL     1     -11.839  14.805  64.696  1.00  0.00    -0.398 S  
HETATM   27  O   UNL     1     -10.684  15.562  64.261  1.00  0.00    -0.106 OA 
HETATM   28  O   UNL     1     -12.301  13.637  63.980  1.00  0.00    -0.617 OA 
HETATM   29  O   UNL     1     -13.054  15.862  64.718  1.00  0.00     0.966 OA 
ENDBRANCH  19  25
ENDBRANCH   5   6
TORSDOF 2
ENDMDL
MODEL       72
REMARK 921   NORMALIZED FREE ENERGY PREDICTED BY IDOCK:   -2.92 KCAL/MOL
REMARK 922        TOTAL FREE ENERGY PREDICTED BY IDOCK:   -3.60 KCAL/MOL
REMARK 923 INTER-LIGAND FREE ENERGY PREDICTED BY IDOCK:   -4.19 KCAL/MOL
REMARK 924 INTRA-LIGAND FREE ENERGY PREDICTED BY IDOCK:    0.59 KCAL/MOL
REMARK 927      BINDING AFFINITY PREDICTED BY RF-SCORE:    0.00 PKD
ROOT
HETATM    1  O   UNL     1      -6.828   5.388  62.750  1.00  0.00    -0.032 OA 
HETATM    2  S   UNL     1      -7.527   6.212  63.946  1.00  0.00    -0.085 S  
HETATM    3  O   UNL     1      -8.588   5.348  64.420  1.00  0.00    -0.132 OA 
HETATM    4  O   UNL     1      -7.819   7.523  63.412  1.00  0.00    -0.130 OA 
HETATM    5  O   UNL     1      -6.353   6.318  65.071  1.00  0.00    -0.032 OA 
ENDROOT
BRANCH   5   6
HETATM    6  C   UNL     1      -6.537   7.066  66.206  1.00  0.00    -0.052 A  
HETATM    7  C   UNL     1      -5.697   7.014  67.316  1.00  0.00    -0.024 A  
HETATM    8  C   UNL     1      -5.949   7.821  68.429  1.00  0.00    -0.032 A  
HETATM    9  C   UNL     1      -7.039   8.707  68.455  1.00  0.00    -0.073 A  
HETATM   10  C   UNL     1      -7.265   9.577  69.701  1.00  0.00    -0.076 C  
HETATM   11  C   UNL     1      -7.877   8.741  67.328  1.00  0.00    -0.097 A  
HETATM   12  C   UNL     1      -8.507   9.196  70.516  1.00  0.00    -0.205 A  
HETATM   13  C   UNL     1      -7.616   7.947  66.206  1.00  0.00    -0.083 A  
HETATM   14  C   UNL     1      -7.112  11.085  69.466  1.00  0.00    -0.113 A  
HETATM   15  C   UNL     1      -8.355   8.762  71.838  1.00  0.00    -0.131 A  
HETATM   16  C   UNL     1      -8.000  11.802  68.652  1.00  0.00    -0.116 A  
HETATM   17  C   UNL     1      -9.480   8.404  72.575  1.00  0.00    -0.360 A  
HETATM   18  C   UNL     1      -7.847  13.173  68.440  1.00  0.00    -0.135 A  
HETATM   19  C   UNL     1      -6.835  13.870  69.091  1.00  0.00    -0.108 A  
HETATM   20  C   UNL     1     -10.733   8.489  71.985  1.00  0.00    -0.410 A  
HETATM   21  C   UNL     1      -5.934  13.176  69.900  1.00  0.00    -0.138 A  
HETATM   22  N   UNL     1      -9.733   9.291  69.935  1.00  0.00    -0.188 NA 
HETATM   23  C   UNL     1     -10.808   8.936  70.677  1.00  0.00    -0.239 A  
HETATM   24  C   UNL     1      -6.069  11.797  70.084  1.00  0.00    -0.147 A  
BRANCH  19  25
HETATM   25  O   UNL     1      -6.649  15.225  69.007  1.00  0.00    -0.108 OA 
HETATM   26  S   UNL     1      -6.689  16.004  67.574  1.00  0.00    -0.190 S  
HETATM   27  O   UNL     1      -5.358  15.973  67.005  1.00  0.00    -0.336 OA 
HETATM   28  O   UNL     1      -7.853  15.598  66.818  1.00  0.00    -0.228 OA 
HETATM   29  O   UNL     1      -6.921  17.533  68.024  1.00  0.00    -0.186 OA 
ENDBRANCH  19  25
ENDBRANCH   5   6
TORSDOF 2
ENDMDL
MODEL       73
REMARK 921   NORMALIZED FREE ENERGY PREDICTED BY IDOCK:   -2.89 KCAL/MOL
REMARK 922        TOTAL FREE ENERGY PREDICTED BY IDOCK:   -3.57 KCAL/MOL
REMARK 923 INTER-LIGAND FREE ENERGY PREDICTED BY IDOCK:   -3.77 KCAL/MOL
REMARK 924 INTRA-LIGAND FREE ENERGY PREDICTED BY IDOCK:    0.20 KCAL/MOL
REMARK 927      BINDING AFFINITY PREDICTED BY RF-SCORE:    0.00 PKD
ROOT
HETATM    1  O   UNL     1     -10.664  16.473  70.915  1.00  0.00     0.175 OA 
HETATM    2  S   UNL     1     -10.689  15.320  69.788  1.00  0.00    -0.288 S  
HETATM    3  O   UNL     1     -11.069  16.003  68.569  1.00  0.00    -0.310 OA 
HETATM    4  O   UNL     1     -11.501  14.252  70.325  1.00  0.00    -0.246 OA 
HETATM    5  O   UNL     1      -9.133  14.844  69.696  1.00  0.00    -0.054 OA 
ENDROOT
BRANCH   5   6
HETATM    6  C   UNL     1      -8.772  13.777  68.915  1.00  0.00     0.148 A  
HETATM    7  C   UNL     1      -7.458  13.476  68.568  1.00  0.00    -0.122 A  
HETATM    8  C   UNL     1      -7.175  12.359  67.777  1.00  0.00    -0.119 A  
HETATM    9  C   UNL     1      -8.197  11.510  67.323  1.00  0.00    -0.155 A  
HETATM   10  C   UNL     1      -7.831  10.291  66.463  1.00  0.00    -0.116 C  
HETATM   11  C   UNL     1      -9.518  11.833  67.679  1.00  0.00    -0.180 A  
HETATM   12  C   UNL     1      -8.282  10.395  65.001  1.00  0.00    -0.152 A  
HETATM   13  C   UNL     1      -9.801  12.941  68.486  1.00  0.00    -0.147 A  
HETATM   14  C   UNL     1      -8.130   8.934  67.113  1.00  0.00    -0.103 A  
HETATM   15  C   UNL     1      -7.321  10.389  63.984  1.00  0.00     0.013 A  
HETATM   16  C   UNL     1      -9.441   8.511  67.373  1.00  0.00    -0.188 A  
HETATM   17  C   UNL     1      -7.729  10.496  62.656  1.00  0.00    -0.146 A  
HETATM   18  C   UNL     1      -9.701   7.277  67.972  1.00  0.00    -0.157 A  
HETATM   19  C   UNL     1      -8.654   6.410  68.265  1.00  0.00    -0.114 A  
HETATM   20  C   UNL     1      -9.081  10.602  62.368  1.00  0.00    -0.322 A  
HETATM   21  C   UNL     1      -7.340   6.813  68.022  1.00  0.00    -0.097 A  
HETATM   22  N   UNL     1      -9.611  10.488  64.725  1.00  0.00    -0.257 NA 
HETATM   23  C   UNL     1      -9.976  10.590  63.426  1.00  0.00    -0.188 A  
HETATM   24  C   UNL     1      -7.079   8.064  67.454  1.00  0.00    -0.083 A  
BRANCH  19  25
HETATM   25  O   UNL     1      -8.812   5.151  68.782  1.00  0.00    -0.093 OA 
HETATM   26  S   UNL     1      -8.774   4.878  70.390  1.00  0.00    -0.101 S  
HETATM   27  O   UNL     1      -7.396   4.664  70.781  1.00  0.00    -0.050 OA 
HETATM   28  O   UNL     1      -9.625   5.824  71.077  1.00  0.00    -0.163 OA 
HETATM   29  O   UNL     1      -9.476   3.433  70.507  1.00  0.00    -0.155 OA 
ENDBRANCH  19  25
ENDBRANCH   5   6
TORSDOF 2
ENDMDL
MODEL       74
REMARK 921   NORMALIZED FREE ENERGY PREDICTED BY IDOCK:   -2.86 KCAL/MOL
REMARK 922        TOTAL FREE ENERGY PREDICTED BY IDOCK:   -3.53 KCAL/MOL
REMARK 923 INTER-LIGAND FREE ENERGY PREDICTED BY IDOCK:   -3.66 KCAL/MOL
REMARK 924 INTRA-LIGAND FREE ENERGY PREDICTED BY IDOCK:    0.13 KCAL/MOL
REMARK 927      BINDING AFFINITY PREDICTED BY RF-SCORE:    0.00 PKD
ROOT
HETATM    1  O   UNL     1      -7.929   1.711  65.548  1.00  0.00    -0.071 OA 
HETATM    2  S   UNL     1      -7.934   2.659  66.853  1.00  0.00    -0.077 S  
HETATM    3  O   UNL     1      -6.693   2.357  67.535  1.00  0.00    -0.038 OA 
HETATM    4  O   UNL     1      -9.209   2.442  67.500  1.00  0.00    -0.168 OA 
HETATM    5  O   UNL     1      -7.875   4.163  66.231  1.00  0.00    -0.093 OA 
ENDROOT
BRANCH   5   6
HETATM    6  C   UNL     1      -7.985   5.262  67.044  1.00  0.00    -0.101 A  
HETATM    7  C   UNL     1      -7.332   5.393  68.266  1.00  0.00    -0.072 A  
HETATM    8  C   UNL     1      -7.489   6.555  69.029  1.00  0.00    -0.095 A  
HETATM    9  C   UNL     1      -8.292   7.616  68.582  1.00  0.00    -0.129 A  
HETATM   10  C   UNL     1      -8.423   8.874  69.455  1.00  0.00    -0.124 C  
HETATM   11  C   UNL     1      -8.946   7.463  67.348  1.00  0.00    -0.124 A  
HETATM   12  C   UNL     1      -9.811   9.063  70.079  1.00  0.00    -0.184 A  
HETATM   13  C   UNL     1      -8.777   6.308  66.575  1.00  0.00    -0.131 A  
HETATM   14  C   UNL     1      -7.839  10.149  68.835  1.00  0.00    -0.100 A  
HETATM   15  C   UNL     1      -9.943   9.063  71.472  1.00  0.00    -0.391 A  
HETATM   16  C   UNL     1      -8.394  10.736  67.689  1.00  0.00    -0.119 A  
HETATM   17  C   UNL     1     -11.204   9.223  72.040  1.00  0.00    -0.205 A  
HETATM   18  C   UNL     1      -7.850  11.893  67.129  1.00  0.00    -0.168 A  
HETATM   19  C   UNL     1      -6.773  12.525  67.742  1.00  0.00    -0.123 A  
HETATM   20  C   UNL     1     -12.306   9.383  71.213  1.00  0.00    -0.422 A  
HETATM   21  C   UNL     1      -6.200  11.954  68.879  1.00  0.00    -0.064 A  
HETATM   22  N   UNL     1     -10.886   9.229  69.262  1.00  0.00    -0.195 NA 
HETATM   23  C   UNL     1     -12.097   9.382  69.843  1.00  0.00     0.468 A  
HETATM   24  C   UNL     1      -6.725  10.776  69.419  1.00  0.00    -0.097 A  
BRANCH  19  25
HETATM   25  O   UNL     1      -6.219  13.702  67.313  1.00  0.00    -0.313 OA 
HETATM   26  S   UNL     1      -6.337  15.072  68.191  1.00  0.00    -0.147 S  
HETATM   27  O   UNL     1      -7.571  15.737  67.830  1.00  0.00    -0.125 OA 
HETATM   28  O   UNL     1      -5.985  14.812  69.570  1.00  0.00    -0.097 OA 
HETATM   29  O   UNL     1      -5.166  15.982  67.563  1.00  0.00    -0.160 OA 
ENDBRANCH  19  25
ENDBRANCH   5   6
TORSDOF 2
ENDMDL
MODEL       75
REMARK 921   NORMALIZED FREE ENERGY PREDICTED BY IDOCK:   -2.80 KCAL/MOL
REMARK 922        TOTAL FREE ENERGY PREDICTED BY IDOCK:   -3.46 KCAL/MOL
REMARK 923 INTER-LIGAND FREE ENERGY PREDICTED BY IDOCK:   -3.57 KCAL/MOL
REMARK 924 INTRA-LIGAND FREE ENERGY PREDICTED BY IDOCK:    0.10 KCAL/MOL
REMARK 927      BINDING AFFINITY PREDICTED BY RF-SCORE:    0.00 PKD
ROOT
HETATM    1  O   UNL     1      -9.623  14.086  64.129  1.00  0.00     0.814 OA 
HETATM    2  S   UNL     1     -10.494  13.149  65.111  1.00  0.00    -0.332 S  
HETATM    3  O   UNL     1     -11.566  12.640  64.282  1.00  0.00    -0.330 OA 
HETATM    4  O   UNL     1     -10.776  13.949  66.282  1.00  0.00    -0.282 OA 
HETATM    5  O   UNL     1      -9.467  11.944  65.494  1.00  0.00    -0.220 OA 
ENDROOT
BRANCH   5   6
HETATM    6  C   UNL     1      -9.815  10.996  66.423  1.00  0.00    -0.212 A  
HETATM    7  C   UNL     1     -10.490   9.818  66.116  1.00  0.00    -0.128 A  
HETATM    8  C   UNL     1     -10.796   8.897  67.123  1.00  0.00    -0.069 A  
HETATM    9  C   UNL     1     -10.425   9.128  68.457  1.00  0.00    -0.238 A  
HETATM   10  C   UNL     1     -10.778   8.079  69.523  1.00  0.00    -0.185 C  
HETATM   11  C   UNL     1      -9.749  10.325  68.747  1.00  0.00    -0.178 A  
HETATM   12  C   UNL     1     -11.851   8.534  70.520  1.00  0.00    -0.014 A  
HETATM   13  C   UNL     1      -9.427  11.239  67.738  1.00  0.00    -0.173 A  
HETATM   14  C   UNL     1      -9.570   7.396  70.176  1.00  0.00    -0.165 A  
HETATM   15  C   UNL     1     -13.062   7.837  70.591  1.00  0.00     0.407 A  
HETATM   16  C   UNL     1      -8.671   8.101  70.990  1.00  0.00    -0.156 A  
HETATM   17  C   UNL     1     -14.042   8.256  71.487  1.00  0.00    -0.446 A  
HETATM   18  C   UNL     1      -7.571   7.470  71.573  1.00  0.00    -0.084 A  
HETATM   19  C   UNL     1      -7.382   6.102  71.406  1.00  0.00    -0.088 A  
HETATM   20  C   UNL     1     -13.797   9.356  72.295  1.00  0.00    -0.441 A  
HETATM   21  C   UNL     1      -8.259   5.382  70.595  1.00  0.00    -0.114 A  
HETATM   22  N   UNL     1     -11.600   9.607  71.318  1.00  0.00    -0.365 NA 
HETATM   23  C   UNL     1     -12.571   9.990  72.178  1.00  0.00    -0.189 A  
HETATM   24  C   UNL     1      -9.342   6.022  69.983  1.00  0.00    -0.170 A  
BRANCH  19  25
HETATM   25  O   UNL     1      -6.379   5.381  71.998  1.00  0.00    -0.036 OA 
HETATM   26  S   UNL     1      -6.699   4.178  73.052  1.00  0.00    -0.049 S  
HETATM   27  O   UNL     1      -6.813   4.755  74.376  1.00  0.00    -0.068 OA 
HETATM   28  O   UNL     1      -7.713   3.299  72.512  1.00  0.00    -0.056 OA 
HETATM   29  O   UNL     1      -5.314   3.358  73.066  1.00  0.00     0.000 OA 
ENDBRANCH  19  25
ENDBRANCH   5   6
TORSDOF 2
ENDMDL
MODEL       76
REMARK 921   NORMALIZED FREE ENERGY PREDICTED BY IDOCK:   -2.71 KCAL/MOL
REMARK 922        TOTAL FREE ENERGY PREDICTED BY IDOCK:   -3.36 KCAL/MOL
REMARK 923 INTER-LIGAND FREE ENERGY PREDICTED BY IDOCK:   -3.65 KCAL/MOL
REMARK 924 INTRA-LIGAND FREE ENERGY PREDICTED BY IDOCK:    0.29 KCAL/MOL
REMARK 927      BINDING AFFINITY PREDICTED BY RF-SCORE:    0.00 PKD
ROOT
HETATM    1  O   UNL     1     -11.199  16.547  63.739  1.00  0.00    -0.801 OA 
HETATM    2  S   UNL     1     -10.849  15.703  65.068  1.00  0.00    -0.404 S  
HETATM    3  O   UNL     1     -12.116  15.543  65.750  1.00  0.00     0.393 OA 
HETATM    4  O   UNL     1      -9.746  16.391  65.700  1.00  0.00    -0.492 OA 
HETATM    5  O   UNL     1     -10.347  14.267  64.484  1.00  0.00    -0.357 OA 
ENDROOT
BRANCH   5   6
HETATM    6  C   UNL     1      -9.842  13.307  65.324  1.00  0.00    -0.075 A  
HETATM    7  C   UNL     1      -8.837  13.542  66.259  1.00  0.00     0.227 A  
HETATM    8  C   UNL     1      -8.388  12.510  67.087  1.00  0.00    -0.179 A  
HETATM    9  C   UNL     1      -8.940  11.221  67.008  1.00  0.00    -0.154 A  
HETATM   10  C   UNL     1      -8.416  10.124  67.948  1.00  0.00    -0.118 C  
HETATM   11  C   UNL     1      -9.950  11.003  66.056  1.00  0.00    -0.285 A  
HETATM   12  C   UNL     1      -7.619   9.021  67.241  1.00  0.00    -0.088 A  
HETATM   13  C   UNL     1     -10.413  12.039  65.238  1.00  0.00    -0.323 A  
HETATM   14  C   UNL     1      -9.443   9.601  68.960  1.00  0.00    -0.168 A  
HETATM   15  C   UNL     1      -6.274   8.825  67.575  1.00  0.00    -0.052 A  
HETATM   16  C   UNL     1     -10.580   8.886  68.558  1.00  0.00    -0.183 A  
HETATM   17  C   UNL     1      -5.545   7.831  66.926  1.00  0.00    -0.032 A  
HETATM   18  C   UNL     1     -11.512   8.421  69.488  1.00  0.00     0.432 A  
HETATM   19  C   UNL     1     -11.292   8.607  70.848  1.00  0.00    -0.272 A  
HETATM   20  C   UNL     1      -6.169   7.052  65.963  1.00  0.00    -0.036 A  
HETATM   21  C   UNL     1     -10.171   9.323  71.271  1.00  0.00    -0.383 A  
HETATM   22  N   UNL     1      -8.239   8.253  66.305  1.00  0.00    -0.108 NA 
HETATM   23  C   UNL     1      -7.505   7.297  65.692  1.00  0.00    -0.085 A  
HETATM   24  C   UNL     1      -9.256   9.818  70.336  1.00  0.00    -0.169 A  
BRANCH  19  25
HETATM   25  O   UNL     1     -12.107   8.124  71.838  1.00  0.00    -0.290 OA 
HETATM   26  S   UNL     1     -13.723   8.339  71.793  1.00  0.00    -0.367 S  
HETATM   27  O   UNL     1     -14.029   9.609  72.417  1.00  0.00    -0.327 OA 
HETATM   28  O   UNL     1     -14.237   7.986  70.488  1.00  0.00     0.570 OA 
HETATM   29  O   UNL     1     -14.245   7.222  72.829  1.00  0.00     0.473 OA 
ENDBRANCH  19  25
ENDBRANCH   5   6
TORSDOF 2
ENDMDL
MODEL       77
REMARK 921   NORMALIZED FREE ENERGY PREDICTED BY IDOCK:   -2.62 KCAL/MOL
REMARK 922        TOTAL FREE ENERGY PREDICTED BY IDOCK:   -3.26 KCAL/MOL
REMARK 923 INTER-LIGAND FREE ENERGY PREDICTED BY IDOCK:   -3.34 KCAL/MOL
REMARK 924 INTRA-LIGAND FREE ENERGY PREDICTED BY IDOCK:    0.08 KCAL/MOL
REMARK 927      BINDING AFFINITY PREDICTED BY RF-SCORE:    0.00 PKD
ROOT
HETATM    1  O   UNL     1     -12.425  16.435  70.698  1.00  0.00     0.126 OA 
HETATM    2  S   UNL     1     -12.454  14.881  71.124  1.00  0.00    -0.361 S  
HETATM    3  O   UNL     1     -13.848  14.597  71.395  1.00  0.00    -0.387 OA 
HETATM    4  O   UNL     1     -11.451  14.729  72.155  1.00  0.00    -0.223 OA 
HETATM    5  O   UNL     1     -11.982  14.106  69.770  1.00  0.00    -0.297 OA 
ENDROOT
BRANCH   5   6
HETATM    6  C   UNL     1     -11.767  12.752  69.777  1.00  0.00    -0.282 A  
HETATM    7  C   UNL     1     -12.786  11.803  69.773  1.00  0.00     0.266 A  
HETATM    8  C   UNL     1     -12.479  10.439  69.768  1.00  0.00    -0.051 A  
HETATM    9  C   UNL     1     -11.148   9.992  69.754  1.00  0.00    -0.319 A  
HETATM   10  C   UNL     1     -10.867   8.481  69.740  1.00  0.00    -0.177 C  
HETATM   11  C   UNL     1     -10.135  10.965  69.763  1.00  0.00     0.165 A  
HETATM   12  C   UNL     1     -10.255   7.944  71.039  1.00  0.00    -0.197 A  
HETATM   13  C   UNL     1     -10.440  12.330  69.751  1.00  0.00     0.896 A  
HETATM   14  C   UNL     1     -10.179   7.969  68.469  1.00  0.00    -0.231 A  
HETATM   15  C   UNL     1     -10.956   6.989  71.785  1.00  0.00    -0.263 A  
HETATM   16  C   UNL     1      -8.869   8.342  68.134  1.00  0.00    -0.139 A  
HETATM   17  C   UNL     1     -10.407   6.509  72.971  1.00  0.00    -0.239 A  
HETATM   18  C   UNL     1      -8.255   7.875  66.970  1.00  0.00    -0.117 A  
HETATM   19  C   UNL     1      -8.919   6.972  66.146  1.00  0.00    -0.136 A  
HETATM   20  C   UNL     1      -9.174   6.985  73.390  1.00  0.00    -0.183 A  
HETATM   21  C   UNL     1     -10.226   6.593  66.455  1.00  0.00    -0.129 A  
HETATM   22  N   UNL     1      -9.040   8.407  71.439  1.00  0.00    -0.168 NA 
HETATM   23  C   UNL     1      -8.533   7.922  72.595  1.00  0.00    -0.150 A  
HETATM   24  C   UNL     1     -10.852   7.088  67.603  1.00  0.00    -0.312 A  
BRANCH  19  25
HETATM   25  O   UNL     1      -8.374   6.400  65.027  1.00  0.00    -0.140 OA 
HETATM   26  S   UNL     1      -7.488   7.271  63.969  1.00  0.00    -0.106 S  
HETATM   27  O   UNL     1      -8.389   7.863  63.003  1.00  0.00    -0.098 OA 
HETATM   28  O   UNL     1      -6.501   8.057  64.675  1.00  0.00    -0.055 OA 
HETATM   29  O   UNL     1      -6.697   6.124  63.162  1.00  0.00    -0.038 OA 
ENDBRANCH  19  25
ENDBRANCH   5   6
TORSDOF 2
ENDMDL
MODEL       78
REMARK 921   NORMALIZED FREE ENERGY PREDICTED BY IDOCK:   -2.13 KCAL/MOL
REMARK 922        TOTAL FREE ENERGY PREDICTED BY IDOCK:   -2.71 KCAL/MOL
REMARK 923 INTER-LIGAND FREE ENERGY PREDICTED BY IDOCK:   -2.56 KCAL/MOL
REMARK 924 INTRA-LIGAND FREE ENERGY PREDICTED BY IDOCK:   -0.15 KCAL/MOL
REMARK 927      BINDING AFFINITY PREDICTED BY RF-SCORE:    0.00 PKD
ROOT
HETATM    1  O   UNL     1     -13.014  13.595  62.673  1.00  0.00     0.136 OA 
HETATM    2  S   UNL     1     -12.482  12.264  63.410  1.00  0.00    -0.357 S  
HETATM    3  O   UNL     1     -11.828  11.500  62.369  1.00  0.00     1.157 OA 
HETATM    4  O   UNL     1     -13.615  11.724  64.128  1.00  0.00    -0.343 OA 
HETATM    5  O   UNL     1     -11.374  12.829  64.463  1.00  0.00    -0.307 OA 
ENDROOT
BRANCH   5   6
HETATM    6  C   UNL     1     -10.777  11.991  65.369  1.00  0.00    -0.287 A  
HETATM    7  C   UNL     1     -11.336  11.651  66.599  1.00  0.00    -0.338 A  
HETATM    8  C   UNL     1     -10.666  10.777  67.461  1.00  0.00    -0.312 A  
HETATM    9  C   UNL     1      -9.428  10.215  67.109  1.00  0.00    -0.185 A  
HETATM   10  C   UNL     1      -8.738   9.254  68.089  1.00  0.00    -0.125 C  
HETATM   11  C   UNL     1      -8.879  10.574  65.866  1.00  0.00    -0.180 A  
HETATM   12  C   UNL     1      -7.463   9.817  68.728  1.00  0.00    -0.075 A  
HETATM   13  C   UNL     1      -9.557  11.434  64.995  1.00  0.00    -0.250 A  
HETATM   14  C   UNL     1      -8.598   7.813  67.584  1.00  0.00    -0.123 A  
HETATM   15  C   UNL     1      -7.408   9.988  70.116  1.00  0.00    -0.171 A  
HETATM   16  C   UNL     1      -7.778   7.487  66.494  1.00  0.00    -0.097 A  
HETATM   17  C   UNL     1      -6.255  10.511  70.696  1.00  0.00    -0.065 A  
HETATM   18  C   UNL     1      -7.664   6.172  66.038  1.00  0.00    -0.092 A  
HETATM   19  C   UNL     1      -8.321   5.144  66.704  1.00  0.00    -0.108 A  
HETATM   20  C   UNL     1      -5.181  10.848  69.886  1.00  0.00    -0.044 A  
HETATM   21  C   UNL     1      -9.149   5.445  67.786  1.00  0.00    -0.111 A  
HETATM   22  N   UNL     1      -6.409  10.136  67.929  1.00  0.00    -0.060 NA 
HETATM   23  C   UNL     1      -5.304  10.642  68.522  1.00  0.00    -0.040 A  
HETATM   24  C   UNL     1      -9.289   6.767  68.221  1.00  0.00    -0.124 A  
BRANCH  19  25
HETATM   25  O   UNL     1      -8.212   3.817  66.380  1.00  0.00    -0.099 OA 
HETATM   26  S   UNL     1      -8.855   3.219  65.006  1.00  0.00    -0.134 S  
HETATM   27  O   UNL     1     -10.229   2.850  65.272  1.00  0.00     0.332 OA 
HETATM   28  O   UNL     1      -8.492   4.052  63.881  1.00  0.00    -0.091 OA 
HETATM   29  O   UNL     1      -8.067   1.824  64.839  1.00  0.00    -0.072 OA 
ENDBRANCH  19  25
ENDBRANCH   5   6
TORSDOF 2
ENDMDL
MODEL       79
REMARK 921   NORMALIZED FREE ENERGY PREDICTED BY IDOCK:   -1.96 KCAL/MOL
REMARK 922        TOTAL FREE ENERGY PREDICTED BY IDOCK:   -2.53 KCAL/MOL
REMARK 923 INTER-LIGAND FREE ENERGY PREDICTED BY IDOCK:   -2.92 KCAL/MOL
REMARK 924 INTRA-LIGAND FREE ENERGY PREDICTED BY IDOCK:    0.40 KCAL/MOL
REMARK 927      BINDING AFFINITY PREDICTED BY RF-SCORE:    0.00 PKD
ROOT
HETATM    1  O   UNL     1     -11.176   1.704  63.033  1.00  0.00    -0.222 OA 
HETATM    2  S   UNL     1     -10.069   2.775  63.510  1.00  0.00    -0.170 S  
HETATM    3  O   UNL     1     -10.013   3.750  62.442  1.00  0.00    -0.118 OA 
HETATM    4  O   UNL     1      -8.900   2.006  63.877  1.00  0.00    -0.088 OA 
HETATM    5  O   UNL     1     -10.734   3.444  64.839  1.00  0.00     0.185 OA 
ENDROOT
BRANCH   5   6
HETATM    6  C   UNL     1     -10.024   4.332  65.606  1.00  0.00    -0.224 A  
HETATM    7  C   UNL     1      -8.800   4.878  65.231  1.00  0.00    -0.152 A  
HETATM    8  C   UNL     1      -8.147   5.788  66.068  1.00  0.00    -0.110 A  
HETATM    9  C   UNL     1      -8.708   6.182  67.293  1.00  0.00    -0.108 A  
HETATM   10  C   UNL     1      -7.953   7.192  68.171  1.00  0.00    -0.119 C  
HETATM   11  C   UNL     1      -9.942   5.616  67.656  1.00  0.00    -0.177 A  
HETATM   12  C   UNL     1      -7.388   6.598  69.467  1.00  0.00    -0.091 A  
HETATM   13  C   UNL     1     -10.605   4.718  66.812  1.00  0.00    -0.064 A  
HETATM   14  C   UNL     1      -8.666   8.536  68.361  1.00  0.00    -0.143 A  
HETATM   15  C   UNL     1      -6.005   6.602  69.679  1.00  0.00    -0.019 A  
HETATM   16  C   UNL     1      -9.875   8.641  69.064  1.00  0.00    -0.184 A  
HETATM   17  C   UNL     1      -5.489   6.053  70.849  1.00  0.00    -0.017 A  
HETATM   18  C   UNL     1     -10.519   9.869  69.224  1.00  0.00    -0.240 A  
HETATM   19  C   UNL     1      -9.933  11.032  68.736  1.00  0.00    -0.207 A  
HETATM   20  C   UNL     1      -6.359   5.514  71.786  1.00  0.00    -0.043 A  
HETATM   21  C   UNL     1      -8.734  10.952  68.026  1.00  0.00    -0.132 A  
HETATM   22  N   UNL     1      -8.247   6.081  70.387  1.00  0.00    -0.114 NA 
HETATM   23  C   UNL     1      -7.716   5.554  71.514  1.00  0.00    -0.106 A  
HETATM   24  C   UNL     1      -8.108   9.716  67.837  1.00  0.00    -0.106 A  
BRANCH  19  25
HETATM   25  O   UNL     1     -10.448  12.290  68.908  1.00  0.00    -0.195 OA 
HETATM   26  S   UNL     1     -12.001  12.523  69.348  1.00  0.00    -0.209 S  
HETATM   27  O   UNL     1     -12.811  12.557  68.148  1.00  0.00     0.889 OA 
HETATM   28  O   UNL     1     -12.334  11.675  70.471  1.00  0.00    -0.343 OA 
HETATM   29  O   UNL     1     -11.980  14.041  69.886  1.00  0.00    -0.296 OA 
ENDBRANCH  19  25
ENDBRANCH   5   6
TORSDOF 2
ENDMDL
MODEL       80
REMARK 921   NORMALIZED FREE ENERGY PREDICTED BY IDOCK:   -0.83 KCAL/MOL
REMARK 922        TOTAL FREE ENERGY PREDICTED BY IDOCK:   -1.26 KCAL/MOL
REMARK 923 INTER-LIGAND FREE ENERGY PREDICTED BY IDOCK:   -1.44 KCAL/MOL
REMARK 924 INTRA-LIGAND FREE ENERGY PREDICTED BY IDOCK:    0.18 KCAL/MOL
REMARK 927      BINDING AFFINITY PREDICTED BY RF-SCORE:    0.00 PKD
ROOT
HETATM    1  O   UNL     1      -6.839   9.651  62.346  1.00  0.00    -0.098 OA 
HETATM    2  S   UNL     1      -7.329  10.497  63.629  1.00  0.00     0.178 S  
HETATM    3  O   UNL     1      -7.477  11.853  63.143  1.00  0.00     1.723 OA 
HETATM    4  O   UNL     1      -6.400  10.185  64.692  1.00  0.00    -0.122 OA 
HETATM    5  O   UNL     1      -8.792   9.865  63.965  1.00  0.00    -0.192 OA 
ENDROOT
BRANCH   5   6
HETATM    6  C   UNL     1      -9.483  10.254  65.084  1.00  0.00    -0.252 A  
HETATM    7  C   UNL     1     -10.869  10.372  65.141  1.00  0.00     0.309 A  
HETATM    8  C   UNL     1     -11.496  10.763  66.327  1.00  0.00     0.591 A  
HETATM    9  C   UNL     1     -10.754  11.034  67.488  1.00  0.00    -0.289 A  
HETATM   10  C   UNL     1     -11.493  11.452  68.768  1.00  0.00    -0.354 C  
HETATM   11  C   UNL     1      -9.356  10.913  67.410  1.00  0.00    -0.166 A  
HETATM   12  C   UNL     1     -11.267  12.913  69.176  1.00  0.00    -0.237 A  
HETATM   13  C   UNL     1      -8.728  10.505  66.227  1.00  0.00    -0.159 A  
HETATM   14  C   UNL     1     -11.380  10.456  69.929  1.00  0.00    -0.370 A  
HETATM   15  C   UNL     1     -12.356  13.789  69.224  1.00  0.00    -0.185 A  
HETATM   16  C   UNL     1     -10.159  10.202  70.570  1.00  0.00     0.044 A  
HETATM   17  C   UNL     1     -12.150  15.119  69.583  1.00  0.00    -0.336 A  
HETATM   18  C   UNL     1     -10.066   9.287  71.620  1.00  0.00    -0.232 A  
HETATM   19  C   UNL     1     -11.209   8.653  72.096  1.00  0.00    -0.367 A  
HETATM   20  C   UNL     1     -10.868  15.548  69.889  1.00  0.00    -0.311 A  
HETATM   21  C   UNL     1     -12.434   8.885  71.469  1.00  0.00    -0.380 A  
HETATM   22  N   UNL     1     -10.008  13.325  69.485  1.00  0.00     0.739 NA 
HETATM   23  C   UNL     1      -9.839  14.622  69.829  1.00  0.00     0.281 A  
HETATM   24  C   UNL     1     -12.519   9.775  70.394  1.00  0.00    -0.031 A  
BRANCH  19  25
HETATM   25  O   UNL     1     -11.233   7.800  73.167  1.00  0.00    -0.402 OA 
HETATM   26  S   UNL     1     -10.908   6.210  72.999  1.00  0.00    -0.250 S  
HETATM   27  O   UNL     1     -12.140   5.528  72.666  1.00  0.00    -0.199 OA 
HETATM   28  O   UNL     1      -9.700   6.027  72.225  1.00  0.00    -0.157 OA 
HETATM   29  O   UNL     1     -10.576   5.768  74.512  1.00  0.00    -0.218 OA 
ENDBRANCH  19  25
ENDBRANCH   5   6
TORSDOF 2
ENDMDL
MODEL       81
REMARK 921   NORMALIZED FREE ENERGY PREDICTED BY IDOCK:   -0.75 KCAL/MOL
REMARK 922        TOTAL FREE ENERGY PREDICTED BY IDOCK:   -1.18 KCAL/MOL
REMARK 923 INTER-LIGAND FREE ENERGY PREDICTED BY IDOCK:   -1.00 KCAL/MOL
REMARK 924 INTRA-LIGAND FREE ENERGY PREDICTED BY IDOCK:   -0.18 KCAL/MOL
REMARK 927      BINDING AFFINITY PREDICTED BY RF-SCORE:    0.00 PKD
ROOT
HETATM    1  O   UNL     1     -12.856  13.814  63.245  1.00  0.00    -0.571 OA 
HETATM    2  S   UNL     1     -12.395  12.579  64.174  1.00  0.00    -0.454 S  
HETATM    3  O   UNL     1     -11.633  11.718  63.294  1.00  0.00    -0.366 OA 
HETATM    4  O   UNL     1     -13.593  12.100  64.827  1.00  0.00    -0.185 OA 
HETATM    5  O   UNL     1     -11.405  13.273  65.266  1.00  0.00    -0.292 OA 
ENDROOT
BRANCH   5   6
HETATM    6  C   UNL     1     -10.900  12.548  66.314  1.00  0.00    -0.268 A  
HETATM    7  C   UNL     1     -11.346  12.667  67.628  1.00  0.00    -0.362 A  
HETATM    8  C   UNL     1     -10.785  11.879  68.637  1.00  0.00    -0.266 A  
HETATM    9  C   UNL     1      -9.774  10.946  68.356  1.00  0.00    -0.179 A  
HETATM   10  C   UNL     1      -9.198  10.099  69.501  1.00  0.00    -0.223 C  
HETATM   11  C   UNL     1      -9.334  10.845  67.025  1.00  0.00    -0.180 A  
HETATM   12  C   UNL     1      -7.750  10.445  69.870  1.00  0.00    -0.069 A  
HETATM   13  C   UNL     1      -9.907  11.620  66.010  1.00  0.00    -0.258 A  
HETATM   14  C   UNL     1      -9.469   8.594  69.385  1.00  0.00    -0.161 A  
HETATM   15  C   UNL     1      -7.464  10.920  71.155  1.00  0.00     3.364 A  
HETATM   16  C   UNL     1      -8.906   7.817  68.362  1.00  0.00    -0.130 A  
HETATM   17  C   UNL     1      -6.152  11.246  71.489  1.00  0.00     1.120 A  
HETATM   18  C   UNL     1      -9.166   6.449  68.262  1.00  0.00    -0.112 A  
HETATM   19  C   UNL     1      -9.946   5.816  69.224  1.00  0.00    -0.182 A  
HETATM   20  C   UNL     1      -5.152  11.090  70.541  1.00  0.00    -0.083 A  
HETATM   21  C   UNL     1     -10.522   6.570  70.246  1.00  0.00    -0.261 A  
HETATM   22  N   UNL     1      -6.772  10.280  68.939  1.00  0.00    -0.056 NA 
HETATM   23  C   UNL     1      -5.508  10.605  69.293  1.00  0.00    -0.037 A  
HETATM   24  C   UNL     1     -10.289   7.947  70.325  1.00  0.00    -0.212 A  
BRANCH  19  25
HETATM   25  O   UNL     1     -10.195   4.469  69.255  1.00  0.00    -0.122 OA 
HETATM   26  S   UNL     1      -9.082   3.383  68.760  1.00  0.00    -0.158 S  
HETATM   27  O   UNL     1      -9.239   3.192  67.333  1.00  0.00    -0.163 OA 
HETATM   28  O   UNL     1      -7.797   3.681  69.354  1.00  0.00    -0.052 OA 
HETATM   29  O   UNL     1      -9.614   2.020  69.431  1.00  0.00    -0.083 OA 
ENDBRANCH  19  25
ENDBRANCH   5   6
TORSDOF 2
ENDMDL
MODEL       82
REMARK 921   NORMALIZED FREE ENERGY PREDICTED BY IDOCK:   -0.65 KCAL/MOL
REMARK 922        TOTAL FREE ENERGY PREDICTED BY IDOCK:   -1.06 KCAL/MOL
REMARK 923 INTER-LIGAND FREE ENERGY PREDICTED BY IDOCK:   -1.33 KCAL/MOL
REMARK 924 INTRA-LIGAND FREE ENERGY PREDICTED BY IDOCK:    0.27 KCAL/MOL
REMARK 927      BINDING AFFINITY PREDICTED BY RF-SCORE:    0.00 PKD
ROOT
HETATM    1  O   UNL     1      -6.365   8.136  73.887  1.00  0.00    -0.100 OA 
HETATM    2  S   UNL     1      -6.458   8.803  72.423  1.00  0.00     0.033 S  
HETATM    3  O   UNL     1      -5.133   8.648  71.860  1.00  0.00    -0.034 OA 
HETATM    4  O   UNL     1      -7.034  10.116  72.617  1.00  0.00     1.588 OA 
HETATM    5  O   UNL     1      -7.513   7.844  71.634  1.00  0.00    -0.064 OA 
ENDROOT
BRANCH   5   6
HETATM    6  C   UNL     1      -7.946   8.167  70.373  1.00  0.00    -0.099 A  
HETATM    7  C   UNL     1      -8.949   7.479  69.696  1.00  0.00    -0.141 A  
HETATM    8  C   UNL     1      -9.339   7.882  68.415  1.00  0.00    -0.140 A  
HETATM    9  C   UNL     1      -8.745   8.989  67.787  1.00  0.00    -0.125 A  
HETATM   10  C   UNL     1      -9.218   9.395  66.383  1.00  0.00    -0.215 C  
HETATM   11  C   UNL     1      -7.732   9.667  68.486  1.00  0.00    -0.081 A  
HETATM   12  C   UNL     1      -8.184   9.149  65.277  1.00  0.00    -0.134 A  
HETATM   13  C   UNL     1      -7.352   9.275  69.774  1.00  0.00    -0.072 A  
HETATM   14  C   UNL     1      -9.899  10.767  66.307  1.00  0.00    -0.262 A  
HETATM   15  C   UNL     1      -8.485   8.257  64.242  1.00  0.00     0.001 A  
HETATM   16  C   UNL     1      -9.196  11.956  66.549  1.00  0.00    -0.216 A  
HETATM   17  C   UNL     1      -7.543   8.024  63.243  1.00  0.00    -0.130 A  
HETATM   18  C   UNL     1      -9.828  13.200  66.484  1.00  0.00    -0.265 A  
HETATM   19  C   UNL     1     -11.166  13.283  66.112  1.00  0.00    -0.296 A  
HETATM   20  C   UNL     1      -6.325   8.685  63.293  1.00  0.00    -0.086 A  
HETATM   21  C   UNL     1     -11.887  12.112  65.874  1.00  0.00    -0.342 A  
HETATM   22  N   UNL     1      -6.996   9.808  65.326  1.00  0.00    -0.105 NA 
HETATM   23  C   UNL     1      -6.101   9.561  64.342  1.00  0.00    -0.083 A  
HETATM   24  C   UNL     1     -11.261  10.866  65.973  1.00  0.00     0.144 A  
BRANCH  19  25
HETATM   25  O   UNL     1     -11.852  14.457  65.947  1.00  0.00    -0.368 OA 
HETATM   26  S   UNL     1     -11.993  15.166  64.484  1.00  0.00    -0.218 S  
HETATM   27  O   UNL     1     -10.844  16.024  64.284  1.00  0.00    -0.415 OA 
HETATM   28  O   UNL     1     -12.400  14.191  63.496  1.00  0.00    -0.738 OA 
HETATM   29  O   UNL     1     -13.234  16.166  64.708  1.00  0.00     1.626 OA 
ENDBRANCH  19  25
ENDBRANCH   5   6
TORSDOF 2
ENDMDL
MODEL       83
REMARK 921   NORMALIZED FREE ENERGY PREDICTED BY IDOCK:   -0.65 KCAL/MOL
REMARK 922        TOTAL FREE ENERGY PREDICTED BY IDOCK:   -1.06 KCAL/MOL
REMARK 923 INTER-LIGAND FREE ENERGY PREDICTED BY IDOCK:   -0.77 KCAL/MOL
REMARK 924 INTRA-LIGAND FREE ENERGY PREDICTED BY IDOCK:   -0.30 KCAL/MOL
REMARK 927      BINDING AFFINITY PREDICTED BY RF-SCORE:    0.00 PKD
ROOT
HETATM    1  O   UNL     1     -11.461  11.764  64.620  1.00  0.00    -0.304 OA 
HETATM    2  S   UNL     1     -10.516  10.895  65.595  1.00  0.00    -0.167 S  
HETATM    3  O   UNL     1     -11.358  10.557  66.723  1.00  0.00    -0.153 OA 
HETATM    4  O   UNL     1      -9.307  11.669  65.775  1.00  0.00    -0.229 OA 
HETATM    5  O   UNL     1     -10.195   9.558  64.721  1.00  0.00     0.327 OA 
ENDROOT
BRANCH   5   6
HETATM    6  C   UNL     1      -9.307   8.618  65.178  1.00  0.00     0.239 A  
HETATM    7  C   UNL     1      -7.924   8.767  65.132  1.00  0.00    -0.125 A  
HETATM    8  C   UNL     1      -7.089   7.764  65.632  1.00  0.00    -0.060 A  
HETATM    9  C   UNL     1      -7.617   6.594  66.202  1.00  0.00    -0.086 A  
HETATM   10  C   UNL     1      -6.654   5.527  66.745  1.00  0.00    -0.056 C  
HETATM   11  C   UNL     1      -9.015   6.460  66.235  1.00  0.00    -0.166 A  
HETATM   12  C   UNL     1      -6.628   4.230  65.927  1.00  0.00    -0.041 A  
HETATM   13  C   UNL     1      -9.853   7.471  65.750  1.00  0.00     0.633 A  
HETATM   14  C   UNL     1      -6.731   5.306  68.261  1.00  0.00    -0.054 A  
HETATM   15  C   UNL     1      -5.437   3.833  65.308  1.00  0.00    -0.010 A  
HETATM   16  C   UNL     1      -7.871   4.767  68.874  1.00  0.00    -0.076 A  
HETATM   17  C   UNL     1      -5.414   2.662  64.555  1.00  0.00    -0.009 A  
HETATM   18  C   UNL     1      -7.933   4.577  70.256  1.00  0.00    -0.063 A  
HETATM   19  C   UNL     1      -6.826   4.864  71.048  1.00  0.00    -0.039 A  
HETATM   20  C   UNL     1      -6.573   1.910  64.435  1.00  0.00    -0.023 A  
HETATM   21  C   UNL     1      -5.684   5.409  70.461  1.00  0.00    -0.020 A  
HETATM   22  N   UNL     1      -7.765   3.491  65.822  1.00  0.00    -0.081 NA 
HETATM   23  C   UNL     1      -7.712   2.360  65.083  1.00  0.00    -0.077 A  
HETATM   24  C   UNL     1      -5.636   5.630  69.081  1.00  0.00    -0.008 A  
BRANCH  19  25
HETATM   25  O   UNL     1      -6.763   4.642  72.399  1.00  0.00    -0.046 OA 
HETATM   26  S   UNL     1      -6.414   3.168  73.005  1.00  0.00    -0.018 S  
HETATM   27  O   UNL     1      -7.650   2.424  73.129  1.00  0.00    -0.040 OA 
HETATM   28  O   UNL     1      -5.254   2.618  72.340  1.00  0.00     0.000 OA 
HETATM   29  O   UNL     1      -5.977   3.516  74.516  1.00  0.00    -0.014 OA 
ENDBRANCH  19  25
ENDBRANCH   5   6
TORSDOF 2
ENDMDL
MODEL       84
REMARK 921   NORMALIZED FREE ENERGY PREDICTED BY IDOCK:   -0.56 KCAL/MOL
REMARK 922        TOTAL FREE ENERGY PREDICTED BY IDOCK:   -0.97 KCAL/MOL
REMARK 923 INTER-LIGAND FREE ENERGY PREDICTED BY IDOCK:   -0.82 KCAL/MOL
REMARK 924 INTRA-LIGAND FREE ENERGY PREDICTED BY IDOCK:   -0.14 KCAL/MOL
REMARK 927      BINDING AFFINITY PREDICTED BY RF-SCORE:    0.00 PKD
ROOT
HETATM    1  O   UNL     1     -13.007  15.949  69.436  1.00  0.00     0.287 OA 
HETATM    2  S   UNL     1     -11.717  15.011  69.198  1.00  0.00    -0.321 S  
HETATM    3  O   UNL     1     -10.754  15.447  70.187  1.00  0.00    -0.286 OA 
HETATM    4  O   UNL     1     -11.419  15.092  67.785  1.00  0.00    -0.323 OA 
HETATM    5  O   UNL     1     -12.258  13.519  69.568  1.00  0.00    -0.304 OA 
ENDROOT
BRANCH   5   6
HETATM    6  C   UNL     1     -11.465  12.418  69.370  1.00  0.00    -0.271 A  
HETATM    7  C   UNL     1     -10.094  12.478  69.135  1.00  0.00     0.293 A  
HETATM    8  C   UNL     1      -9.357  11.304  68.955  1.00  0.00    -0.016 A  
HETATM    9  C   UNL     1      -9.970  10.042  69.017  1.00  0.00    -0.203 A  
HETATM   10  C   UNL     1      -9.111   8.783  68.821  1.00  0.00    -0.138 C  
HETATM   11  C   UNL     1     -11.355  10.003  69.250  1.00  0.00    -0.169 A  
HETATM   12  C   UNL     1      -9.389   8.032  67.514  1.00  0.00    -0.147 A  
HETATM   13  C   UNL     1     -12.092  11.176  69.448  1.00  0.00    -0.396 A  
HETATM   14  C   UNL     1      -9.014   7.875  70.053  1.00  0.00    -0.145 A  
HETATM   15  C   UNL     1      -8.365   7.897  66.569  1.00  0.00    -0.127 A  
HETATM   16  C   UNL     1     -10.127   7.188  70.557  1.00  0.00    -0.202 A  
HETATM   17  C   UNL     1      -8.618   7.225  65.376  1.00  0.00    -0.047 A  
HETATM   18  C   UNL     1     -10.028   6.370  71.684  1.00  0.00    -0.195 A  
HETATM   19  C   UNL     1      -8.794   6.172  72.295  1.00  0.00    -0.137 A  
HETATM   20  C   UNL     1      -9.881   6.699  65.149  1.00  0.00     1.739 A  
HETATM   21  C   UNL     1      -7.674   6.851  71.816  1.00  0.00    -0.095 A  
HETATM   22  N   UNL     1     -10.626   7.509  67.301  1.00  0.00    -0.317 NA 
HETATM   23  C   UNL     1     -10.842   6.862  66.133  1.00  0.00     1.210 A  
HETATM   24  C   UNL     1      -7.782   7.698  70.708  1.00  0.00    -0.085 A  
BRANCH  19  25
HETATM   25  O   UNL     1      -8.581   5.331  73.356  1.00  0.00    -0.116 OA 
HETATM   26  S   UNL     1      -8.615   3.710  73.181  1.00  0.00    -0.090 S  
HETATM   27  O   UNL     1      -9.984   3.265  73.341  1.00  0.00    -0.108 OA 
HETATM   28  O   UNL     1      -7.812   3.314  72.045  1.00  0.00    -0.056 OA 
HETATM   29  O   UNL     1      -7.849   3.208  74.505  1.00  0.00    -0.059 OA 
ENDBRANCH  19  25
ENDBRANCH   5   6
TORSDOF 2
ENDMDL
MODEL       85
REMARK 921   NORMALIZED FREE ENERGY PREDICTED BY IDOCK:   -0.32 KCAL/MOL
REMARK 922        TOTAL FREE ENERGY PREDICTED BY IDOCK:   -0.69 KCAL/MOL
REMARK 923 INTER-LIGAND FREE ENERGY PREDICTED BY IDOCK:   -0.65 KCAL/MOL
REMARK 924 INTRA-LIGAND FREE ENERGY PREDICTED BY IDOCK:   -0.04 KCAL/MOL
REMARK 927      BINDING AFFINITY PREDICTED BY RF-SCORE:    0.00 PKD
ROOT
HETATM    1  O   UNL     1     -11.491   3.046  62.776  1.00  0.00    -0.060 OA 
HETATM    2  S   UNL     1     -10.393   3.922  63.566  1.00  0.00    -0.154 S  
HETATM    3  O   UNL     1     -10.810   5.296  63.378  1.00  0.00     1.894 OA 
HETATM    4  O   UNL     1      -9.103   3.467  63.096  1.00  0.00    -0.092 OA 
HETATM    5  O   UNL     1     -10.604   3.486  65.121  1.00  0.00     0.165 OA 
ENDROOT
BRANCH   5   6
HETATM    6  C   UNL     1      -9.756   3.940  66.098  1.00  0.00    -0.160 A  
HETATM    7  C   UNL     1      -8.425   3.550  66.216  1.00  0.00    -0.112 A  
HETATM    8  C   UNL     1      -7.623   4.072  67.235  1.00  0.00    -0.073 A  
HETATM    9  C   UNL     1      -8.130   5.006  68.154  1.00  0.00    -0.086 A  
HETATM   10  C   UNL     1      -7.204   5.555  69.250  1.00  0.00    -0.065 C  
HETATM   11  C   UNL     1      -9.477   5.384  68.021  1.00  0.00    -0.138 A  
HETATM   12  C   UNL     1      -7.558   5.081  70.665  1.00  0.00    -0.070 A  
HETATM   13  C   UNL     1     -10.276   4.875  66.991  1.00  0.00    -0.233 A  
HETATM   14  C   UNL     1      -6.912   7.057  69.149  1.00  0.00    -0.078 A  
HETATM   15  C   UNL     1      -6.629   4.323  71.387  1.00  0.00    -0.026 A  
HETATM   16  C   UNL     1      -7.913   8.020  69.340  1.00  0.00    -0.116 A  
HETATM   17  C   UNL     1      -6.953   3.882  72.668  1.00  0.00    -0.047 A  
HETATM   18  C   UNL     1      -7.636   9.385  69.238  1.00  0.00    -0.081 A  
HETATM   19  C   UNL     1      -6.335   9.817  69.007  1.00  0.00    -0.041 A  
HETATM   20  C   UNL     1      -8.189   4.208  73.205  1.00  0.00    -0.090 A  
HETATM   21  C   UNL     1      -5.324   8.877  68.807  1.00  0.00    -0.033 A  
HETATM   22  N   UNL     1      -8.768   5.413  71.190  1.00  0.00    -0.128 NA 
HETATM   23  C   UNL     1      -9.053   4.971  72.436  1.00  0.00    -0.133 A  
HETATM   24  C   UNL     1      -5.609   7.509  68.874  1.00  0.00    -0.022 A  
BRANCH  19  25
HETATM   25  O   UNL     1      -5.951  11.132  68.966  1.00  0.00    -0.040 OA 
HETATM   26  S   UNL     1      -6.438  12.126  67.768  1.00  0.00    -0.110 S  
HETATM   27  O   UNL     1      -5.498  12.011  66.673  1.00  0.00    -0.307 OA 
HETATM   28  O   UNL     1      -7.865  12.002  67.566  1.00  0.00    -0.136 OA 
HETATM   29  O   UNL     1      -6.171  13.582  68.403  1.00  0.00    -0.078 OA 
ENDBRANCH  19  25
ENDBRANCH   5   6
TORSDOF 2
ENDMDL
MODEL       86
REMARK 921   NORMALIZED FREE ENERGY PREDICTED BY IDOCK:   -0.01 KCAL/MOL
REMARK 922        TOTAL FREE ENERGY PREDICTED BY IDOCK:   -0.35 KCAL/MOL
REMARK 923 INTER-LIGAND FREE ENERGY PREDICTED BY IDOCK:   -0.76 KCAL/MOL
REMARK 924 INTRA-LIGAND FREE ENERGY PREDICTED BY IDOCK:    0.41 KCAL/MOL
REMARK 927      BINDING AFFINITY PREDICTED BY RF-SCORE:    0.00 PKD
ROOT
HETATM    1  O   UNL     1     -13.506   7.970  72.155  1.00  0.00    -0.262 OA 
HETATM    2  S   UNL     1     -12.334   8.303  71.098  1.00  0.00    -0.142 S  
HETATM    3  O   UNL     1     -12.201   7.100  70.303  1.00  0.00    -0.111 OA 
HETATM    4  O   UNL     1     -11.223   8.805  71.877  1.00  0.00    -0.322 OA 
HETATM    5  O   UNL     1     -12.966   9.501  70.194  1.00  0.00     0.407 OA 
ENDROOT
BRANCH   5   6
HETATM    6  C   UNL     1     -12.206  10.140  69.248  1.00  0.00     0.419 A  
HETATM    7  C   UNL     1     -12.724  11.008  68.291  1.00  0.00     2.257 A  
HETATM    8  C   UNL     1     -11.877  11.629  67.368  1.00  0.00    -0.170 A  
HETATM    9  C   UNL     1     -10.490  11.405  67.388  1.00  0.00    -0.239 A  
HETATM   10  C   UNL     1      -9.603  12.120  66.358  1.00  0.00    -0.243 C  
HETATM   11  C   UNL     1      -9.988  10.522  68.359  1.00  0.00    -0.177 A  
HETATM   12  C   UNL     1      -8.990  11.188  65.305  1.00  0.00    -0.121 A  
HETATM   13  C   UNL     1     -10.832   9.913  69.293  1.00  0.00    -0.255 A  
HETATM   14  C   UNL     1      -8.611  13.126  66.953  1.00  0.00    -0.118 A  
HETATM   15  C   UNL     1      -9.313  11.371  63.955  1.00  0.00    -0.081 A  
HETATM   16  C   UNL     1      -7.547  12.722  67.772  1.00  0.00    -0.141 A  
HETATM   17  C   UNL     1      -8.766  10.519  62.999  1.00  0.00    -0.207 A  
HETATM   18  C   UNL     1      -6.655  13.648  68.315  1.00  0.00    -0.108 A  
HETATM   19  C   UNL     1      -6.771  14.997  67.996  1.00  0.00    -0.145 A  
HETATM   20  C   UNL     1      -7.908   9.507  63.403  1.00  0.00    -0.132 A  
HETATM   21  C   UNL     1      -7.826  15.423  67.190  1.00  0.00    -0.249 A  
HETATM   22  N   UNL     1      -8.140  10.205  65.706  1.00  0.00    -0.136 NA 
HETATM   23  C   UNL     1      -7.626   9.393  64.755  1.00  0.00    -0.111 A  
HETATM   24  C   UNL     1      -8.740  14.499  66.675  1.00  0.00    -0.162 A  
BRANCH  19  25
HETATM   25  O   UNL     1      -5.902  15.969  68.417  1.00  0.00    -0.099 OA 
HETATM   26  S   UNL     1      -6.434  17.410  68.965  1.00  0.00    -0.236 S  
HETATM   27  O   UNL     1      -6.587  18.298  67.831  1.00  0.00    -0.198 OA 
HETATM   28  O   UNL     1      -7.492  17.216  69.931  1.00  0.00     0.502 OA 
HETATM   29  O   UNL     1      -5.152  17.965  69.766  1.00  0.00    -0.178 OA 
ENDBRANCH  19  25
ENDBRANCH   5   6
TORSDOF 2
ENDMDL
MODEL       87
REMARK 921   NORMALIZED FREE ENERGY PREDICTED BY IDOCK:    0.03 KCAL/MOL
REMARK 922        TOTAL FREE ENERGY PREDICTED BY IDOCK:   -0.30 KCAL/MOL
REMARK 923 INTER-LIGAND FREE ENERGY PREDICTED BY IDOCK:   -0.22 KCAL/MOL
REMARK 924 INTRA-LIGAND FREE ENERGY PREDICTED BY IDOCK:   -0.08 KCAL/MOL
REMARK 927      BINDING AFFINITY PREDICTED BY RF-SCORE:    0.00 PKD
ROOT
HETATM    1  O   UNL     1     -13.376  16.199  71.757  1.00  0.00    -0.217 OA 
HETATM    2  S   UNL     1     -12.441  15.097  71.041  1.00  0.00    -0.396 S  
HETATM    3  O   UNL     1     -11.154  15.226  71.691  1.00  0.00    -0.356 OA 
HETATM    4  O   UNL     1     -12.581  15.317  69.619  1.00  0.00    -0.187 OA 
HETATM    5  O   UNL     1     -13.135  13.683  71.456  1.00  0.00    -0.344 OA 
ENDROOT
BRANCH   5   6
HETATM    6  C   UNL     1     -12.683  12.500  70.929  1.00  0.00    -0.182 A  
HETATM    7  C   UNL     1     -13.514  11.519  70.394  1.00  0.00     1.231 A  
HETATM    8  C   UNL     1     -12.970  10.346  69.864  1.00  0.00     0.250 A  
HETATM    9  C   UNL     1     -11.583  10.130  69.845  1.00  0.00    -0.290 A  
HETATM   10  C   UNL     1     -11.037   8.826  69.242  1.00  0.00     0.096 C  
HETATM   11  C   UNL     1     -10.761  11.129  70.393  1.00  0.00     0.721 A  
HETATM   12  C   UNL     1     -10.425   7.868  70.271  1.00  0.00    -0.225 A  
HETATM   13  C   UNL     1     -11.303  12.312  70.909  1.00  0.00     1.628 A  
HETATM   14  C   UNL     1     -10.188   9.010  67.978  1.00  0.00    -0.260 A  
HETATM   15  C   UNL     1     -10.991   6.600  70.451  1.00  0.00    -0.341 A  
HETATM   16  C   UNL     1      -8.947   9.661  68.008  1.00  0.00    -0.122 A  
HETATM   17  C   UNL     1     -10.443   5.733  71.393  1.00  0.00    -0.296 A  
HETATM   18  C   UNL     1      -8.186   9.829  66.849  1.00  0.00    -0.117 A  
HETATM   19  C   UNL     1      -8.624   9.290  65.644  1.00  0.00    -0.153 A  
HETATM   20  C   UNL     1      -9.344   6.142  72.132  1.00  0.00    -0.155 A  
HETATM   21  C   UNL     1      -9.860   8.645  65.589  1.00  0.00     0.212 A  
HETATM   22  N   UNL     1      -9.340   8.270  70.985  1.00  0.00    -0.155 NA 
HETATM   23  C   UNL     1      -8.830   7.406  71.893  1.00  0.00    -0.114 A  
HETATM   24  C   UNL     1     -10.637   8.508  66.744  1.00  0.00    -0.227 A  
BRANCH  19  25
HETATM   25  O   UNL     1      -7.916   9.337  64.473  1.00  0.00    -0.115 OA 
HETATM   26  S   UNL     1      -8.361  10.312  63.243  1.00  0.00    -0.171 S  
HETATM   27  O   UNL     1      -9.316   9.599  62.422  1.00  0.00    -0.271 OA 
HETATM   28  O   UNL     1      -8.624  11.646  63.736  1.00  0.00     0.477 OA 
HETATM   29  O   UNL     1      -7.016  10.386  62.362  1.00  0.00    -0.134 OA 
ENDBRANCH  19  25
ENDBRANCH   5   6
TORSDOF 2
ENDMDL
MODEL       88
REMARK 921   NORMALIZED FREE ENERGY PREDICTED BY IDOCK:    0.49 KCAL/MOL
REMARK 922        TOTAL FREE ENERGY PREDICTED BY IDOCK:    0.21 KCAL/MOL
REMARK 923 INTER-LIGAND FREE ENERGY PREDICTED BY IDOCK:   -0.30 KCAL/MOL
REMARK 924 INTRA-LIGAND FREE ENERGY PREDICTED BY IDOCK:    0.51 KCAL/MOL
REMARK 927      BINDING AFFINITY PREDICTED BY RF-SCORE:    0.00 PKD
ROOT
HETATM    1  O   UNL     1      -5.203   5.545  62.481  1.00  0.00    -0.012 OA 
HETATM    2  S   UNL     1      -6.153   5.257  63.752  1.00  0.00    -0.022 S  
HETATM    3  O   UNL     1      -6.059   3.829  63.968  1.00  0.00    -0.017 OA 
HETATM    4  O   UNL     1      -7.422   5.882  63.453  1.00  0.00    -0.058 OA 
HETATM    5  O   UNL     1      -5.414   6.053  64.967  1.00  0.00    -0.016 OA 
ENDROOT
BRANCH   5   6
HETATM    6  C   UNL     1      -5.999   6.141  66.204  1.00  0.00    -0.028 A  
HETATM    7  C   UNL     1      -5.355   6.637  67.335  1.00  0.00    -0.008 A  
HETATM    8  C   UNL     1      -6.029   6.705  68.558  1.00  0.00    -0.022 A  
HETATM    9  C   UNL     1      -7.366   6.289  68.676  1.00  0.00    -0.086 A  
HETATM   10  C   UNL     1      -8.062   6.393  70.042  1.00  0.00    -0.121 C  
HETATM   11  C   UNL     1      -7.996   5.788  67.525  1.00  0.00    -0.102 A  
HETATM   12  C   UNL     1      -8.359   5.040  70.699  1.00  0.00    -0.106 A  
HETATM   13  C   UNL     1      -7.328   5.735  66.296  1.00  0.00    -0.078 A  
HETATM   14  C   UNL     1      -9.235   7.381  70.090  1.00  0.00    -0.151 A  
HETATM   15  C   UNL     1      -7.767   4.729  71.929  1.00  0.00    -0.098 A  
HETATM   16  C   UNL     1     -10.416   7.164  69.365  1.00  0.00    -0.232 A  
HETATM   17  C   UNL     1      -8.027   3.497  72.522  1.00  0.00    -0.069 A  
HETATM   18  C   UNL     1     -11.474   8.074  69.411  1.00  0.00     0.497 A  
HETATM   19  C   UNL     1     -11.397   9.191  70.237  1.00  0.00    -0.188 A  
HETATM   20  C   UNL     1      -8.870   2.601  71.883  1.00  0.00    -0.116 A  
HETATM   21  C   UNL     1     -10.229   9.431  70.961  1.00  0.00    -0.369 A  
HETATM   22  N   UNL     1      -9.196   4.170  70.073  1.00  0.00    -0.126 NA 
HETATM   23  C   UNL     1      -9.428   2.980  70.673  1.00  0.00    -0.153 A  
HETATM   24  C   UNL     1      -9.156   8.536  70.887  1.00  0.00    -0.208 A  
BRANCH  19  25
HETATM   25  O   UNL     1     -12.409  10.098  70.407  1.00  0.00    -0.257 OA 
HETATM   26  S   UNL     1     -12.103  11.683  70.648  1.00  0.00    -0.247 S  
HETATM   27  O   UNL     1     -11.921  11.898  72.068  1.00  0.00     1.134 OA 
HETATM   28  O   UNL     1     -11.147  12.159  69.674  1.00  0.00    -0.128 OA 
HETATM   29  O   UNL     1     -13.521  12.361  70.296  1.00  0.00     1.088 OA 
ENDBRANCH  19  25
ENDBRANCH   5   6
TORSDOF 2
ENDMDL
MODEL       89
REMARK 921   NORMALIZED FREE ENERGY PREDICTED BY IDOCK:    0.55 KCAL/MOL
REMARK 922        TOTAL FREE ENERGY PREDICTED BY IDOCK:    0.28 KCAL/MOL
REMARK 923 INTER-LIGAND FREE ENERGY PREDICTED BY IDOCK:    0.65 KCAL/MOL
REMARK 924 INTRA-LIGAND FREE ENERGY PREDICTED BY IDOCK:   -0.37 KCAL/MOL
REMARK 927      BINDING AFFINITY PREDICTED BY RF-SCORE:    0.00 PKD
ROOT
HETATM    1  O   UNL     1     -13.758  13.114  70.556  1.00  0.00     0.858 OA 
HETATM    2  S   UNL     1     -13.107  11.742  70.015  1.00  0.00     1.132 S  
HETATM    3  O   UNL     1     -12.434  12.111  68.787  1.00  0.00    -0.022 OA 
HETATM    4  O   UNL     1     -14.175  10.766  70.013  1.00  0.00     2.138 OA 
HETATM    5  O   UNL     1     -12.010  11.364  71.158  1.00  0.00    -0.203 OA 
ENDROOT
BRANCH   5   6
HETATM    6  C   UNL     1     -11.325  10.177  71.106  1.00  0.00    -0.249 A  
HETATM    7  C   UNL     1     -11.739   9.012  71.746  1.00  0.00    -0.440 A  
HETATM    8  C   UNL     1     -10.988   7.839  71.632  1.00  0.00    -0.272 A  
HETATM    9  C   UNL     1      -9.812   7.799  70.866  1.00  0.00    -0.182 A  
HETATM   10  C   UNL     1      -9.028   6.481  70.767  1.00  0.00    -0.144 C  
HETATM   11  C   UNL     1      -9.408   8.986  70.232  1.00  0.00    -0.227 A  
HETATM   12  C   UNL     1      -7.676   6.499  71.490  1.00  0.00    -0.099 A  
HETATM   13  C   UNL     1     -10.168  10.157  70.331  1.00  0.00    -0.116 A  
HETATM   14  C   UNL     1      -8.976   5.870  69.361  1.00  0.00    -0.122 A  
HETATM   15  C   UNL     1      -7.453   5.615  72.551  1.00  0.00    -0.097 A  
HETATM   16  C   UNL     1      -8.297   6.497  68.306  1.00  0.00    -0.117 A  
HETATM   17  C   UNL     1      -6.230   5.638  73.216  1.00  0.00    -0.060 A  
HETATM   18  C   UNL     1      -8.263   5.935  67.029  1.00  0.00    -0.105 A  
HETATM   19  C   UNL     1      -8.855   4.699  66.795  1.00  0.00    -0.111 A  
HETATM   20  C   UNL     1      -5.254   6.535  72.810  1.00  0.00    -0.036 A  
HETATM   21  C   UNL     1      -9.543   4.060  67.827  1.00  0.00    -0.204 A  
HETATM   22  N   UNL     1      -6.719   7.374  71.080  1.00  0.00    -0.043 NA 
HETATM   23  C   UNL     1      -5.541   7.373  71.745  1.00  0.00    -0.036 A  
HETATM   24  C   UNL     1      -9.606   4.641  69.098  1.00  0.00    -0.245 A  
BRANCH  19  25
HETATM   25  O   UNL     1      -8.810   4.033  65.598  1.00  0.00    -0.117 OA 
HETATM   26  S   UNL     1      -7.393   3.603  64.914  1.00  0.00    -0.073 S  
HETATM   27  O   UNL     1      -6.927   4.709  64.104  1.00  0.00    -0.047 OA 
HETATM   28  O   UNL     1      -6.541   2.960  65.890  1.00  0.00    -0.034 OA 
HETATM   29  O   UNL     1      -7.851   2.472  63.862  1.00  0.00    -0.073 OA 
ENDBRANCH  19  25
ENDBRANCH   5   6
TORSDOF 2
ENDMDL
MODEL       90
REMARK 921   NORMALIZED FREE ENERGY PREDICTED BY IDOCK:    0.59 KCAL/MOL
REMARK 922        TOTAL FREE ENERGY PREDICTED BY IDOCK:    0.32 KCAL/MOL
REMARK 923 INTER-LIGAND FREE ENERGY PREDICTED BY IDOCK:    0.51 KCAL/MOL
REMARK 924 INTRA-LIGAND FREE ENERGY PREDICTED BY IDOCK:   -0.19 KCAL/MOL
REMARK 927      BINDING AFFINITY PREDICTED BY RF-SCORE:    0.00 PKD
ROOT
HETATM    1  O   UNL     1     -12.275  16.628  72.352  1.00  0.00    -0.289 OA 
HETATM    2  S   UNL     1     -12.382  15.027  72.198  1.00  0.00    -0.372 S  
HETATM    3  O   UNL     1     -13.799  14.742  72.272  1.00  0.00    -0.409 OA 
HETATM    4  O   UNL     1     -11.460  14.469  73.163  1.00  0.00     0.319 OA 
HETATM    5  O   UNL     1     -11.838  14.753  70.686  1.00  0.00    -0.273 OA 
ENDROOT
BRANCH   5   6
HETATM    6  C   UNL     1     -11.666  13.473  70.225  1.00  0.00    -0.173 A  
HETATM    7  C   UNL     1     -12.659  12.737  69.586  1.00  0.00     0.307 A  
HETATM    8  C   UNL     1     -12.396  11.440  69.134  1.00  0.00    -0.097 A  
HETATM    9  C   UNL     1     -11.131  10.854  69.300  1.00  0.00    -0.305 A  
HETATM   10  C   UNL     1     -10.893   9.429  68.777  1.00  0.00    -0.147 C  
HETATM   11  C   UNL     1     -10.144  11.611  69.952  1.00  0.00     1.217 A  
HETATM   12  C   UNL     1     -10.705   8.379  69.879  1.00  0.00    -0.227 A  
HETATM   13  C   UNL     1     -10.400  12.916  70.389  1.00  0.00     3.134 A  
HETATM   14  C   UNL     1      -9.872   9.326  67.637  1.00  0.00    -0.221 A  
HETATM   15  C   UNL     1     -11.616   7.322  69.983  1.00  0.00    -0.088 A  
HETATM   16  C   UNL     1      -8.514   9.615  67.831  1.00  0.00    -0.122 A  
HETATM   17  C   UNL     1     -11.453   6.375  70.991  1.00  0.00    -0.394 A  
HETATM   18  C   UNL     1      -7.595   9.525  66.784  1.00  0.00    -0.098 A  
HETATM   19  C   UNL     1      -8.006   9.082  65.532  1.00  0.00    -0.106 A  
HETATM   20  C   UNL     1     -10.387   6.495  71.870  1.00  0.00    -0.223 A  
HETATM   21  C   UNL     1      -9.354   8.796  65.313  1.00  0.00    -0.015 A  
HETATM   22  N   UNL     1      -9.651   8.497  70.731  1.00  0.00    -0.172 NA 
HETATM   23  C   UNL     1      -9.520   7.562  71.699  1.00  0.00    -0.149 A  
HETATM   24  C   UNL     1     -10.280   8.920  66.354  1.00  0.00    -0.273 A  
BRANCH  19  25
HETATM   25  O   UNL     1      -7.168   8.889  64.465  1.00  0.00    -0.094 OA 
HETATM   26  S   UNL     1      -6.561   7.417  64.112  1.00  0.00    -0.048 S  
HETATM   27  O   UNL     1      -5.338   7.238  64.867  1.00  0.00    -0.028 OA 
HETATM   28  O   UNL     1      -7.616   6.427  64.121  1.00  0.00    -0.085 OA 
HETATM   29  O   UNL     1      -6.091   7.599  62.583  1.00  0.00    -0.064 OA 
ENDBRANCH  19  25
ENDBRANCH   5   6
TORSDOF 2
ENDMDL
MODEL       91
REMARK 921   NORMALIZED FREE ENERGY PREDICTED BY IDOCK:    1.55 KCAL/MOL
REMARK 922        TOTAL FREE ENERGY PREDICTED BY IDOCK:    1.39 KCAL/MOL
REMARK 923 INTER-LIGAND FREE ENERGY PREDICTED BY IDOCK:    0.99 KCAL/MOL
REMARK 924 INTRA-LIGAND FREE ENERGY PREDICTED BY IDOCK:    0.40 KCAL/MOL
REMARK 927      BINDING AFFINITY PREDICTED BY RF-SCORE:    0.00 PKD
ROOT
HETATM    1  O   UNL     1     -10.935  15.467  72.717  1.00  0.00     0.150 OA 
HETATM    2  S   UNL     1     -11.233  14.734  71.312  1.00  0.00     0.175 S  
HETATM    3  O   UNL     1     -11.935  15.723  70.521  1.00  0.00    -0.344 OA 
HETATM    4  O   UNL     1     -11.854  13.471  71.644  1.00  0.00     0.374 OA 
HETATM    5  O   UNL     1      -9.748  14.479  70.693  1.00  0.00     1.188 OA 
ENDROOT
BRANCH   5   6
HETATM    6  C   UNL     1      -9.585  13.758  69.538  1.00  0.00     0.872 A  
HETATM    7  C   UNL     1      -8.508  13.913  68.670  1.00  0.00    -0.082 A  
HETATM    8  C   UNL     1      -8.411  13.126  67.518  1.00  0.00    -0.198 A  
HETATM    9  C   UNL     1      -9.383  12.159  67.213  1.00  0.00    -0.183 A  
HETATM   10  C   UNL     1      -9.224  11.316  65.939  1.00  0.00    -0.229 C  
HETATM   11  C   UNL     1     -10.465  12.022  68.099  1.00  0.00    -0.218 A  
HETATM   12  C   UNL     1     -10.257  11.625  64.849  1.00  0.00    -0.270 A  
HETATM   13  C   UNL     1     -10.554  12.796  69.262  1.00  0.00     0.117 A  
HETATM   14  C   UNL     1      -9.006   9.818  66.184  1.00  0.00    -0.181 A  
HETATM   15  C   UNL     1      -9.824  12.114  63.611  1.00  0.00    -0.257 A  
HETATM   16  C   UNL     1     -10.003   9.007  66.745  1.00  0.00    -0.332 A  
HETATM   17  C   UNL     1     -10.762  12.406  62.624  1.00  0.00     1.637 A  
HETATM   18  C   UNL     1      -9.790   7.645  66.971  1.00  0.00    -0.282 A  
HETATM   19  C   UNL     1      -8.595   7.052  66.579  1.00  0.00    -0.129 A  
HETATM   20  C   UNL     1     -12.108  12.204  62.886  1.00  0.00     0.160 A  
HETATM   21  C   UNL     1      -7.586   7.841  66.026  1.00  0.00    -0.087 A  
HETATM   22  N   UNL     1     -11.576  11.415  65.108  1.00  0.00     0.045 NA 
HETATM   23  C   UNL     1     -12.463  11.708  64.130  1.00  0.00     0.015 A  
HETATM   24  C   UNL     1      -7.787   9.211  65.832  1.00  0.00    -0.105 A  
BRANCH  19  25
HETATM   25  O   UNL     1      -8.322   5.714  66.689  1.00  0.00    -0.111 OA 
HETATM   26  S   UNL     1      -9.510   4.615  66.893  1.00  0.00    -0.178 S  
HETATM   27  O   UNL     1      -9.771   4.488  68.311  1.00  0.00    -0.153 OA 
HETATM   28  O   UNL     1     -10.572   4.845  65.938  1.00  0.00    -0.287 OA 
HETATM   29  O   UNL     1      -8.780   3.242  66.473  1.00  0.00    -0.115 OA 
ENDBRANCH  19  25
ENDBRANCH   5   6
TORSDOF 2
ENDMDL
MODEL       92
REMARK 921   NORMALIZED FREE ENERGY PREDICTED BY IDOCK:    1.97 KCAL/MOL
REMARK 922        TOTAL FREE ENERGY PREDICTED BY IDOCK:    1.86 KCAL/MOL
REMARK 923 INTER-LIGAND FREE ENERGY PREDICTED BY IDOCK:    1.18 KCAL/MOL
REMARK 924 INTRA-LIGAND FREE ENERGY PREDICTED BY IDOCK:    0.68 KCAL/MOL
REMARK 927      BINDING AFFINITY PREDICTED BY RF-SCORE:    0.00 PKD
ROOT
HETATM    1  O   UNL     1      -8.407   3.837  68.544  1.00  0.00    -0.077 OA 
HETATM    2  S   UNL     1      -8.130   5.155  67.657  1.00  0.00    -0.099 S  
HETATM    3  O   UNL     1      -9.051   5.054  66.545  1.00  0.00    -0.121 OA 
HETATM    4  O   UNL     1      -6.701   5.197  67.438  1.00  0.00    -0.052 OA 
HETATM    5  O   UNL     1      -8.578   6.375  68.640  1.00  0.00    -0.122 OA 
ENDROOT
BRANCH   5   6
HETATM    6  C   UNL     1      -8.373   7.681  68.273  1.00  0.00    -0.125 A  
HETATM    7  C   UNL     1      -7.577   8.071  67.200  1.00  0.00    -0.097 A  
HETATM    8  C   UNL     1      -7.431   9.426  66.886  1.00  0.00    -0.091 A  
HETATM    9  C   UNL     1      -8.086  10.421  67.630  1.00  0.00    -0.107 A  
HETATM   10  C   UNL     1      -7.899  11.894  67.236  1.00  0.00    -0.168 C  
HETATM   11  C   UNL     1      -8.882  10.006  68.711  1.00  0.00    -0.137 A  
HETATM   12  C   UNL     1      -7.088  12.715  68.247  1.00  0.00    -0.105 A  
HETATM   13  C   UNL     1      -9.043   8.650  69.017  1.00  0.00    -0.145 A  
HETATM   14  C   UNL     1      -9.171  12.593  66.742  1.00  0.00    -0.225 A  
HETATM   15  C   UNL     1      -5.877  13.292  67.849  1.00  0.00    -0.135 A  
HETATM   16  C   UNL     1     -10.262  12.830  67.590  1.00  0.00    -0.219 A  
HETATM   17  C   UNL     1      -5.134  14.028  68.769  1.00  0.00    -0.084 A  
HETATM   18  C   UNL     1     -11.419  13.461  67.127  1.00  0.00    -0.373 A  
HETATM   19  C   UNL     1     -11.482  13.927  65.818  1.00  0.00    -0.321 A  
HETATM   20  C   UNL     1      -5.612  14.177  70.062  1.00  0.00    -0.114 A  
HETATM   21  C   UNL     1     -10.411  13.695  64.955  1.00  0.00    -0.426 A  
HETATM   22  N   UNL     1      -7.567  12.867  69.511  1.00  0.00     0.551 NA 
HETATM   23  C   UNL     1      -6.824  13.587  70.381  1.00  0.00     0.707 A  
HETATM   24  C   UNL     1      -9.267  13.033  65.410  1.00  0.00     0.538 A  
BRANCH  19  25
HETATM   25  O   UNL     1     -12.540  14.623  65.295  1.00  0.00    -0.286 OA 
HETATM   26  S   UNL     1     -12.477  15.273  63.800  1.00  0.00     0.976 S  
HETATM   27  O   UNL     1     -11.898  16.596  63.906  1.00  0.00    -1.047 OA 
HETATM   28  O   UNL     1     -11.985  14.298  62.852  1.00  0.00     0.404 OA 
HETATM   29  O   UNL     1     -14.033  15.518  63.469  1.00  0.00     2.679 OA 
ENDBRANCH  19  25
ENDBRANCH   5   6
TORSDOF 2
ENDMDL
MODEL       93
REMARK 921   NORMALIZED FREE ENERGY PREDICTED BY IDOCK:    3.07 KCAL/MOL
REMARK 922        TOTAL FREE ENERGY PREDICTED BY IDOCK:    3.09 KCAL/MOL
REMARK 923 INTER-LIGAND FREE ENERGY PREDICTED BY IDOCK:    3.23 KCAL/MOL
REMARK 924 INTRA-LIGAND FREE ENERGY PREDICTED BY IDOCK:   -0.14 KCAL/MOL
REMARK 927      BINDING AFFINITY PREDICTED BY RF-SCORE:    0.00 PKD
ROOT
HETATM    1  O   UNL     1     -11.130  15.761  63.794  1.00  0.00     0.102 OA 
HETATM    2  S   UNL     1     -10.936  14.223  64.239  1.00  0.00     0.149 S  
HETATM    3  O   UNL     1      -9.511  13.985  64.137  1.00  0.00     1.135 OA 
HETATM    4  O   UNL     1     -11.876  13.457  63.452  1.00  0.00    -0.430 OA 
HETATM    5  O   UNL     1     -11.389  14.221  65.804  1.00  0.00    -0.315 OA 
ENDROOT
BRANCH   5   6
HETATM    6  C   UNL     1     -11.474  13.046  66.507  1.00  0.00    -0.340 A  
HETATM    7  C   UNL     1     -12.165  11.922  66.062  1.00  0.00     0.510 A  
HETATM    8  C   UNL     1     -12.192  10.758  66.835  1.00  0.00     2.723 A  
HETATM    9  C   UNL     1     -11.520  10.686  68.066  1.00  0.00    -0.289 A  
HETATM   10  C   UNL     1     -11.574   9.379  68.872  1.00  0.00     0.533 C  
HETATM   11  C   UNL     1     -10.832  11.832  68.500  1.00  0.00    -0.261 A  
HETATM   12  C   UNL     1     -12.391   9.475  70.167  1.00  0.00     0.346 A  
HETATM   13  C   UNL     1     -10.790  12.992  67.719  1.00  0.00    -0.257 A  
HETATM   14  C   UNL     1     -10.224   8.671  69.038  1.00  0.00    -0.218 A  
HETATM   15  C   UNL     1     -13.528   8.673  70.322  1.00  0.00     1.618 A  
HETATM   16  C   UNL     1      -9.179   9.233  69.785  1.00  0.00    -0.191 A  
HETATM   17  C   UNL     1     -14.277   8.766  71.492  1.00  0.00    -0.364 A  
HETATM   18  C   UNL     1      -7.952   8.582  69.922  1.00  0.00    -0.106 A  
HETATM   19  C   UNL     1      -7.766   7.321  69.366  1.00  0.00    -0.107 A  
HETATM   20  C   UNL     1     -13.880   9.651  72.483  1.00  0.00    -0.216 A  
HETATM   21  C   UNL     1      -8.789   6.745  68.612  1.00  0.00    -0.123 A  
HETATM   22  N   UNL     1     -11.990  10.336  71.140  1.00  0.00    -0.367 NA 
HETATM   23  C   UNL     1     -12.738  10.405  72.264  1.00  0.00     0.067 A  
HETATM   24  C   UNL     1     -10.006   7.414  68.446  1.00  0.00    -0.177 A  
BRANCH  19  25
HETATM   25  O   UNL     1      -6.628   6.572  69.509  1.00  0.00    -0.045 OA 
HETATM   26  S   UNL     1      -6.219   5.906  70.941  1.00  0.00    -0.036 S  
HETATM   27  O   UNL     1      -5.450   6.879  71.690  1.00  0.00    -0.034 OA 
HETATM   28  O   UNL     1      -7.357   5.225  71.517  1.00  0.00    -0.081 OA 
HETATM   29  O   UNL     1      -5.158   4.777  70.502  1.00  0.00     0.000 OA 
ENDBRANCH  19  25
ENDBRANCH   5   6
TORSDOF 2
ENDMDL
MODEL       94
REMARK 921   NORMALIZED FREE ENERGY PREDICTED BY IDOCK:    3.51 KCAL/MOL
REMARK 922        TOTAL FREE ENERGY PREDICTED BY IDOCK:    3.58 KCAL/MOL
REMARK 923 INTER-LIGAND FREE ENERGY PREDICTED BY IDOCK:    3.30 KCAL/MOL
REMARK 924 INTRA-LIGAND FREE ENERGY PREDICTED BY IDOCK:    0.28 KCAL/MOL
REMARK 927      BINDING AFFINITY PREDICTED BY RF-SCORE:    0.00 PKD
ROOT
HETATM    1  O   UNL     1     -10.635   5.501  62.929  1.00  0.00     2.027 OA 
HETATM    2  S   UNL     1      -9.574   5.566  64.142  1.00  0.00     1.295 S  
HETATM    3  O   UNL     1      -8.277   5.472  63.505  1.00  0.00    -0.118 OA 
HETATM    4  O   UNL     1     -10.004   4.575  65.103  1.00  0.00    -0.179 OA 
HETATM    5  O   UNL     1      -9.786   7.062  64.752  1.00  0.00     1.835 OA 
ENDROOT
BRANCH   5   6
HETATM    6  C   UNL     1      -9.131   7.452  65.892  1.00  0.00    -0.028 A  
HETATM    7  C   UNL     1      -7.865   7.001  66.255  1.00  0.00    -0.104 A  
HETATM    8  C   UNL     1      -7.262   7.460  67.430  1.00  0.00    -0.093 A  
HETATM    9  C   UNL     1      -7.906   8.389  68.264  1.00  0.00    -0.110 A  
HETATM   10  C   UNL     1      -7.195   8.867  69.539  1.00  0.00    -0.063 C  
HETATM   11  C   UNL     1      -9.185   8.828  67.882  1.00  0.00    -0.149 A  
HETATM   12  C   UNL     1      -7.839   8.370  70.839  1.00  0.00    -0.098 A  
HETATM   13  C   UNL     1      -9.782   8.384  66.698  1.00  0.00    -0.320 A  
HETATM   14  C   UNL     1      -6.834  10.357  69.552  1.00  0.00    -0.093 A  
HETATM   15  C   UNL     1      -7.100   7.552  71.702  1.00  0.00    -0.062 A  
HETATM   16  C   UNL     1      -7.816  11.357  69.576  1.00  0.00     0.337 A  
HETATM   17  C   UNL     1      -7.687   7.091  72.878  1.00  0.00    -0.089 A  
HETATM   18  C   UNL     1      -7.475  12.711  69.580  1.00  0.00     0.591 A  
HETATM   19  C   UNL     1      -6.138  13.093  69.624  1.00  0.00    -0.120 A  
HETATM   20  C   UNL     1      -8.992   7.455  73.173  1.00  0.00    -0.199 A  
HETATM   21  C   UNL     1      -5.144  12.115  69.593  1.00  0.00    -0.071 A  
HETATM   22  N   UNL     1      -9.116   8.739  71.128  1.00  0.00    -0.203 NA 
HETATM   23  C   UNL     1      -9.658   8.275  72.277  1.00  0.00    -0.285 A  
HETATM   24  C   UNL     1      -5.487  10.760  69.554  1.00  0.00    -0.038 A  
BRANCH  19  25
HETATM   25  O   UNL     1      -5.706  14.390  69.707  1.00  0.00    -0.095 OA 
HETATM   26  S   UNL     1      -6.727  15.645  69.494  1.00  0.00    -0.184 S  
HETATM   27  O   UNL     1      -6.782  15.949  68.079  1.00  0.00    -0.112 OA 
HETATM   28  O   UNL     1      -7.924  15.453  70.282  1.00  0.00     0.256 OA 
HETATM   29  O   UNL     1      -5.910  16.865  70.156  1.00  0.00    -0.224 OA 
ENDBRANCH  19  25
ENDBRANCH   5   6
TORSDOF 2
ENDMDL
MODEL       95
REMARK 921   NORMALIZED FREE ENERGY PREDICTED BY IDOCK:    3.96 KCAL/MOL
REMARK 922        TOTAL FREE ENERGY PREDICTED BY IDOCK:    4.08 KCAL/MOL
REMARK 923 INTER-LIGAND FREE ENERGY PREDICTED BY IDOCK:    3.65 KCAL/MOL
REMARK 924 INTRA-LIGAND FREE ENERGY PREDICTED BY IDOCK:    0.43 KCAL/MOL
REMARK 927      BINDING AFFINITY PREDICTED BY RF-SCORE:    0.00 PKD
ROOT
HETATM    1  O   UNL     1     -11.399   4.497  65.390  1.00  0.00    -0.021 OA 
HETATM    2  S   UNL     1     -10.506   5.582  66.182  1.00  0.00    -0.020 S  
HETATM    3  O   UNL     1      -9.209   4.956  66.330  1.00  0.00    -0.128 OA 
HETATM    4  O   UNL     1     -11.281   5.970  67.340  1.00  0.00    -0.228 OA 
HETATM    5  O   UNL     1     -10.406   6.828  65.137  1.00  0.00     2.424 OA 
ENDROOT
BRANCH   5   6
HETATM    6  C   UNL     1      -9.813   8.007  65.507  1.00  0.00     0.949 A  
HETATM    7  C   UNL     1      -8.784   8.618  64.796  1.00  0.00    -0.099 A  
HETATM    8  C   UNL     1      -8.243   9.829  65.237  1.00  0.00    -0.137 A  
HETATM    9  C   UNL     1      -8.724  10.464  66.393  1.00  0.00    -0.149 A  
HETATM   10  C   UNL     1      -8.100  11.798  66.829  1.00  0.00    -0.133 C  
HETATM   11  C   UNL     1      -9.760   9.829  67.100  1.00  0.00    -0.223 A  
HETATM   12  C   UNL     1      -7.273  11.712  68.117  1.00  0.00    -0.085 A  
HETATM   13  C   UNL     1     -10.314   8.626  66.650  1.00  0.00    -0.303 A  
HETATM   14  C   UNL     1      -9.052  12.999  66.778  1.00  0.00    -0.212 A  
HETATM   15  C   UNL     1      -5.906  12.011  68.077  1.00  0.00    -0.055 A  
HETATM   16  C   UNL     1     -10.163  13.100  67.628  1.00  0.00    -0.224 A  
HETATM   17  C   UNL     1      -5.151  11.922  69.244  1.00  0.00    -0.052 A  
HETATM   18  C   UNL     1     -11.028  14.194  67.568  1.00  0.00    -0.292 A  
HETATM   19  C   UNL     1     -10.761  15.245  66.697  1.00  0.00    -0.309 A  
HETATM   20  C   UNL     1      -5.770  11.543  70.425  1.00  0.00    -0.155 A  
HETATM   21  C   UNL     1      -9.666  15.164  65.836  1.00  0.00    -0.385 A  
HETATM   22  N   UNL     1      -7.888  11.350  69.275  1.00  0.00     0.024 NA 
HETATM   23  C   UNL     1      -7.128  11.273  70.392  1.00  0.00     1.056 A  
HETATM   24  C   UNL     1      -8.820  14.050  65.874  1.00  0.00     0.700 A  
BRANCH  19  25
HETATM   25  O   UNL     1     -11.505  16.393  66.618  1.00  0.00     0.346 OA 
HETATM   26  S   UNL     1     -10.868  17.850  66.981  1.00  0.00     0.033 S  
HETATM   27  O   UNL     1     -11.020  18.070  68.404  1.00  0.00    -0.100 OA 
HETATM   28  O   UNL     1      -9.595  18.018  66.313  1.00  0.00    -0.375 OA 
HETATM   29  O   UNL     1     -11.909  18.861  66.283  1.00  0.00     1.801 OA 
ENDBRANCH  19  25
ENDBRANCH   5   6
TORSDOF 2
ENDMDL
MODEL       96
REMARK 921   NORMALIZED FREE ENERGY PREDICTED BY IDOCK:    4.69 KCAL/MOL
REMARK 922        TOTAL FREE ENERGY PREDICTED BY IDOCK:    4.90 KCAL/MOL
REMARK 923 INTER-LIGAND FREE ENERGY PREDICTED BY IDOCK:    4.65 KCAL/MOL
REMARK 924 INTRA-LIGAND FREE ENERGY PREDICTED BY IDOCK:    0.25 KCAL/MOL
REMARK 927      BINDING AFFINITY PREDICTED BY RF-SCORE:    0.00 PKD
ROOT
HETATM    1  O   UNL     1      -7.177   7.415  64.066  1.00  0.00    -0.070 OA 
HETATM    2  S   UNL     1      -8.403   7.916  64.986  1.00  0.00    -0.054 S  
HETATM    3  O   UNL     1      -9.186   6.725  65.238  1.00  0.00     0.269 OA 
HETATM    4  O   UNL     1      -8.978   9.053  64.302  1.00  0.00    -0.123 OA 
HETATM    5  O   UNL     1      -7.674   8.402  66.359  1.00  0.00    -0.092 OA 
ENDROOT
BRANCH   5   6
HETATM    6  C   UNL     1      -8.392   9.013  67.355  1.00  0.00    -0.112 A  
HETATM    7  C   UNL     1      -7.921   9.198  68.652  1.00  0.00    -0.101 A  
HETATM    8  C   UNL     1      -8.714   9.843  69.605  1.00  0.00    -0.218 A  
HETATM    9  C   UNL     1      -9.991  10.330  69.281  1.00  0.00    -0.244 A  
HETATM   10  C   UNL     1     -10.818  11.040  70.364  1.00  0.00     0.359 C  
HETATM   11  C   UNL     1     -10.450  10.130  67.968  1.00  0.00    -0.249 A  
HETATM   12  C   UNL     1     -12.048  10.253  70.831  1.00  0.00    -0.368 A  
HETATM   13  C   UNL     1      -9.650   9.500  67.008  1.00  0.00    -0.214 A  
HETATM   14  C   UNL     1     -11.093  12.524  70.091  1.00  0.00     0.606 A  
HETATM   15  C   UNL     1     -12.138   9.848  72.167  1.00  0.00     0.080 A  
HETATM   16  C   UNL     1     -11.901  12.944  69.025  1.00  0.00    -0.352 A  
HETATM   17  C   UNL     1     -13.250   9.124  72.590  1.00  0.00    -0.362 A  
HETATM   18  C   UNL     1     -12.138  14.298  68.782  1.00  0.00    -0.300 A  
HETATM   19  C   UNL     1     -11.622  15.261  69.642  1.00  0.00    -0.321 A  
HETATM   20  C   UNL     1     -14.249   8.820  71.677  1.00  0.00    -0.414 A  
HETATM   21  C   UNL     1     -10.809  14.868  70.705  1.00  0.00    -0.012 A  
HETATM   22  N   UNL     1     -13.030   9.968  69.933  1.00  0.00     0.296 NA 
HETATM   23  C   UNL     1     -14.097   9.263  70.374  1.00  0.00     1.058 A  
HETATM   24  C   UNL     1     -10.544  13.513  70.927  1.00  0.00     3.312 A  
BRANCH  19  25
HETATM   25  O   UNL     1     -11.861  16.606  69.532  1.00  0.00     0.215 OA 
HETATM   26  S   UNL     1     -11.005  17.543  68.507  1.00  0.00     0.182 S  
HETATM   27  O   UNL     1      -9.817  18.000  69.197  1.00  0.00    -0.269 OA 
HETATM   28  O   UNL     1     -10.941  16.925  67.201  1.00  0.00    -0.149 OA 
HETATM   29  O   UNL     1     -11.942  18.846  68.373  1.00  0.00     2.298 OA 
ENDBRANCH  19  25
ENDBRANCH   5   6
TORSDOF 2
ENDMDL
MODEL       97
REMARK 921   NORMALIZED FREE ENERGY PREDICTED BY IDOCK:    5.31 KCAL/MOL
REMARK 922        TOTAL FREE ENERGY PREDICTED BY IDOCK:    5.59 KCAL/MOL
REMARK 923 INTER-LIGAND FREE ENERGY PREDICTED BY IDOCK:    5.29 KCAL/MOL
REMARK 924 INTRA-LIGAND FREE ENERGY PREDICTED BY IDOCK:    0.29 KCAL/MOL
REMARK 927      BINDING AFFINITY PREDICTED BY RF-SCORE:    0.00 PKD
ROOT
HETATM    1  O   UNL     1      -8.834   3.247  67.521  1.00  0.00    -0.109 OA 
HETATM    2  S   UNL     1      -9.187   4.422  68.567  1.00  0.00    -0.145 S  
HETATM    3  O   UNL     1      -8.347   4.158  69.716  1.00  0.00    -0.061 OA 
HETATM    4  O   UNL     1     -10.628   4.433  68.686  1.00  0.00     0.430 OA 
HETATM    5  O   UNL     1      -8.681   5.772  67.807  1.00  0.00    -0.109 OA 
ENDROOT
BRANCH   5   6
HETATM    6  C   UNL     1      -8.924   7.010  68.344  1.00  0.00    -0.122 A  
HETATM    7  C   UNL     1      -8.298   7.498  69.488  1.00  0.00    -0.131 A  
HETATM    8  C   UNL     1      -8.594   8.779  69.962  1.00  0.00    -0.136 A  
HETATM    9  C   UNL     1      -9.513   9.607  69.297  1.00  0.00    -0.184 A  
HETATM   10  C   UNL     1      -9.796  11.010  69.856  1.00  0.00     0.652 C  
HETATM   11  C   UNL     1     -10.137   9.095  68.147  1.00  0.00    -0.225 A  
HETATM   12  C   UNL     1     -11.200  11.179  70.448  1.00  0.00     0.087 A  
HETATM   13  C   UNL     1      -9.829   7.819  67.662  1.00  0.00    -0.208 A  
HETATM   14  C   UNL     1      -9.361  12.164  68.943  1.00  0.00     0.195 A  
HETATM   15  C   UNL     1     -11.340  11.490  71.806  1.00  0.00     3.603 A  
HETATM   16  C   UNL     1      -9.975  12.399  67.704  1.00  0.00    -0.200 A  
HETATM   17  C   UNL     1     -12.615  11.632  72.348  1.00  0.00     1.105 A  
HETATM   18  C   UNL     1      -9.566  13.447  66.878  1.00  0.00    -0.257 A  
HETATM   19  C   UNL     1      -8.574  14.325  67.304  1.00  0.00    -0.215 A  
HETATM   20  C   UNL     1     -13.722  11.466  71.530  1.00  0.00     0.513 A  
HETATM   21  C   UNL     1      -7.945  14.106  68.530  1.00  0.00    -0.145 A  
HETATM   22  N   UNL     1     -12.282  11.025  69.639  1.00  0.00    -0.329 NA 
HETATM   23  C   UNL     1     -13.507  11.169  70.194  1.00  0.00     1.161 A  
HETATM   24  C   UNL     1      -8.332  13.034  69.341  1.00  0.00     1.054 A  
BRANCH  19  25
HETATM   25  O   UNL     1      -8.159  15.424  66.601  1.00  0.00    -0.225 OA 
HETATM   26  S   UNL     1      -6.897  16.329  67.099  1.00  0.00    -0.202 S  
HETATM   27  O   UNL     1      -7.393  17.334  68.016  1.00  0.00    -0.182 OA 
HETATM   28  O   UNL     1      -5.774  15.480  67.432  1.00  0.00    -0.313 OA 
HETATM   29  O   UNL     1      -6.505  17.135  65.761  1.00  0.00    -0.007 OA 
ENDBRANCH  19  25
ENDBRANCH   5   6
TORSDOF 2
ENDMDL
MODEL       98
REMARK 921   NORMALIZED FREE ENERGY PREDICTED BY IDOCK:    5.40 KCAL/MOL
REMARK 922        TOTAL FREE ENERGY PREDICTED BY IDOCK:    5.69 KCAL/MOL
REMARK 923 INTER-LIGAND FREE ENERGY PREDICTED BY IDOCK:    5.78 KCAL/MOL
REMARK 924 INTRA-LIGAND FREE ENERGY PREDICTED BY IDOCK:   -0.09 KCAL/MOL
REMARK 927      BINDING AFFINITY PREDICTED BY RF-SCORE:    0.00 PKD
ROOT
HETATM    1  O   UNL     1      -6.395   7.992  65.652  1.00  0.00    -0.041 OA 
HETATM    2  S   UNL     1      -6.692   9.514  66.091  1.00  0.00    -0.084 S  
HETATM    3  O   UNL     1      -7.274  10.131  64.918  1.00  0.00    -0.133 OA 
HETATM    4  O   UNL     1      -5.460  10.015  66.660  1.00  0.00    -0.044 OA 
HETATM    5  O   UNL     1      -7.820   9.361  67.256  1.00  0.00    -0.098 OA 
ENDROOT
BRANCH   5   6
HETATM    6  C   UNL     1      -8.245  10.453  67.968  1.00  0.00    -0.114 A  
HETATM    7  C   UNL     1      -7.774  10.788  69.234  1.00  0.00    -0.129 A  
HETATM    8  C   UNL     1      -8.251  11.929  69.887  1.00  0.00     2.044 A  
HETATM    9  C   UNL     1      -9.203  12.767  69.284  1.00  0.00     0.937 A  
HETATM   10  C   UNL     1      -9.688  14.013  70.041  1.00  0.00     1.504 C  
HETATM   11  C   UNL     1      -9.670  12.409  68.008  1.00  0.00    -0.210 A  
HETATM   12  C   UNL     1     -11.146  13.933  70.511  1.00  0.00     0.577 A  
HETATM   13  C   UNL     1      -9.180  11.278  67.346  1.00  0.00    -0.164 A  
HETATM   14  C   UNL     1      -9.317  15.348  69.384  1.00  0.00    -0.266 A  
HETATM   15  C   UNL     1     -11.429  13.982  71.881  1.00  0.00     1.371 A  
HETATM   16  C   UNL     1      -9.852  15.739  68.148  1.00  0.00    -0.209 A  
HETATM   17  C   UNL     1     -12.751  13.898  72.310  1.00  0.00    -0.304 A  
HETATM   18  C   UNL     1      -9.501  16.953  67.556  1.00  0.00    -0.241 A  
HETATM   19  C   UNL     1      -8.654  17.834  68.220  1.00  0.00    -0.277 A  
HETATM   20  C   UNL     1     -13.763  13.772  71.371  1.00  0.00    -0.197 A  
HETATM   21  C   UNL     1      -8.104  17.463  69.447  1.00  0.00     0.343 A  
HETATM   22  N   UNL     1     -12.134  13.821  69.584  1.00  0.00    -0.335 NA 
HETATM   23  C   UNL     1     -13.408  13.741  70.032  1.00  0.00     1.075 A  
HETATM   24  C   UNL     1      -8.429  16.231  70.023  1.00  0.00     1.124 A  
BRANCH  19  25
HETATM   25  O   UNL     1      -8.311  19.077  67.757  1.00  0.00    -0.279 OA 
HETATM   26  S   UNL     1      -9.205  19.843  66.627  1.00  0.00    -0.396 S  
HETATM   27  O   UNL     1      -8.733  19.430  65.322  1.00  0.00     0.206 OA 
HETATM   28  O   UNL     1     -10.606  19.796  66.983  1.00  0.00    -0.458 OA 
HETATM   29  O   UNL     1      -8.722  21.370  66.788  1.00  0.00     0.579 OA 
ENDBRANCH  19  25
ENDBRANCH   5   6
TORSDOF 2
ENDMDL
MODEL       99
REMARK 921   NORMALIZED FREE ENERGY PREDICTED BY IDOCK:    6.17 KCAL/MOL
REMARK 922        TOTAL FREE ENERGY PREDICTED BY IDOCK:    6.56 KCAL/MOL
REMARK 923 INTER-LIGAND FREE ENERGY PREDICTED BY IDOCK:    6.73 KCAL/MOL
REMARK 924 INTRA-LIGAND FREE ENERGY PREDICTED BY IDOCK:   -0.18 KCAL/MOL
REMARK 927      BINDING AFFINITY PREDICTED BY RF-SCORE:    0.00 PKD
ROOT
HETATM    1  O   UNL     1      -7.025  13.073  72.648  1.00  0.00     4.675 OA 
HETATM    2  S   UNL     1      -6.582  12.869  71.111  1.00  0.00     2.634 S  
HETATM    3  O   UNL     1      -5.142  12.731  71.156  1.00  0.00    -0.133 OA 
HETATM    4  O   UNL     1      -7.203  13.944  70.370  1.00  0.00     0.551 OA 
HETATM    5  O   UNL     1      -7.264  11.447  70.704  1.00  0.00     0.768 OA 
ENDROOT
BRANCH   5   6
HETATM    6  C   UNL     1      -7.208  10.987  69.413  1.00  0.00    -0.114 A  
HETATM    7  C   UNL     1      -6.147  11.231  68.546  1.00  0.00    -0.042 A  
HETATM    8  C   UNL     1      -6.163  10.714  67.248  1.00  0.00    -0.056 A  
HETATM    9  C   UNL     1      -7.235   9.930  66.789  1.00  0.00    -0.091 A  
HETATM   10  C   UNL     1      -7.198   9.378  65.356  1.00  0.00    -0.092 C  
HETATM   11  C   UNL     1      -8.298   9.698  67.678  1.00  0.00    -0.121 A  
HETATM   12  C   UNL     1      -8.227  10.014  64.413  1.00  0.00    -0.165 A  
HETATM   13  C   UNL     1      -8.276  10.201  68.984  1.00  0.00    -0.132 A  
HETATM   14  C   UNL     1      -7.123   7.850  65.259  1.00  0.00    -0.060 A  
HETATM   15  C   UNL     1      -7.784  10.722  63.290  1.00  0.00     0.156 A  
HETATM   16  C   UNL     1      -8.179   7.028  65.680  1.00  0.00    -0.134 A  
HETATM   17  C   UNL     1      -8.717  11.310  62.439  1.00  0.00    -0.248 A  
HETATM   18  C   UNL     1      -8.096   5.637  65.593  1.00  0.00    -0.120 A  
HETATM   19  C   UNL     1      -6.977   5.040  65.022  1.00  0.00    -0.061 A  
HETATM   20  C   UNL     1     -10.068  11.177  62.719  1.00  0.00    -0.136 A  
HETATM   21  C   UNL     1      -5.912   5.837  64.603  1.00  0.00    -0.025 A  
HETATM   22  N   UNL     1      -9.552   9.871  64.687  1.00  0.00    -0.295 NA 
HETATM   23  C   UNL     1     -10.433  10.453  63.842  1.00  0.00     0.385 A  
HETATM   24  C   UNL     1      -5.981   7.228  64.722  1.00  0.00    -0.037 A  
BRANCH  19  25
HETATM   25  O   UNL     1      -6.836   3.691  64.824  1.00  0.00    -0.046 OA 
HETATM   26  S   UNL     1      -8.024   2.798  64.152  1.00  0.00    -0.082 S  
HETATM   27  O   UNL     1      -8.916   2.362  65.206  1.00  0.00    -0.122 OA 
HETATM   28  O   UNL     1      -8.515   3.443  62.954  1.00  0.00    -0.083 OA 
HETATM   29  O   UNL     1      -7.235   1.473  63.690  1.00  0.00    -0.040 OA 
ENDBRANCH  19  25
ENDBRANCH   5   6
TORSDOF 2
ENDMDL
MODEL      100
REMARK 921   NORMALIZED FREE ENERGY PREDICTED BY IDOCK:    6.23 KCAL/MOL
REMARK 922        TOTAL FREE ENERGY PREDICTED BY IDOCK:    6.62 KCAL/MOL
REMARK 923 INTER-LIGAND FREE ENERGY PREDICTED BY IDOCK:    6.96 KCAL/MOL
REMARK 924 INTRA-LIGAND FREE ENERGY PREDICTED BY IDOCK:   -0.34 KCAL/MOL
REMARK 927      BINDING AFFINITY PREDICTED BY RF-SCORE:    0.00 PKD
ROOT
HETATM    1  O   UNL     1     -10.778  18.054  68.540  1.00  0.00    -0.244 OA 
HETATM    2  S   UNL     1     -11.016  16.494  68.210  1.00  0.00    -0.311 S  
HETATM    3  O   UNL     1     -10.153  16.219  67.081  1.00  0.00    -0.256 OA 
HETATM    4  O   UNL     1     -12.448  16.321  68.110  1.00  0.00     0.854 OA 
HETATM    5  O   UNL     1     -10.455  15.734  69.537  1.00  0.00    -0.228 OA 
ENDROOT
BRANCH   5   6
HETATM    6  C   UNL     1     -10.599  14.378  69.681  1.00  0.00     0.005 A  
HETATM    7  C   UNL     1     -11.795  13.756  70.029  1.00  0.00    -0.377 A  
HETATM    8  C   UNL     1     -11.859  12.364  70.143  1.00  0.00    -0.341 A  
HETATM    9  C   UNL     1     -10.734  11.561  69.899  1.00  0.00     0.314 A  
HETATM   10  C   UNL     1     -10.861  10.035  70.029  1.00  0.00    -0.352 C  
HETATM   11  C   UNL     1      -9.535  12.208  69.553  1.00  0.00     1.290 A  
HETATM   12  C   UNL     1     -10.105   9.442  71.224  1.00  0.00    -0.238 A  
HETATM   13  C   UNL     1      -9.473  13.599  69.422  1.00  0.00     0.776 A  
HETATM   14  C   UNL     1     -10.665   9.261  68.720  1.00  0.00    -0.184 A  
HETATM   15  C   UNL     1     -10.819   8.778  72.228  1.00  0.00    -0.328 A  
HETATM   16  C   UNL     1      -9.428   9.225  68.059  1.00  0.00    -0.152 A  
HETATM   17  C   UNL     1     -10.135   8.249  73.319  1.00  0.00     0.079 A  
HETATM   18  C   UNL     1      -9.263   8.523  66.864  1.00  0.00    -0.197 A  
HETATM   19  C   UNL     1     -10.319   7.787  66.336  1.00  0.00     0.137 A  
HETATM   20  C   UNL     1      -8.757   8.387  73.388  1.00  0.00    -0.180 A  
HETATM   21  C   UNL     1     -11.560   7.814  66.972  1.00  0.00     2.046 A  
HETATM   22  N   UNL     1      -8.752   9.571  71.280  1.00  0.00    -0.152 NA 
HETATM   23  C   UNL     1      -8.116   9.047  72.353  1.00  0.00     0.508 A  
HETATM   24  C   UNL     1     -11.734   8.546  68.151  1.00  0.00     2.088 A  
BRANCH  19  25
HETATM   25  O   UNL     1     -10.234   7.007  65.213  1.00  0.00     1.935 OA 
HETATM   26  S   UNL     1      -9.353   5.635  65.191  1.00  0.00     0.391 S  
HETATM   27  O   UNL     1      -7.992   5.975  64.833  1.00  0.00    -0.113 OA 
HETATM   28  O   UNL     1      -9.658   4.828  66.353  1.00  0.00    -0.146 OA 
HETATM   29  O   UNL     1      -9.949   4.867  63.908  1.00  0.00     0.336 OA 
ENDBRANCH  19  25
ENDBRANCH   5   6
TORSDOF 2
ENDMDL
MODEL      101
REMARK 921   NORMALIZED FREE ENERGY PREDICTED BY IDOCK:    6.78 KCAL/MOL
REMARK 922        TOTAL FREE ENERGY PREDICTED BY IDOCK:    7.23 KCAL/MOL
REMARK 923 INTER-LIGAND FREE ENERGY PREDICTED BY IDOCK:    7.01 KCAL/MOL
REMARK 924 INTRA-LIGAND FREE ENERGY PREDICTED BY IDOCK:    0.22 KCAL/MOL
REMARK 927      BINDING AFFINITY PREDICTED BY RF-SCORE:    0.00 PKD
ROOT
HETATM    1  O   UNL     1      -7.158   7.475  63.699  1.00  0.00    -0.063 OA 
HETATM    2  S   UNL     1      -8.255   7.360  64.875  1.00  0.00    -0.024 S  
HETATM    3  O   UNL     1      -8.445   5.938  65.066  1.00  0.00    -0.150 OA 
HETATM    4  O   UNL     1      -9.357   8.210  64.479  1.00  0.00     0.846 OA 
HETATM    5  O   UNL     1      -7.496   7.999  66.167  1.00  0.00    -0.073 OA 
ENDROOT
BRANCH   5   6
HETATM    6  C   UNL     1      -8.164   8.187  67.350  1.00  0.00    -0.122 A  
HETATM    7  C   UNL     1      -7.535   8.372  68.577  1.00  0.00    -0.094 A  
HETATM    8  C   UNL     1      -8.292   8.570  69.736  1.00  0.00    -0.124 A  
HETATM    9  C   UNL     1      -9.695   8.599  69.693  1.00  0.00    -0.179 A  
HETATM   10  C   UNL     1     -10.479   8.828  70.994  1.00  0.00    -0.293 C  
HETATM   11  C   UNL     1     -10.312   8.405  68.445  1.00  0.00    -0.239 A  
HETATM   12  C   UNL     1     -11.258   7.601  71.482  1.00  0.00    -0.246 A  
HETATM   13  C   UNL     1      -9.555   8.224  67.282  1.00  0.00    -0.215 A  
HETATM   14  C   UNL     1     -11.281  10.134  71.038  1.00  0.00    -0.322 A  
HETATM   15  C   UNL     1     -10.940   7.034  72.722  1.00  0.00    -0.329 A  
HETATM   16  C   UNL     1     -12.378  10.358  70.192  1.00  0.00    -0.281 A  
HETATM   17  C   UNL     1     -11.639   5.913  73.161  1.00  0.00     0.061 A  
HETATM   18  C   UNL     1     -13.097  11.554  70.236  1.00  0.00     0.382 A  
HETATM   19  C   UNL     1     -12.772  12.529  71.173  1.00  0.00    -0.245 A  
HETATM   20  C   UNL     1     -12.640   5.381  72.362  1.00  0.00     0.695 A  
HETATM   21  C   UNL     1     -11.680  12.331  72.019  1.00  0.00     3.216 A  
HETATM   22  N   UNL     1     -12.246   7.090  70.699  1.00  0.00    -0.300 NA 
HETATM   23  C   UNL     1     -12.906   6.001  71.152  1.00  0.00     1.391 A  
HETATM   24  C   UNL     1     -10.939  11.147  71.951  1.00  0.00     4.989 A  
BRANCH  19  25
HETATM   25  O   UNL     1     -13.462  13.700  71.344  1.00  0.00    -0.292 OA 
HETATM   26  S   UNL     1     -12.819  15.139  70.926  1.00  0.00    -0.436 S  
HETATM   27  O   UNL     1     -12.058  15.640  72.052  1.00  0.00    -0.355 OA 
HETATM   28  O   UNL     1     -12.256  15.066  69.596  1.00  0.00    -0.300 OA 
HETATM   29  O   UNL     1     -14.120  16.084  70.841  1.00  0.00     0.116 OA 
ENDBRANCH  19  25
ENDBRANCH   5   6
TORSDOF 2
ENDMDL
MODEL      102
REMARK 921   NORMALIZED FREE ENERGY PREDICTED BY IDOCK:    7.11 KCAL/MOL
REMARK 922        TOTAL FREE ENERGY PREDICTED BY IDOCK:    7.61 KCAL/MOL
REMARK 923 INTER-LIGAND FREE ENERGY PREDICTED BY IDOCK:    7.13 KCAL/MOL
REMARK 924 INTRA-LIGAND FREE ENERGY PREDICTED BY IDOCK:    0.48 KCAL/MOL
REMARK 927      BINDING AFFINITY PREDICTED BY RF-SCORE:    0.00 PKD
ROOT
HETATM    1  O   UNL     1      -8.417  17.911  64.960  1.00  0.00     1.551 OA 
HETATM    2  S   UNL     1      -8.677  16.894  66.183  1.00  0.00    -0.181 S  
HETATM    3  O   UNL     1      -7.999  17.493  67.314  1.00  0.00    -0.198 OA 
HETATM    4  O   UNL     1      -8.301  15.583  65.701  1.00  0.00     0.777 OA 
HETATM    5  O   UNL     1     -10.290  16.965  66.402  1.00  0.00    -0.308 OA 
ENDROOT
BRANCH   5   6
HETATM    6  C   UNL     1     -10.913  16.131  67.294  1.00  0.00    -0.175 A  
HETATM    7  C   UNL     1     -12.269  15.820  67.251  1.00  0.00     1.123 A  
HETATM    8  C   UNL     1     -12.824  14.949  68.194  1.00  0.00     1.477 A  
HETATM    9  C   UNL     1     -12.034  14.360  69.194  1.00  0.00    -0.357 A  
HETATM   10  C   UNL     1     -12.692  13.403  70.200  1.00  0.00    -0.024 C  
HETATM   11  C   UNL     1     -10.669  14.690  69.224  1.00  0.00    -0.254 A  
HETATM   12  C   UNL     1     -12.777  13.955  71.628  1.00  0.00    -0.330 A  
HETATM   13  C   UNL     1     -10.109  15.548  68.271  1.00  0.00    -0.218 A  
HETATM   14  C   UNL     1     -12.202  11.952  70.121  1.00  0.00    -0.319 A  
HETATM   15  C   UNL     1     -14.032  14.147  72.217  1.00  0.00    -0.646 A  
HETATM   16  C   UNL     1     -10.887  11.595  70.453  1.00  0.00     1.169 A  
HETATM   17  C   UNL     1     -14.111  14.659  73.510  1.00  0.00     2.440 A  
HETATM   18  C   UNL     1     -10.450  10.272  70.370  1.00  0.00    -0.141 A  
HETATM   19  C   UNL     1     -11.341   9.265  70.012  1.00  0.00    -0.113 A  
HETATM   20  C   UNL     1     -12.942  14.966  74.190  1.00  0.00     0.468 A  
HETATM   21  C   UNL     1     -12.651   9.598  69.669  1.00  0.00     1.054 A  
HETATM   22  N   UNL     1     -11.627  14.244  72.295  1.00  0.00     0.609 NA 
HETATM   23  C   UNL     1     -11.736  14.740  73.548  1.00  0.00     0.075 A  
HETATM   24  C   UNL     1     -13.079  10.928  69.720  1.00  0.00     0.500 A  
BRANCH  19  25
HETATM   25  O   UNL     1     -11.027   7.932  69.975  1.00  0.00    -0.249 OA 
HETATM   26  S   UNL     1      -9.523   7.399  70.313  1.00  0.00    -0.164 S  
HETATM   27  O   UNL     1      -8.748   7.425  69.090  1.00  0.00    -0.136 OA 
HETATM   28  O   UNL     1      -9.042   8.004  71.535  1.00  0.00    -0.131 OA 
HETATM   29  O   UNL     1      -9.775   5.839  70.620  1.00  0.00    -0.169 OA 
ENDBRANCH  19  25
ENDBRANCH   5   6
TORSDOF 2
ENDMDL
MODEL      103
REMARK 921   NORMALIZED FREE ENERGY PREDICTED BY IDOCK:    8.13 KCAL/MOL
REMARK 922        TOTAL FREE ENERGY PREDICTED BY IDOCK:    8.75 KCAL/MOL
REMARK 923 INTER-LIGAND FREE ENERGY PREDICTED BY IDOCK:    8.60 KCAL/MOL
REMARK 924 INTRA-LIGAND FREE ENERGY PREDICTED BY IDOCK:    0.15 KCAL/MOL
REMARK 927      BINDING AFFINITY PREDICTED BY RF-SCORE:    0.00 PKD
ROOT
HETATM    1  O   UNL     1      -8.162   8.887  62.991  1.00  0.00    -0.168 OA 
HETATM    2  S   UNL     1      -8.138  10.388  63.581  1.00  0.00    -0.059 S  
HETATM    3  O   UNL     1      -7.527  11.186  62.538  1.00  0.00     0.014 OA 
HETATM    4  O   UNL     1      -7.536  10.293  64.892  1.00  0.00    -0.143 OA 
HETATM    5  O   UNL     1      -9.716  10.768  63.719  1.00  0.00    -0.264 OA 
ENDROOT
BRANCH   5   6
HETATM    6  C   UNL     1     -10.104  11.943  64.308  1.00  0.00    -0.295 A  
HETATM    7  C   UNL     1     -11.301  12.597  64.025  1.00  0.00    -0.466 A  
HETATM    8  C   UNL     1     -11.627  13.787  64.682  1.00  0.00    -0.396 A  
HETATM    9  C   UNL     1     -10.771  14.346  65.645  1.00  0.00    -0.326 A  
HETATM   10  C   UNL     1     -11.181  15.651  66.343  1.00  0.00    -0.038 C  
HETATM   11  C   UNL     1      -9.566  13.674  65.912  1.00  0.00    -0.140 A  
HETATM   12  C   UNL     1     -10.328  16.865  65.956  1.00  0.00    -0.325 A  
HETATM   13  C   UNL     1      -9.246  12.473  65.269  1.00  0.00     0.414 A  
HETATM   14  C   UNL     1     -11.433  15.521  67.850  1.00  0.00    -0.276 A  
HETATM   15  C   UNL     1     -10.933  17.958  65.325  1.00  0.00     0.460 A  
HETATM   16  C   UNL     1     -10.401  15.219  68.750  1.00  0.00    -0.232 A  
HETATM   17  C   UNL     1     -10.158  19.056  64.963  1.00  0.00     1.938 A  
HETATM   18  C   UNL     1     -10.644  15.096  70.119  1.00  0.00    -0.227 A  
HETATM   19  C   UNL     1     -11.917  15.335  70.626  1.00  0.00    -0.343 A  
HETATM   20  C   UNL     1      -8.798  19.047  65.238  1.00  0.00     1.705 A  
HETATM   21  C   UNL     1     -12.961  15.629  69.748  1.00  0.00     0.415 A  
HETATM   22  N   UNL     1      -8.997  16.855  66.238  1.00  0.00    -0.369 NA 
HETATM   23  C   UNL     1      -8.270  17.936  65.874  1.00  0.00     0.057 A  
HETATM   24  C   UNL     1     -12.723  15.719  68.373  1.00  0.00     1.460 A  
BRANCH  19  25
HETATM   25  O   UNL     1     -12.237  15.313  71.958  1.00  0.00    -0.314 OA 
HETATM   26  S   UNL     1     -11.911  16.578  72.935  1.00  0.00    -0.082 S  
HETATM   27  O   UNL     1     -10.565  16.421  73.446  1.00  0.00     3.569 OA 
HETATM   28  O   UNL     1     -12.356  17.810  72.322  1.00  0.00     3.718 OA 
HETATM   29  O   UNL     1     -12.876  16.295  74.193  1.00  0.00    -0.689 OA 
ENDBRANCH  19  25
ENDBRANCH   5   6
TORSDOF 2
ENDMDL
MODEL      104
REMARK 921   NORMALIZED FREE ENERGY PREDICTED BY IDOCK:    8.99 KCAL/MOL
REMARK 922        TOTAL FREE ENERGY PREDICTED BY IDOCK:    9.70 KCAL/MOL
REMARK 923 INTER-LIGAND FREE ENERGY PREDICTED BY IDOCK:    9.60 KCAL/MOL
REMARK 924 INTRA-LIGAND FREE ENERGY PREDICTED BY IDOCK:    0.10 KCAL/MOL
REMARK 927      BINDING AFFINITY PREDICTED BY RF-SCORE:    0.00 PKD
ROOT
HETATM    1  O   UNL     1      -5.870   6.889  69.970  1.00  0.00    -0.022 OA 
HETATM    2  S   UNL     1      -6.082   8.313  69.245  1.00  0.00    -0.038 S  
HETATM    3  O   UNL     1      -5.843   8.053  67.841  1.00  0.00    -0.039 OA 
HETATM    4  O   UNL     1      -5.268   9.259  69.975  1.00  0.00    -0.028 OA 
HETATM    5  O   UNL     1      -7.661   8.633  69.490  1.00  0.00    -0.086 OA 
ENDROOT
BRANCH   5   6
HETATM    6  C   UNL     1      -8.198   9.837  69.115  1.00  0.00    -0.130 A  
HETATM    7  C   UNL     1      -9.333   9.968  68.319  1.00  0.00    -0.136 A  
HETATM    8  C   UNL     1      -9.823  11.236  67.992  1.00  0.00    -0.186 A  
HETATM    9  C   UNL     1      -9.198  12.402  68.463  1.00  0.00    -0.077 A  
HETATM   10  C   UNL     1      -9.783  13.770  68.081  1.00  0.00    -0.227 C  
HETATM   11  C   UNL     1      -8.052  12.249  69.261  1.00  0.00     0.603 A  
HETATM   12  C   UNL     1      -8.908  14.580  67.116  1.00  0.00    -0.229 A  
HETATM   13  C   UNL     1      -7.570  10.980  69.603  1.00  0.00     0.080 A  
HETATM   14  C   UNL     1     -10.331  14.585  69.259  1.00  0.00    -0.154 A  
HETATM   15  C   UNL     1      -9.409  14.916  65.853  1.00  0.00    -0.216 A  
HETATM   16  C   UNL     1      -9.493  15.086  70.266  1.00  0.00     0.569 A  
HETATM   17  C   UNL     1      -8.611  15.641  64.971  1.00  0.00     3.713 A  
HETATM   18  C   UNL     1     -10.004  15.820  71.338  1.00  0.00     2.106 A  
HETATM   19  C   UNL     1     -11.360  16.124  71.391  1.00  0.00    -0.258 A  
HETATM   20  C   UNL     1      -7.336  16.019  65.364  1.00  0.00     4.553 A  
HETATM   21  C   UNL     1     -12.214  15.630  70.404  1.00  0.00    -0.429 A  
HETATM   22  N   UNL     1      -7.663  14.958  67.511  1.00  0.00    -0.176 NA 
HETATM   23  C   UNL     1      -6.912  15.661  66.633  1.00  0.00     0.591 A  
HETATM   24  C   UNL     1     -11.706  14.865  69.350  1.00  0.00    -0.349 A  
BRANCH  19  25
HETATM   25  O   UNL     1     -11.943  16.900  72.359  1.00  0.00    -0.165 OA 
HETATM   26  S   UNL     1     -13.091  16.305  73.353  1.00  0.00    -0.206 S  
HETATM   27  O   UNL     1     -14.378  16.469  72.709  1.00  0.00     0.375 OA 
HETATM   28  O   UNL     1     -12.668  15.034  73.900  1.00  0.00    -0.516 OA 
HETATM   29  O   UNL     1     -13.083  17.370  74.560  1.00  0.00     0.677 OA 
ENDBRANCH  19  25
ENDBRANCH   5   6
TORSDOF 2
ENDMDL
MODEL      105
REMARK 921   NORMALIZED FREE ENERGY PREDICTED BY IDOCK:   10.33 KCAL/MOL
REMARK 922        TOTAL FREE ENERGY PREDICTED BY IDOCK:   11.20 KCAL/MOL
REMARK 923 INTER-LIGAND FREE ENERGY PREDICTED BY IDOCK:   10.53 KCAL/MOL
REMARK 924 INTRA-LIGAND FREE ENERGY PREDICTED BY IDOCK:    0.67 KCAL/MOL
REMARK 927      BINDING AFFINITY PREDICTED BY RF-SCORE:    0.00 PKD
ROOT
HETATM    1  O   UNL     1      -9.383  14.893  71.494  1.00  0.00     2.488 OA 
HETATM    2  S   UNL     1      -9.421  13.810  70.300  1.00  0.00     3.460 S  
HETATM    3  O   UNL     1      -9.743  14.577  69.115  1.00  0.00    -0.166 OA 
HETATM    4  O   UNL     1     -10.287  12.744  70.754  1.00  0.00     3.733 OA 
HETATM    5  O   UNL     1      -7.883  13.280  70.218  1.00  0.00     2.013 OA 
ENDROOT
BRANCH   5   6
HETATM    6  C   UNL     1      -7.542  12.246  69.384  1.00  0.00     0.467 A  
HETATM    7  C   UNL     1      -6.241  11.985  68.961  1.00  0.00    -0.079 A  
HETATM    8  C   UNL     1      -5.977  10.901  68.119  1.00  0.00    -0.049 A  
HETATM    9  C   UNL     1      -7.005  10.046  67.688  1.00  0.00    -0.085 A  
HETATM   10  C   UNL     1      -6.659   8.864  66.770  1.00  0.00    -0.064 C  
HETATM   11  C   UNL     1      -8.311  10.330  68.122  1.00  0.00    -0.118 A  
HETATM   12  C   UNL     1      -7.186   9.007  65.337  1.00  0.00    -0.084 A  
HETATM   13  C   UNL     1      -8.574  11.404  68.979  1.00  0.00     0.067 A  
HETATM   14  C   UNL     1      -6.898   7.481  67.387  1.00  0.00    -0.071 A  
HETATM   15  C   UNL     1      -6.279   9.055  64.273  1.00  0.00    -0.071 A  
HETATM   16  C   UNL     1      -8.186   7.022  67.699  1.00  0.00    -0.117 A  
HETATM   17  C   UNL     1      -6.756   9.197  62.972  1.00  0.00    -0.089 A  
HETATM   18  C   UNL     1      -8.391   5.763  68.268  1.00  0.00    -0.107 A  
HETATM   19  C   UNL     1      -7.313   4.909  68.478  1.00  0.00    -0.066 A  
HETATM   20  C   UNL     1      -8.123   9.284  62.757  1.00  0.00    -0.152 A  
HETATM   21  C   UNL     1      -6.022   5.348  68.183  1.00  0.00    -0.018 A  
HETATM   22  N   UNL     1      -8.529   9.081  65.131  1.00  0.00    -0.157 NA 
HETATM   23  C   UNL     1      -8.962   9.218  63.857  1.00  0.00    -0.050 A  
HETATM   24  C   UNL     1      -5.815   6.622  67.645  1.00  0.00    -0.020 A  
BRANCH  19  25
HETATM   25  O   UNL     1      -7.420   3.631  68.959  1.00  0.00    -0.053 OA 
HETATM   26  S   UNL     1      -6.140   2.850  69.601  1.00  0.00    -0.025 S  
HETATM   27  O   UNL     1      -5.428   2.189  68.528  1.00  0.00    -0.016 OA 
HETATM   28  O   UNL     1      -5.464   3.701  70.555  1.00  0.00    -0.011 OA 
HETATM   29  O   UNL     1      -6.845   1.666  70.434  1.00  0.00    -0.031 OA 
ENDBRANCH  19  25
ENDBRANCH   5   6
TORSDOF 2
ENDMDL
MODEL      106
REMARK 921   NORMALIZED FREE ENERGY PREDICTED BY IDOCK:   10.34 KCAL/MOL
REMARK 922        TOTAL FREE ENERGY PREDICTED BY IDOCK:   11.21 KCAL/MOL
REMARK 923 INTER-LIGAND FREE ENERGY PREDICTED BY IDOCK:   11.03 KCAL/MOL
REMARK 924 INTRA-LIGAND FREE ENERGY PREDICTED BY IDOCK:    0.19 KCAL/MOL
REMARK 927      BINDING AFFINITY PREDICTED BY RF-SCORE:    0.00 PKD
ROOT
HETATM    1  O   UNL     1     -10.992   7.693  64.677  1.00  0.00     8.311 OA 
HETATM    2  S   UNL     1     -10.409   8.665  65.823  1.00  0.00     1.491 S  
HETATM    3  O   UNL     1      -9.028   8.261  65.984  1.00  0.00    -0.168 OA 
HETATM    4  O   UNL     1     -11.340   8.586  66.927  1.00  0.00     0.701 OA 
HETATM    5  O   UNL     1     -10.480  10.143  65.141  1.00  0.00    -0.178 OA 
ENDROOT
BRANCH   5   6
HETATM    6  C   UNL     1     -10.174  11.265  65.867  1.00  0.00    -0.249 A  
HETATM    7  C   UNL     1     -10.084  12.543  65.322  1.00  0.00    -0.275 A  
HETATM    8  C   UNL     1      -9.779  13.638  66.137  1.00  0.00    -0.269 A  
HETATM    9  C   UNL     1      -9.568  13.482  67.516  1.00  0.00    -0.221 A  
HETATM   10  C   UNL     1      -9.244  14.719  68.368  1.00  0.00    -0.189 C  
HETATM   11  C   UNL     1      -9.658  12.184  68.046  1.00  0.00    -0.204 A  
HETATM   12  C   UNL     1      -7.808  14.754  68.903  1.00  0.00    -0.152 A  
HETATM   13  C   UNL     1      -9.981  11.090  67.235  1.00  0.00    -0.210 A  
HETATM   14  C   UNL     1     -10.308  15.075  69.413  1.00  0.00    -0.241 A  
HETATM   15  C   UNL     1      -6.955  15.795  68.516  1.00  0.00    -0.117 A  
HETATM   16  C   UNL     1     -10.580  14.241  70.507  1.00  0.00     0.856 A  
HETATM   17  C   UNL     1      -5.647  15.821  68.992  1.00  0.00    -0.104 A  
HETATM   18  C   UNL     1     -11.556  14.572  71.448  1.00  0.00    -0.117 A  
HETATM   19  C   UNL     1     -12.239  15.780  71.350  1.00  0.00    -0.445 A  
HETATM   20  C   UNL     1      -5.215  14.817  69.845  1.00  0.00    -0.094 A  
HETATM   21  C   UNL     1     -11.991  16.622  70.265  1.00  0.00     0.944 A  
HETATM   22  N   UNL     1      -7.393  13.772  69.747  1.00  0.00     0.354 NA 
HETATM   23  C   UNL     1      -6.117  13.825  70.193  1.00  0.00    -0.139 A  
HETATM   24  C   UNL     1     -11.037  16.273  69.304  1.00  0.00    -0.325 A  
BRANCH  19  25
HETATM   25  O   UNL     1     -13.157  16.227  72.262  1.00  0.00    -0.265 OA 
HETATM   26  S   UNL     1     -12.848  16.207  73.864  1.00  0.00    -0.371 S  
HETATM   27  O   UNL     1     -13.236  14.913  74.385  1.00  0.00     0.555 OA 
HETATM   28  O   UNL     1     -11.545  16.778  74.127  1.00  0.00     0.123 OA 
HETATM   29  O   UNL     1     -13.945  17.239  74.436  1.00  0.00     2.028 OA 
ENDBRANCH  19  25
ENDBRANCH   5   6
TORSDOF 2
ENDMDL
MODEL      107
REMARK 921   NORMALIZED FREE ENERGY PREDICTED BY IDOCK:   10.88 KCAL/MOL
REMARK 922        TOTAL FREE ENERGY PREDICTED BY IDOCK:   11.81 KCAL/MOL
REMARK 923 INTER-LIGAND FREE ENERGY PREDICTED BY IDOCK:   11.17 KCAL/MOL
REMARK 924 INTRA-LIGAND FREE ENERGY PREDICTED BY IDOCK:    0.65 KCAL/MOL
REMARK 927      BINDING AFFINITY PREDICTED BY RF-SCORE:    0.00 PKD
ROOT
HETATM    1  O   UNL     1      -9.098  11.689  62.914  1.00  0.00    -0.277 OA 
HETATM    2  S   UNL     1      -9.349  11.973  64.481  1.00  0.00     0.388 S  
HETATM    3  O   UNL     1      -9.835  13.336  64.536  1.00  0.00    -0.160 OA 
HETATM    4  O   UNL     1      -8.129  11.592  65.157  1.00  0.00     0.470 OA 
HETATM    5  O   UNL     1     -10.547  10.940  64.868  1.00  0.00    -0.302 OA 
ENDROOT
BRANCH   5   6
HETATM    6  C   UNL     1     -10.961  10.803  66.169  1.00  0.00     0.033 A  
HETATM    7  C   UNL     1     -12.240  10.395  66.539  1.00  0.00     4.351 A  
HETATM    8  C   UNL     1     -12.576  10.269  67.890  1.00  0.00     4.343 A  
HETATM    9  C   UNL     1     -11.640  10.535  68.902  1.00  0.00    -0.266 A  
HETATM   10  C   UNL     1     -12.059  10.372  70.371  1.00  0.00    -0.402 C  
HETATM   11  C   UNL     1     -10.356  10.950  68.508  1.00  0.00    -0.203 A  
HETATM   12  C   UNL     1     -12.163  11.692  71.144  1.00  0.00    -0.144 A  
HETATM   13  C   UNL     1     -10.012  11.060  67.156  1.00  0.00    -0.218 A  
HETATM   14  C   UNL     1     -11.321   9.262  71.129  1.00  0.00    -0.412 A  
HETATM   15  C   UNL     1     -13.398  12.082  71.675  1.00  0.00    -0.237 A  
HETATM   16  C   UNL     1      -9.948   9.337  71.401  1.00  0.00    -0.323 A  
HETATM   17  C   UNL     1     -13.496  13.286  72.368  1.00  0.00    -0.670 A  
HETATM   18  C   UNL     1      -9.285   8.316  72.086  1.00  0.00    -0.289 A  
HETATM   19  C   UNL     1      -9.998   7.225  72.570  1.00  0.00    -0.177 A  
HETATM   20  C   UNL     1     -12.366  14.075  72.521  1.00  0.00    -0.008 A  
HETATM   21  C   UNL     1     -11.364   7.125  72.305  1.00  0.00    -0.303 A  
HETATM   22  N   UNL     1     -11.049  12.456  71.300  1.00  0.00     3.271 NA 
HETATM   23  C   UNL     1     -11.176  13.620  71.977  1.00  0.00     3.537 A  
HETATM   24  C   UNL     1     -12.020   8.132  71.589  1.00  0.00    -0.340 A  
BRANCH  19  25
HETATM   25  O   UNL     1      -9.453   6.214  73.316  1.00  0.00    -0.142 OA 
HETATM   26  S   UNL     1      -7.877   5.814  73.190  1.00  0.00    -0.103 S  
HETATM   27  O   UNL     1      -7.738   4.849  72.120  1.00  0.00    -0.090 OA 
HETATM   28  O   UNL     1      -7.054   7.002  73.259  1.00  0.00    -0.074 OA 
HETATM   29  O   UNL     1      -7.626   4.981  74.545  1.00  0.00    -0.088 OA 
ENDBRANCH  19  25
ENDBRANCH   5   6
TORSDOF 2
ENDMDL
MODEL      108
REMARK 921   NORMALIZED FREE ENERGY PREDICTED BY IDOCK:   11.89 KCAL/MOL
REMARK 922        TOTAL FREE ENERGY PREDICTED BY IDOCK:   12.94 KCAL/MOL
REMARK 923 INTER-LIGAND FREE ENERGY PREDICTED BY IDOCK:   13.28 KCAL/MOL
REMARK 924 INTRA-LIGAND FREE ENERGY PREDICTED BY IDOCK:   -0.35 KCAL/MOL
REMARK 927      BINDING AFFINITY PREDICTED BY RF-SCORE:    0.00 PKD
ROOT
HETATM    1  O   UNL     1     -10.382   5.949  69.957  1.00  0.00    -0.203 OA 
HETATM    2  S   UNL     1     -10.768   7.484  70.269  1.00  0.00    -0.240 S  
HETATM    3  O   UNL     1      -9.795   7.919  71.248  1.00  0.00    -0.167 OA 
HETATM    4  O   UNL     1     -12.182   7.487  70.574  1.00  0.00    -0.103 OA 
HETATM    5  O   UNL     1     -10.504   8.238  68.849  1.00  0.00    -0.221 OA 
ENDROOT
BRANCH   5   6
HETATM    6  C   UNL     1     -10.839   9.558  68.684  1.00  0.00    -0.139 A  
HETATM    7  C   UNL     1     -12.077   9.993  68.221  1.00  0.00     1.603 A  
HETATM    8  C   UNL     1     -12.342  11.360  68.094  1.00  0.00     0.580 A  
HETATM    9  C   UNL     1     -11.380  12.323  68.438  1.00  0.00    -0.340 A  
HETATM   10  C   UNL     1     -11.726  13.813  68.287  1.00  0.00    -0.394 C  
HETATM   11  C   UNL     1     -10.135  11.863  68.899  1.00  0.00    -0.060 A  
HETATM   12  C   UNL     1     -10.960  14.524  67.166  1.00  0.00    -0.304 A  
HETATM   13  C   UNL     1      -9.874  10.496  69.043  1.00  0.00    -0.224 A  
HETATM   14  C   UNL     1     -11.774  14.596  69.604  1.00  0.00    -0.358 A  
HETATM   15  C   UNL     1     -11.669  15.080  66.095  1.00  0.00    -0.091 A  
HETATM   16  C   UNL     1     -10.626  14.814  70.379  1.00  0.00     0.122 A  
HETATM   17  C   UNL     1     -10.975  15.717  65.070  1.00  0.00    -0.445 A  
HETATM   18  C   UNL     1     -10.683  15.523  71.580  1.00  0.00     0.337 A  
HETATM   19  C   UNL     1     -11.883  16.085  72.001  1.00  0.00    -0.533 A  
HETATM   20  C   UNL     1      -9.591  15.791  65.132  1.00  0.00     0.332 A  
HETATM   21  C   UNL     1     -13.040  15.875  71.251  1.00  0.00    -0.164 A  
HETATM   22  N   UNL     1      -9.604  14.603  67.238  1.00  0.00    -0.217 NA 
HETATM   23  C   UNL     1      -8.957  15.227  66.227  1.00  0.00    -0.279 A  
HETATM   24  C   UNL     1     -12.988  15.135  70.065  1.00  0.00    -0.030 A  
BRANCH  19  25
HETATM   25  O   UNL     1     -12.024  16.859  73.123  1.00  0.00    -0.349 OA 
HETATM   26  S   UNL     1     -11.033  18.120  73.420  1.00  0.00     3.180 S  
HETATM   27  O   UNL     1      -9.873  17.627  74.132  1.00  0.00     7.362 OA 
HETATM   28  O   UNL     1     -10.911  18.947  72.240  1.00  0.00     2.252 OA 
HETATM   29  O   UNL     1     -11.870  18.963  74.508  1.00  0.00     2.374 OA 
ENDBRANCH  19  25
ENDBRANCH   5   6
TORSDOF 2
ENDMDL
MODEL      109
REMARK 921   NORMALIZED FREE ENERGY PREDICTED BY IDOCK:   11.95 KCAL/MOL
REMARK 922        TOTAL FREE ENERGY PREDICTED BY IDOCK:   13.00 KCAL/MOL
REMARK 923 INTER-LIGAND FREE ENERGY PREDICTED BY IDOCK:   13.18 KCAL/MOL
REMARK 924 INTRA-LIGAND FREE ENERGY PREDICTED BY IDOCK:   -0.17 KCAL/MOL
REMARK 927      BINDING AFFINITY PREDICTED BY RF-SCORE:    0.00 PKD
ROOT
HETATM    1  O   UNL     1     -11.291  16.612  63.640  1.00  0.00    -0.643 OA 
HETATM    2  S   UNL     1     -11.254  15.167  64.355  1.00  0.00    -0.051 S  
HETATM    3  O   UNL     1      -9.875  14.738  64.250  1.00  0.00     0.565 OA 
HETATM    4  O   UNL     1     -12.320  14.396  63.755  1.00  0.00    -0.736 OA 
HETATM    5  O   UNL     1     -11.615  15.502  65.908  1.00  0.00    -0.025 OA 
ENDROOT
BRANCH   5   6
HETATM    6  C   UNL     1     -11.798  14.493  66.818  1.00  0.00    -0.371 A  
HETATM    7  C   UNL     1     -12.799  13.529  66.720  1.00  0.00     0.569 A  
HETATM    8  C   UNL     1     -12.908  12.525  67.686  1.00  0.00     2.454 A  
HETATM    9  C   UNL     1     -12.013  12.453  68.766  1.00  0.00    -0.276 A  
HETATM   10  C   UNL     1     -12.172  11.323  69.795  1.00  0.00    -0.343 C  
HETATM   11  C   UNL     1     -11.013  13.437  68.849  1.00  0.00    -0.284 A  
HETATM   12  C   UNL     1     -12.642  11.794  71.176  1.00  0.00    -0.309 A  
HETATM   13  C   UNL     1     -10.892  14.433  67.874  1.00  0.00    -0.256 A  
HETATM   14  C   UNL     1     -11.007  10.327  69.839  1.00  0.00    -0.358 A  
HETATM   15  C   UNL     1     -13.864  11.333  71.680  1.00  0.00     0.597 A  
HETATM   16  C   UNL     1      -9.726  10.703  70.267  1.00  0.00     0.798 A  
HETATM   17  C   UNL     1     -14.298  11.769  72.929  1.00  0.00     2.082 A  
HETATM   18  C   UNL     1      -8.671   9.789  70.296  1.00  0.00    -0.172 A  
HETATM   19  C   UNL     1      -8.893   8.459  69.957  1.00  0.00    -0.137 A  
HETATM   20  C   UNL     1     -13.508  12.650  73.652  1.00  0.00     5.856 A  
HETATM   21  C   UNL     1     -10.157   8.063  69.520  1.00  0.00    -0.196 A  
HETATM   22  N   UNL     1     -11.858  12.650  71.885  1.00  0.00     1.732 NA 
HETATM   23  C   UNL     1     -12.307  13.056  73.095  1.00  0.00     3.003 A  
HETATM   24  C   UNL     1     -11.204   8.987  69.459  1.00  0.00     0.053 A  
BRANCH  19  25
HETATM   25  O   UNL     1      -7.943   7.474  70.026  1.00  0.00    -0.107 OA 
HETATM   26  S   UNL     1      -7.079   7.028  68.716  1.00  0.00    -0.091 S  
HETATM   27  O   UNL     1      -7.821   6.006  68.010  1.00  0.00    -0.103 OA 
HETATM   28  O   UNL     1      -6.557   8.197  68.042  1.00  0.00    -0.055 OA 
HETATM   29  O   UNL     1      -5.827   6.261  69.378  1.00  0.00    -0.019 OA 
ENDBRANCH  19  25
ENDBRANCH   5   6
TORSDOF 2
ENDMDL
MODEL      110
REMARK 921   NORMALIZED FREE ENERGY PREDICTED BY IDOCK:   13.23 KCAL/MOL
REMARK 922        TOTAL FREE ENERGY PREDICTED BY IDOCK:   14.44 KCAL/MOL
REMARK 923 INTER-LIGAND FREE ENERGY PREDICTED BY IDOCK:   14.81 KCAL/MOL
REMARK 924 INTRA-LIGAND FREE ENERGY PREDICTED BY IDOCK:   -0.37 KCAL/MOL
REMARK 927      BINDING AFFINITY PREDICTED BY RF-SCORE:    0.00 PKD
ROOT
HETATM    1  O   UNL     1      -9.703  12.475  62.737  1.00  0.00     0.414 OA 
HETATM    2  S   UNL     1      -9.652  11.359  63.900  1.00  0.00    -0.191 S  
HETATM    3  O   UNL     1      -8.759  10.338  63.394  1.00  0.00    -0.173 OA 
HETATM    4  O   UNL     1     -11.028  11.051  64.219  1.00  0.00    -0.309 OA 
HETATM    5  O   UNL     1      -8.953  12.141  65.147  1.00  0.00     0.296 OA 
ENDROOT
BRANCH   5   6
HETATM    6  C   UNL     1      -8.845  11.542  66.376  1.00  0.00    -0.193 A  
HETATM    7  C   UNL     1      -9.858  11.538  67.331  1.00  0.00    -0.202 A  
HETATM    8  C   UNL     1      -9.670  10.893  68.557  1.00  0.00    -0.183 A  
HETATM    9  C   UNL     1      -8.469  10.226  68.852  1.00  0.00    -0.138 A  
HETATM   10  C   UNL     1      -8.318   9.525  70.211  1.00  0.00    -0.221 C  
HETATM   11  C   UNL     1      -7.458  10.245  67.877  1.00  0.00    -0.088 A  
HETATM   12  C   UNL     1      -7.313  10.197  71.155  1.00  0.00     1.112 A  
HETATM   13  C   UNL     1      -7.651  10.876  66.643  1.00  0.00    -0.139 A  
HETATM   14  C   UNL     1      -8.177   8.000  70.133  1.00  0.00    -0.120 A  
HETATM   15  C   UNL     1      -7.758  10.710  72.378  1.00  0.00     7.640 A  
HETATM   16  C   UNL     1      -7.057   7.388  69.553  1.00  0.00    -0.069 A  
HETATM   17  C   UNL     1      -6.850  11.331  73.231  1.00  0.00     7.120 A  
HETATM   18  C   UNL     1      -6.944   5.998  69.482  1.00  0.00    -0.067 A  
HETATM   19  C   UNL     1      -7.923   5.189  70.049  1.00  0.00    -0.082 A  
HETATM   20  C   UNL     1      -5.519  11.424  72.853  1.00  0.00     1.066 A  
HETATM   21  C   UNL     1      -9.050   5.776  70.624  1.00  0.00    -0.164 A  
HETATM   22  N   UNL     1      -6.007  10.275  70.783  1.00  0.00    -0.153 NA 
HETATM   23  C   UNL     1      -5.149  10.884  71.633  1.00  0.00    -0.021 A  
HETATM   24  C   UNL     1      -9.179   7.167  70.664  1.00  0.00    -0.158 A  
BRANCH  19  25
HETATM   25  O   UNL     1      -7.864   3.821  70.096  1.00  0.00    -0.048 OA 
HETATM   26  S   UNL     1      -6.814   3.045  71.074  1.00  0.00    -0.033 S  
HETATM   27  O   UNL     1      -5.563   2.888  70.363  1.00  0.00    -0.015 OA 
HETATM   28  O   UNL     1      -6.870   3.602  72.408  1.00  0.00    -0.037 OA 
HETATM   29  O   UNL     1      -7.447   1.566  71.148  1.00  0.00    -0.032 OA 
ENDBRANCH  19  25
ENDBRANCH   5   6
TORSDOF 2
ENDMDL
MODEL      111
REMARK 921   NORMALIZED FREE ENERGY PREDICTED BY IDOCK:   15.39 KCAL/MOL
REMARK 922        TOTAL FREE ENERGY PREDICTED BY IDOCK:   16.85 KCAL/MOL
REMARK 923 INTER-LIGAND FREE ENERGY PREDICTED BY IDOCK:   16.51 KCAL/MOL
REMARK 924 INTRA-LIGAND FREE ENERGY PREDICTED BY IDOCK:    0.34 KCAL/MOL
REMARK 927      BINDING AFFINITY PREDICTED BY RF-SCORE:    0.00 PKD
ROOT
HETATM    1  O   UNL     1     -10.288  15.441  64.291  1.00  0.00     0.169 OA 
HETATM    2  S   UNL     1      -9.205  14.247  64.272  1.00  0.00     5.244 S  
HETATM    3  O   UNL     1      -7.973  14.858  64.725  1.00  0.00     6.417 OA 
HETATM    4  O   UNL     1      -9.296  13.644  62.961  1.00  0.00     5.021 OA 
HETATM    5  O   UNL     1      -9.760  13.212  65.401  1.00  0.00    -0.151 OA 
ENDROOT
BRANCH   5   6
HETATM    6  C   UNL     1      -9.157  11.996  65.593  1.00  0.00     0.078 A  
HETATM    7  C   UNL     1      -7.944  11.629  65.016  1.00  0.00     1.258 A  
HETATM    8  C   UNL     1      -7.391  10.372  65.275  1.00  0.00    -0.108 A  
HETATM    9  C   UNL     1      -8.032   9.455  66.124  1.00  0.00    -0.110 A  
HETATM   10  C   UNL     1      -7.377   8.089  66.381  1.00  0.00    -0.083 C  
HETATM   11  C   UNL     1      -9.257   9.842  66.693  1.00  0.00    -0.184 A  
HETATM   12  C   UNL     1      -8.128   6.906  65.758  1.00  0.00    -0.123 A  
HETATM   13  C   UNL     1      -9.803  11.107  66.449  1.00  0.00    -0.248 A  
HETATM   14  C   UNL     1      -6.932   7.853  67.830  1.00  0.00    -0.074 A  
HETATM   15  C   UNL     1      -7.493   6.124  64.787  1.00  0.00    -0.084 A  
HETATM   16  C   UNL     1      -7.856   7.746  68.879  1.00  0.00    -0.122 A  
HETATM   17  C   UNL     1      -8.177   5.056  64.212  1.00  0.00    -0.128 A  
HETATM   18  C   UNL     1      -7.439   7.539  70.196  1.00  0.00    -0.086 A  
HETATM   19  C   UNL     1      -6.088   7.370  70.481  1.00  0.00    -0.031 A  
HETATM   20  C   UNL     1      -9.476   4.786  64.617  1.00  0.00     0.005 A  
HETATM   21  C   UNL     1      -5.151   7.480  69.453  1.00  0.00    -0.015 A  
HETATM   22  N   UNL     1      -9.397   6.640  66.168  1.00  0.00    -0.109 NA 
HETATM   23  C   UNL     1     -10.036   5.596  65.591  1.00  0.00     0.349 A  
HETATM   24  C   UNL     1      -5.567   7.722  68.140  1.00  0.00    -0.032 A  
BRANCH  19  25
HETATM   25  O   UNL     1      -5.589   7.087  71.725  1.00  0.00    -0.035 OA 
HETATM   26  S   UNL     1      -6.128   7.860  73.056  1.00  0.00    -0.070 S  
HETATM   27  O   UNL     1      -5.352   9.071  73.223  1.00  0.00    -0.085 OA 
HETATM   28  O   UNL     1      -7.574   7.871  73.075  1.00  0.00    -0.103 OA 
HETATM   29  O   UNL     1      -5.643   6.881  74.239  1.00  0.00    -0.054 OA 
ENDBRANCH  19  25
ENDBRANCH   5   6
TORSDOF 2
ENDMDL
MODEL      112
REMARK 921   NORMALIZED FREE ENERGY PREDICTED BY IDOCK:   16.04 KCAL/MOL
REMARK 922        TOTAL FREE ENERGY PREDICTED BY IDOCK:   17.57 KCAL/MOL
REMARK 923 INTER-LIGAND FREE ENERGY PREDICTED BY IDOCK:   17.74 KCAL/MOL
REMARK 924 INTRA-LIGAND FREE ENERGY PREDICTED BY IDOCK:   -0.17 KCAL/MOL
REMARK 927      BINDING AFFINITY PREDICTED BY RF-SCORE:    0.00 PKD
ROOT
HETATM    1  O   UNL     1     -10.725  15.796  71.389  1.00  0.00     0.014 OA 
HETATM    2  S   UNL     1     -11.571  14.425  71.452  1.00  0.00     0.290 S  
HETATM    3  O   UNL     1     -12.924  14.808  71.109  1.00  0.00    -0.320 OA 
HETATM    4  O   UNL     1     -11.270  13.828  72.735  1.00  0.00     2.858 OA 
HETATM    5  O   UNL     1     -10.928  13.525  70.255  1.00  0.00     0.357 OA 
ENDROOT
BRANCH   5   6
HETATM    6  C   UNL     1     -11.315  12.223  70.073  1.00  0.00     0.079 A  
HETATM    7  C   UNL     1     -12.588  11.840  69.660  1.00  0.00     0.146 A  
HETATM    8  C   UNL     1     -12.897  10.488  69.486  1.00  0.00     0.544 A  
HETATM    9  C   UNL     1     -11.937   9.487  69.709  1.00  0.00     0.324 A  
HETATM   10  C   UNL     1     -12.327   8.016  69.495  1.00  0.00     2.085 C  
HETATM   11  C   UNL     1     -10.660   9.893  70.131  1.00  0.00    -0.350 A  
HETATM   12  C   UNL     1     -12.406   7.193  70.786  1.00  0.00    -0.229 A  
HETATM   13  C   UNL     1     -10.344  11.247  70.289  1.00  0.00     1.259 A  
HETATM   14  C   UNL     1     -11.580   7.315  68.353  1.00  0.00     0.831 A  
HETATM   15  C   UNL     1     -13.627   6.622  71.163  1.00  0.00     0.288 A  
HETATM   16  C   UNL     1     -10.201   7.070  68.411  1.00  0.00    -0.196 A  
HETATM   17  C   UNL     1     -13.703   5.884  72.342  1.00  0.00     0.903 A  
HETATM   18  C   UNL     1      -9.531   6.438  67.362  1.00  0.00    -0.123 A  
HETATM   19  C   UNL     1     -10.241   5.978  66.258  1.00  0.00     0.010 A  
HETATM   20  C   UNL     1     -12.565   5.727  73.118  1.00  0.00     1.197 A  
HETATM   21  C   UNL     1     -11.613   6.217  66.175  1.00  0.00     1.930 A  
HETATM   22  N   UNL     1     -11.283   7.033  71.538  1.00  0.00    -0.243 NA 
HETATM   23  C   UNL     1     -11.389   6.312  72.677  1.00  0.00    -0.247 A  
HETATM   24  C   UNL     1     -12.277   6.882  67.211  1.00  0.00     4.077 A  
BRANCH  19  25
HETATM   25  O   UNL     1      -9.687   5.281  65.216  1.00  0.00     0.015 OA 
HETATM   26  S   UNL     1      -8.739   6.013  64.108  1.00  0.00     0.451 S  
HETATM   27  O   UNL     1      -9.590   6.538  63.061  1.00  0.00     1.965 OA 
HETATM   28  O   UNL     1      -7.743   6.830  64.765  1.00  0.00    -0.097 OA 
HETATM   29  O   UNL     1      -7.969   4.766  63.441  1.00  0.00    -0.076 OA 
ENDBRANCH  19  25
ENDBRANCH   5   6
TORSDOF 2
ENDMDL
MODEL      113
REMARK 921   NORMALIZED FREE ENERGY PREDICTED BY IDOCK:   18.06 KCAL/MOL
REMARK 922        TOTAL FREE ENERGY PREDICTED BY IDOCK:   19.84 KCAL/MOL
REMARK 923 INTER-LIGAND FREE ENERGY PREDICTED BY IDOCK:   20.10 KCAL/MOL
REMARK 924 INTRA-LIGAND FREE ENERGY PREDICTED BY IDOCK:   -0.27 KCAL/MOL
REMARK 927      BINDING AFFINITY PREDICTED BY RF-SCORE:    0.00 PKD
ROOT
HETATM    1  O   UNL     1      -7.597  20.556  71.056  1.00  0.00     0.532 OA 
HETATM    2  S   UNL     1      -7.651  18.952  70.911  1.00  0.00     3.663 S  
HETATM    3  O   UNL     1      -8.944  18.575  71.442  1.00  0.00     6.431 OA 
HETATM    4  O   UNL     1      -6.430  18.455  71.505  1.00  0.00     1.669 OA 
HETATM    5  O   UNL     1      -7.621  18.714  69.299  1.00  0.00    -0.162 OA 
ENDROOT
BRANCH   5   6
HETATM    6  C   UNL     1      -7.533  17.448  68.779  1.00  0.00    -0.258 A  
HETATM    7  C   UNL     1      -6.424  16.967  68.089  1.00  0.00    -0.148 A  
HETATM    8  C   UNL     1      -6.411  15.657  67.602  1.00  0.00    -0.189 A  
HETATM    9  C   UNL     1      -7.500  14.794  67.802  1.00  0.00    -0.178 A  
HETATM   10  C   UNL     1      -7.430  13.361  67.253  1.00  0.00    -0.062 C  
HETATM   11  C   UNL     1      -8.612  15.300  68.497  1.00  0.00    -0.167 A  
HETATM   12  C   UNL     1      -8.383  13.090  66.082  1.00  0.00     0.951 A  
HETATM   13  C   UNL     1      -8.620  16.606  69.000  1.00  0.00    -0.190 A  
HETATM   14  C   UNL     1      -7.431  12.263  68.324  1.00  0.00    -0.119 A  
HETATM   15  C   UNL     1      -7.856  12.732  64.836  1.00  0.00     5.329 A  
HETATM   16  C   UNL     1      -8.544  12.027  69.142  1.00  0.00     0.490 A  
HETATM   17  C   UNL     1      -8.719  12.497  63.769  1.00  0.00     2.541 A  
HETATM   18  C   UNL     1      -8.530  11.029  70.119  1.00  0.00     1.602 A  
HETATM   19  C   UNL     1      -7.421  10.202  70.254  1.00  0.00    -0.062 A  
HETATM   20  C   UNL     1     -10.086  12.620  63.963  1.00  0.00    -0.280 A  
HETATM   21  C   UNL     1      -6.298  10.423  69.456  1.00  0.00    -0.059 A  
HETATM   22  N   UNL     1      -9.724  13.201  66.282  1.00  0.00    -0.275 NA 
HETATM   23  C   UNL     1     -10.537  12.967  65.226  1.00  0.00    -0.304 A  
HETATM   24  C   UNL     1      -6.300  11.445  68.501  1.00  0.00    -0.047 A  
BRANCH  19  25
HETATM   25  O   UNL     1      -7.341   9.150  71.128  1.00  0.00    -0.160 OA 
HETATM   26  S   UNL     1      -8.096   7.735  70.832  1.00  0.00    -0.104 S  
HETATM   27  O   UNL     1      -9.445   7.823  71.352  1.00  0.00    -0.147 OA 
HETATM   28  O   UNL     1      -7.825   7.298  69.480  1.00  0.00    -0.113 OA 
HETATM   29  O   UNL     1      -7.327   6.724  71.823  1.00  0.00    -0.083 OA 
ENDBRANCH  19  25
ENDBRANCH   5   6
TORSDOF 2
ENDMDL
MODEL      114
REMARK 921   NORMALIZED FREE ENERGY PREDICTED BY IDOCK:   18.66 KCAL/MOL
REMARK 922        TOTAL FREE ENERGY PREDICTED BY IDOCK:   20.50 KCAL/MOL
REMARK 923 INTER-LIGAND FREE ENERGY PREDICTED BY IDOCK:   20.61 KCAL/MOL
REMARK 924 INTRA-LIGAND FREE ENERGY PREDICTED BY IDOCK:   -0.12 KCAL/MOL
REMARK 927      BINDING AFFINITY PREDICTED BY RF-SCORE:    0.00 PKD
ROOT
HETATM    1  O   UNL     1     -11.947  18.879  66.658  1.00  0.00     1.946 OA 
HETATM    2  S   UNL     1     -12.146  17.289  66.481  1.00  0.00     3.963 S  
HETATM    3  O   UNL     1     -11.818  17.027  65.096  1.00  0.00     0.806 OA 
HETATM    4  O   UNL     1     -13.461  16.989  67.003  1.00  0.00     7.041 OA 
HETATM    5  O   UNL     1     -11.004  16.652  67.453  1.00  0.00    -0.238 OA 
ENDROOT
BRANCH   5   6
HETATM    6  C   UNL     1     -10.938  15.298  67.662  1.00  0.00    -0.311 A  
HETATM    7  C   UNL     1     -12.041  14.502  67.956  1.00  0.00    -0.233 A  
HETATM    8  C   UNL     1     -11.888  13.125  68.143  1.00  0.00    -0.386 A  
HETATM    9  C   UNL     1     -10.631  12.510  68.029  1.00  0.00    -0.237 A  
HETATM   10  C   UNL     1     -10.519  10.992  68.235  1.00  0.00    -0.212 C  
HETATM   11  C   UNL     1      -9.529  13.332  67.737  1.00  0.00    -0.208 A  
HETATM   12  C   UNL     1      -9.778  10.585  69.515  1.00  0.00    -0.119 A  
HETATM   13  C   UNL     1      -9.683  14.707  67.532  1.00  0.00    -0.210 A  
HETATM   14  C   UNL     1     -10.093  10.205  66.991  1.00  0.00    -0.277 A  
HETATM   15  C   UNL     1     -10.455   9.856  70.499  1.00  0.00    -0.330 A  
HETATM   16  C   UNL     1      -8.817  10.346  66.426  1.00  0.00    -0.159 A  
HETATM   17  C   UNL     1      -9.787   9.496  71.666  1.00  0.00     0.340 A  
HETATM   18  C   UNL     1      -8.442   9.629  65.288  1.00  0.00    -0.155 A  
HETATM   19  C   UNL     1      -9.317   8.706  64.726  1.00  0.00     0.581 A  
HETATM   20  C   UNL     1      -8.460   9.865  71.829  1.00  0.00     2.555 A  
HETATM   21  C   UNL     1     -10.595   8.554  65.266  1.00  0.00     3.590 A  
HETATM   22  N   UNL     1      -8.473  10.940  69.664  1.00  0.00     0.208 NA 
HETATM   23  C   UNL     1      -7.851  10.576  70.808  1.00  0.00     1.778 A  
HETATM   24  C   UNL     1     -10.981   9.298  66.386  1.00  0.00     0.592 A  
BRANCH  19  25
HETATM   25  O   UNL     1      -9.015   7.903  63.658  1.00  0.00     0.636 OA 
HETATM   26  S   UNL     1      -7.900   6.718  63.771  1.00  0.00    -0.076 S  
HETATM   27  O   UNL     1      -6.602   7.287  63.473  1.00  0.00    -0.051 OA 
HETATM   28  O   UNL     1      -8.132   5.925  64.958  1.00  0.00    -0.120 OA 
HETATM   29  O   UNL     1      -8.256   5.792  62.502  1.00  0.00    -0.101 OA 
ENDBRANCH  19  25
ENDBRANCH   5   6
TORSDOF 2
ENDMDL
MODEL      115
REMARK 921   NORMALIZED FREE ENERGY PREDICTED BY IDOCK:   20.44 KCAL/MOL
REMARK 922        TOTAL FREE ENERGY PREDICTED BY IDOCK:   22.49 KCAL/MOL
REMARK 923 INTER-LIGAND FREE ENERGY PREDICTED BY IDOCK:   22.73 KCAL/MOL
REMARK 924 INTRA-LIGAND FREE ENERGY PREDICTED BY IDOCK:   -0.25 KCAL/MOL
REMARK 927      BINDING AFFINITY PREDICTED BY RF-SCORE:    0.00 PKD
ROOT
HETATM    1  O   UNL     1     -11.270   6.617  70.912  1.00  0.00    -0.267 OA 
HETATM    2  S   UNL     1     -10.590   7.489  69.739  1.00  0.00    -0.239 S  
HETATM    3  O   UNL     1     -11.109   6.926  68.510  1.00  0.00    -0.168 OA 
HETATM    4  O   UNL     1      -9.170   7.491  70.013  1.00  0.00    -0.151 OA 
HETATM    5  O   UNL     1     -11.203   8.981  69.969  1.00  0.00    -0.221 OA 
ENDROOT
BRANCH   5   6
HETATM    6  C   UNL     1     -10.759  10.044  69.224  1.00  0.00    -0.224 A  
HETATM    7  C   UNL     1     -10.750  10.068  67.832  1.00  0.00    -0.322 A  
HETATM    8  C   UNL     1     -10.292  11.198  67.149  1.00  0.00    -0.249 A  
HETATM    9  C   UNL     1      -9.843  12.335  67.841  1.00  0.00    -0.201 A  
HETATM   10  C   UNL     1      -9.358  13.554  67.042  1.00  0.00    -0.247 C  
HETATM   11  C   UNL     1      -9.856  12.289  69.245  1.00  0.00     0.562 A  
HETATM   12  C   UNL     1      -7.849  13.810  67.141  1.00  0.00    -0.008 A  
HETATM   13  C   UNL     1     -10.330  11.165  69.931  1.00  0.00     0.380 A  
HETATM   14  C   UNL     1     -10.217  14.813  67.208  1.00  0.00    -0.241 A  
HETATM   15  C   UNL     1      -7.065  13.751  65.984  1.00  0.00     4.787 A  
HETATM   16  C   UNL     1     -10.303  15.494  68.431  1.00  0.00    -0.230 A  
HETATM   17  C   UNL     1      -5.693  13.972  66.075  1.00  0.00     6.682 A  
HETATM   18  C   UNL     1     -11.093  16.636  68.573  1.00  0.00    -0.301 A  
HETATM   19  C   UNL     1     -11.767  17.159  67.474  1.00  0.00     1.114 A  
HETATM   20  C   UNL     1      -5.131  14.250  67.312  1.00  0.00     0.625 A  
HETATM   21  C   UNL     1     -11.702  16.494  66.250  1.00  0.00     1.356 A  
HETATM   22  N   UNL     1      -7.306  14.092  68.356  1.00  0.00    -0.105 NA 
HETATM   23  C   UNL     1      -5.971  14.302  68.412  1.00  0.00    -0.103 A  
HETATM   24  C   UNL     1     -10.937  15.330  66.117  1.00  0.00    -0.307 A  
BRANCH  19  25
HETATM   25  O   UNL     1     -12.505  18.313  67.495  1.00  0.00     3.339 OA 
HETATM   26  S   UNL     1     -11.806  19.776  67.310  1.00  0.00     2.401 S  
HETATM   27  O   UNL     1     -11.381  20.243  68.613  1.00  0.00     1.156 OA 
HETATM   28  O   UNL     1     -10.911  19.760  66.174  1.00  0.00    -0.420 OA 
HETATM   29  O   UNL     1     -13.061  20.705  66.916  1.00  0.00     4.335 OA 
ENDBRANCH  19  25
ENDBRANCH   5   6
TORSDOF 2
ENDMDL
MODEL      116
REMARK 921   NORMALIZED FREE ENERGY PREDICTED BY IDOCK:   21.14 KCAL/MOL
REMARK 922        TOTAL FREE ENERGY PREDICTED BY IDOCK:   23.27 KCAL/MOL
REMARK 923 INTER-LIGAND FREE ENERGY PREDICTED BY IDOCK:   22.86 KCAL/MOL
REMARK 924 INTRA-LIGAND FREE ENERGY PREDICTED BY IDOCK:    0.41 KCAL/MOL
REMARK 927      BINDING AFFINITY PREDICTED BY RF-SCORE:    0.00 PKD
ROOT
HETATM    1  O   UNL     1     -12.201   4.175  70.265  1.00  0.00     9.252 OA 
HETATM    2  S   UNL     1     -12.003   5.536  69.423  1.00  0.00     4.393 S  
HETATM    3  O   UNL     1     -13.237   6.270  69.609  1.00  0.00     3.637 OA 
HETATM    4  O   UNL     1     -11.572   5.130  68.103  1.00  0.00     2.006 OA 
HETATM    5  O   UNL     1     -10.785   6.290  70.199  1.00  0.00    -0.236 OA 
ENDROOT
BRANCH   5   6
HETATM    6  C   UNL     1     -10.244   7.445  69.697  1.00  0.00    -0.210 A  
HETATM    7  C   UNL     1      -9.425   7.496  68.572  1.00  0.00    -0.146 A  
HETATM    8  C   UNL     1      -8.924   8.720  68.118  1.00  0.00    -0.141 A  
HETATM    9  C   UNL     1      -9.239   9.922  68.770  1.00  0.00    -0.147 A  
HETATM   10  C   UNL     1      -8.669  11.241  68.225  1.00  0.00    -0.158 C  
HETATM   11  C   UNL     1     -10.063   9.850  69.906  1.00  0.00    -0.297 A  
HETATM   12  C   UNL     1      -7.613  11.889  69.128  1.00  0.00     0.117 A  
HETATM   13  C   UNL     1     -10.580   8.628  70.352  1.00  0.00    -0.244 A  
HETATM   14  C   UNL     1      -9.720  12.221  67.690  1.00  0.00    -0.194 A  
HETATM   15  C   UNL     1      -6.311  12.063  68.647  1.00  0.00    -0.059 A  
HETATM   16  C   UNL     1     -10.659  12.833  68.533  1.00  0.00    -0.270 A  
HETATM   17  C   UNL     1      -5.348  12.641  69.470  1.00  0.00    -0.079 A  
HETATM   18  C   UNL     1     -11.615  13.719  68.034  1.00  0.00    -0.368 A  
HETATM   19  C   UNL     1     -11.612  14.061  66.686  1.00  0.00    -0.382 A  
HETATM   20  C   UNL     1      -5.700  13.037  70.751  1.00  0.00    -0.160 A  
HETATM   21  C   UNL     1     -10.692  13.459  65.827  1.00  0.00    -0.280 A  
HETATM   22  N   UNL     1      -7.968  12.286  70.380  1.00  0.00     3.193 NA 
HETATM   23  C   UNL     1      -7.010  12.844  71.156  1.00  0.00     3.637 A  
HETATM   24  C   UNL     1      -9.756  12.546  66.322  1.00  0.00    -0.259 A  
BRANCH  19  25
HETATM   25  O   UNL     1     -12.459  14.976  66.117  1.00  0.00     0.168 OA 
HETATM   26  S   UNL     1     -12.377  15.344  64.530  1.00  0.00     0.132 S  
HETATM   27  O   UNL     1     -11.412  16.411  64.362  1.00  0.00    -0.744 OA 
HETATM   28  O   UNL     1     -12.323  14.134  63.740  1.00  0.00    -0.716 OA 
HETATM   29  O   UNL     1     -13.811  16.025  64.263  1.00  0.00     1.414 OA 
ENDBRANCH  19  25
ENDBRANCH   5   6
TORSDOF 2
ENDMDL
MODEL      117
REMARK 921   NORMALIZED FREE ENERGY PREDICTED BY IDOCK:   22.11 KCAL/MOL
REMARK 922        TOTAL FREE ENERGY PREDICTED BY IDOCK:   24.35 KCAL/MOL
REMARK 923 INTER-LIGAND FREE ENERGY PREDICTED BY IDOCK:   24.09 KCAL/MOL
REMARK 924 INTRA-LIGAND FREE ENERGY PREDICTED BY IDOCK:    0.26 KCAL/MOL
REMARK 927      BINDING AFFINITY PREDICTED BY RF-SCORE:    0.00 PKD
ROOT
HETATM    1  O   UNL     1      -8.630   2.142  66.333  1.00  0.00    -0.100 OA 
HETATM    2  S   UNL     1      -9.311   3.602  66.283  1.00  0.00    -0.162 S  
HETATM    3  O   UNL     1     -10.732   3.352  66.404  1.00  0.00     1.689 OA 
HETATM    4  O   UNL     1      -8.769   4.257  65.113  1.00  0.00    -0.119 OA 
HETATM    5  O   UNL     1      -8.758   4.327  67.633  1.00  0.00    -0.102 OA 
ENDROOT
BRANCH   5   6
HETATM    6  C   UNL     1      -9.030   5.648  67.881  1.00  0.00    -0.108 A  
HETATM    7  C   UNL     1     -10.139   6.092  68.595  1.00  0.00    -0.196 A  
HETATM    8  C   UNL     1     -10.336   7.459  68.814  1.00  0.00    -0.209 A  
HETATM    9  C   UNL     1      -9.423   8.412  68.335  1.00  0.00    -0.145 A  
HETATM   10  C   UNL     1      -9.682   9.901  68.611  1.00  0.00    -0.163 C  
HETATM   11  C   UNL     1      -8.312   7.944  67.613  1.00  0.00    -0.124 A  
HETATM   12  C   UNL     1     -10.051  10.715  67.365  1.00  0.00    -0.194 A  
HETATM   13  C   UNL     1      -8.105   6.575  67.407  1.00  0.00    -0.121 A  
HETATM   14  C   UNL     1      -8.642  10.577  69.512  1.00  0.00    -0.047 A  
HETATM   15  C   UNL     1     -11.302  11.339  67.298  1.00  0.00    -0.329 A  
HETATM   16  C   UNL     1      -7.313  10.757  69.103  1.00  0.00    -0.115 A  
HETATM   17  C   UNL     1     -11.643  12.069  66.163  1.00  0.00    -0.371 A  
HETATM   18  C   UNL     1      -6.372  11.367  69.935  1.00  0.00    -0.141 A  
HETATM   19  C   UNL     1      -6.759  11.869  71.173  1.00  0.00     2.838 A  
HETATM   20  C   UNL     1     -10.734  12.167  65.121  1.00  0.00    -0.333 A  
HETATM   21  C   UNL     1      -8.074  11.694  71.605  1.00  0.00    11.474 A  
HETATM   22  N   UNL     1      -9.150  10.817  66.351  1.00  0.00    -0.167 NA 
HETATM   23  C   UNL     1      -9.511  11.532  65.261  1.00  0.00    -0.184 A  
HETATM   24  C   UNL     1      -9.007  11.052  70.785  1.00  0.00     4.220 A  
BRANCH  19  25
HETATM   25  O   UNL     1      -5.930  12.548  72.026  1.00  0.00     0.432 OA 
HETATM   26  S   UNL     1      -6.358  13.986  72.668  1.00  0.00     1.921 S  
HETATM   27  O   UNL     1      -5.960  15.030  71.747  1.00  0.00     0.301 OA 
HETATM   28  O   UNL     1      -7.698  13.912  73.207  1.00  0.00     4.975 OA 
HETATM   29  O   UNL     1      -5.348  14.116  73.916  1.00  0.00    -0.330 OA 
ENDBRANCH  19  25
ENDBRANCH   5   6
TORSDOF 2
ENDMDL
MODEL      118
REMARK 921   NORMALIZED FREE ENERGY PREDICTED BY IDOCK:   30.90 KCAL/MOL
REMARK 922        TOTAL FREE ENERGY PREDICTED BY IDOCK:   34.17 KCAL/MOL
REMARK 923 INTER-LIGAND FREE ENERGY PREDICTED BY IDOCK:   34.02 KCAL/MOL
REMARK 924 INTRA-LIGAND FREE ENERGY PREDICTED BY IDOCK:    0.15 KCAL/MOL
REMARK 927      BINDING AFFINITY PREDICTED BY RF-SCORE:    0.00 PKD
ROOT
HETATM    1  O   UNL     1      -8.811   8.373  72.467  1.00  0.00    -0.210 OA 
HETATM    2  S   UNL     1      -8.932   9.308  71.159  1.00  0.00     0.032 S  
HETATM    3  O   UNL     1     -10.356   9.478  70.956  1.00  0.00    -0.298 OA 
HETATM    4  O   UNL     1      -8.106   8.689  70.146  1.00  0.00    -0.102 OA 
HETATM    5  O   UNL     1      -8.267  10.717  71.636  1.00  0.00     3.919 OA 
ENDROOT
BRANCH   5   6
HETATM    6  C   UNL     1      -8.078  11.740  70.742  1.00  0.00     5.989 A  
HETATM    7  C   UNL     1      -7.098  11.738  69.754  1.00  0.00     0.289 A  
HETATM    8  C   UNL     1      -6.981  12.818  68.874  1.00  0.00    -0.084 A  
HETATM    9  C   UNL     1      -7.849  13.919  68.953  1.00  0.00    -0.022 A  
HETATM   10  C   UNL     1      -7.684  15.076  67.956  1.00  0.00    -0.129 C  
HETATM   11  C   UNL     1      -8.829  13.904  69.960  1.00  0.00     2.110 A  
HETATM   12  C   UNL     1      -7.170  16.377  68.583  1.00  0.00    -0.178 A  
HETATM   13  C   UNL     1      -8.958  12.816  70.831  1.00  0.00    10.017 A  
HETATM   14  C   UNL     1      -8.864  15.270  66.996  1.00  0.00    -0.261 A  
HETATM   15  C   UNL     1      -5.945  16.906  68.163  1.00  0.00    -0.124 A  
HETATM   16  C   UNL     1     -10.127  15.678  67.449  1.00  0.00    -0.251 A  
HETATM   17  C   UNL     1      -5.471  18.081  68.740  1.00  0.00    -0.182 A  
HETATM   18  C   UNL     1     -11.196  15.844  66.567  1.00  0.00     0.082 A  
HETATM   19  C   UNL     1     -11.007  15.666  65.200  1.00  0.00    -0.398 A  
HETATM   20  C   UNL     1      -6.227  18.708  69.720  1.00  0.00    -0.225 A  
HETATM   21  C   UNL     1      -9.761  15.253  64.728  1.00  0.00     0.713 A  
HETATM   22  N   UNL     1      -7.921  16.993  69.536  1.00  0.00     0.243 NA 
HETATM   23  C   UNL     1      -7.435  18.133  70.078  1.00  0.00     1.289 A  
HETATM   24  C   UNL     1      -8.700  15.053  65.616  1.00  0.00     1.134 A  
BRANCH  19  25
HETATM   25  O   UNL     1     -11.972  15.878  64.251  1.00  0.00    -0.460 OA 
HETATM   26  S   UNL     1     -13.503  15.355  64.459  1.00  0.00     2.764 S  
HETATM   27  O   UNL     1     -13.587  13.994  63.973  1.00  0.00     1.610 OA 
HETATM   28  O   UNL     1     -13.984  15.729  65.770  1.00  0.00     3.440 OA 
HETATM   29  O   UNL     1     -14.314  16.238  63.384  1.00  0.00     3.315 OA 
ENDBRANCH  19  25
ENDBRANCH   5   6
TORSDOF 2
ENDMDL
MODEL      119
REMARK 921   NORMALIZED FREE ENERGY PREDICTED BY IDOCK:   31.82 KCAL/MOL
REMARK 922        TOTAL FREE ENERGY PREDICTED BY IDOCK:   35.21 KCAL/MOL
REMARK 923 INTER-LIGAND FREE ENERGY PREDICTED BY IDOCK:   35.24 KCAL/MOL
REMARK 924 INTRA-LIGAND FREE ENERGY PREDICTED BY IDOCK:   -0.03 KCAL/MOL
REMARK 927      BINDING AFFINITY PREDICTED BY RF-SCORE:    0.00 PKD
ROOT
HETATM    1  O   UNL     1     -13.937  19.783  67.238  1.00  0.00     4.686 OA 
HETATM    2  S   UNL     1     -12.830  18.689  66.816  1.00  0.00     8.806 S  
HETATM    3  O   UNL     1     -11.590  19.433  66.726  1.00  0.00     0.366 OA 
HETATM    4  O   UNL     1     -13.367  17.999  65.664  1.00  0.00    11.439 OA 
HETATM    5  O   UNL     1     -12.782  17.683  68.096  1.00  0.00     3.206 OA 
ENDROOT
BRANCH   5   6
HETATM    6  C   UNL     1     -12.028  16.538  68.059  1.00  0.00     0.758 A  
HETATM    7  C   UNL     1     -10.737  16.440  68.571  1.00  0.00    -0.320 A  
HETATM    8  C   UNL     1     -10.042  15.229  68.504  1.00  0.00    -0.222 A  
HETATM    9  C   UNL     1     -10.624  14.085  67.934  1.00  0.00    -0.246 A  
HETATM   10  C   UNL     1      -9.819  12.777  67.894  1.00  0.00    -0.223 C  
HETATM   11  C   UNL     1     -11.926  14.206  67.419  1.00  0.00    -0.439 A  
HETATM   12  C   UNL     1      -9.385  12.351  66.486  1.00  0.00    -0.233 A  
HETATM   13  C   UNL     1     -12.630  15.412  67.501  1.00  0.00     1.463 A  
HETATM   14  C   UNL     1     -10.403  11.638  68.738  1.00  0.00    -0.213 A  
HETATM   15  C   UNL     1      -8.021  12.256  66.187  1.00  0.00     0.687 A  
HETATM   16  C   UNL     1     -11.630  11.037  68.423  1.00  0.00    -0.372 A  
HETATM   17  C   UNL     1      -7.625  11.880  64.906  1.00  0.00     2.611 A  
HETATM   18  C   UNL     1     -12.155  10.005  69.203  1.00  0.00     0.452 A  
HETATM   19  C   UNL     1     -11.431   9.509  70.282  1.00  0.00    -0.206 A  
HETATM   20  C   UNL     1      -8.591  11.604  63.951  1.00  0.00     0.803 A  
HETATM   21  C   UNL     1     -10.211  10.097  70.619  1.00  0.00     0.081 A  
HETATM   22  N   UNL     1     -10.338  12.070  65.557  1.00  0.00    -0.254 NA 
HETATM   23  C   UNL     1      -9.922  11.708  64.322  1.00  0.00    -0.267 A  
HETATM   24  C   UNL     1      -9.702  11.153  69.857  1.00  0.00     0.918 A  
BRANCH  19  25
HETATM   25  O   UNL     1     -11.826   8.452  71.059  1.00  0.00    -0.282 OA 
HETATM   26  S   UNL     1     -11.630   8.464  72.679  1.00  0.00    -0.167 S  
HETATM   27  O   UNL     1     -10.310   7.952  72.980  1.00  0.00    -0.314 OA 
HETATM   28  O   UNL     1     -12.109   9.713  73.230  1.00  0.00     1.810 OA 
HETATM   29  O   UNL     1     -12.649   7.311  73.154  1.00  0.00     0.915 OA 
ENDBRANCH  19  25
ENDBRANCH   5   6
TORSDOF 2
ENDMDL
MODEL      120
REMARK 921   NORMALIZED FREE ENERGY PREDICTED BY IDOCK:   31.99 KCAL/MOL
REMARK 922        TOTAL FREE ENERGY PREDICTED BY IDOCK:   35.39 KCAL/MOL
REMARK 923 INTER-LIGAND FREE ENERGY PREDICTED BY IDOCK:   35.21 KCAL/MOL
REMARK 924 INTRA-LIGAND FREE ENERGY PREDICTED BY IDOCK:    0.18 KCAL/MOL
REMARK 927      BINDING AFFINITY PREDICTED BY RF-SCORE:    0.00 PKD
ROOT
HETATM    1  O   UNL     1     -10.660  16.461  70.941  1.00  0.00     0.280 OA 
HETATM    2  S   UNL     1     -10.849  15.308  69.829  1.00  0.00    -0.305 S  
HETATM    3  O   UNL     1     -11.155  16.020  68.606  1.00  0.00    -0.308 OA 
HETATM    4  O   UNL     1     -11.785  14.360  70.391  1.00  0.00    -0.284 OA 
HETATM    5  O   UNL     1      -9.369  14.635  69.725  1.00  0.00     0.192 OA 
ENDROOT
BRANCH   5   6
HETATM    6  C   UNL     1      -9.160  13.520  68.953  1.00  0.00     0.221 A  
HETATM    7  C   UNL     1      -8.322  13.490  67.842  1.00  0.00    -0.175 A  
HETATM    8  C   UNL     1      -8.154  12.307  67.116  1.00  0.00    -0.173 A  
HETATM    9  C   UNL     1      -8.811  11.124  67.491  1.00  0.00    -0.139 A  
HETATM   10  C   UNL     1      -8.585   9.849  66.665  1.00  0.00    -0.130 C  
HETATM   11  C   UNL     1      -9.656  11.176  68.613  1.00  0.00    -0.200 A  
HETATM   12  C   UNL     1      -9.809   9.397  65.860  1.00  0.00    -0.291 A  
HETATM   13  C   UNL     1      -9.811  12.355  69.350  1.00  0.00     0.836 A  
HETATM   14  C   UNL     1      -7.879   8.713  67.416  1.00  0.00    -0.098 A  
HETATM   15  C   UNL     1      -9.734   9.348  64.463  1.00  0.00     0.358 A  
HETATM   16  C   UNL     1      -8.482   8.054  68.497  1.00  0.00    -0.128 A  
HETATM   17  C   UNL     1     -10.849   8.950  63.730  1.00  0.00     8.821 A  
HETATM   18  C   UNL     1      -7.827   7.026  69.178  1.00  0.00    -0.114 A  
HETATM   19  C   UNL     1      -6.577   6.593  68.751  1.00  0.00    -0.051 A  
HETATM   20  C   UNL     1     -12.013   8.605  64.400  1.00  0.00    17.142 A  
HETATM   21  C   UNL     1      -5.954   7.239  67.683  1.00  0.00    -0.034 A  
HETATM   22  N   UNL     1     -10.945   9.050  66.523  1.00  0.00     0.345 NA 
HETATM   23  C   UNL     1     -12.011   8.668  65.784  1.00  0.00     9.650 A  
HETATM   24  C   UNL     1      -6.597   8.291  67.023  1.00  0.00    -0.058 A  
BRANCH  19  25
HETATM   25  O   UNL     1      -5.889   5.545  69.305  1.00  0.00    -0.015 OA 
HETATM   26  S   UNL     1      -6.620   4.473  70.294  1.00  0.00    -0.036 S  
HETATM   27  O   UNL     1      -6.557   4.988  71.646  1.00  0.00    -0.030 OA 
HETATM   28  O   UNL     1      -7.860   4.018  69.706  1.00  0.00    -0.052 OA 
HETATM   29  O   UNL     1      -5.595   3.231  70.267  1.00  0.00    -0.015 OA 
ENDBRANCH  19  25
ENDBRANCH   5   6
TORSDOF 2
ENDMDL
MODEL      121
REMARK 921   NORMALIZED FREE ENERGY PREDICTED BY IDOCK:   33.05 KCAL/MOL
REMARK 922        TOTAL FREE ENERGY PREDICTED BY IDOCK:   36.58 KCAL/MOL
REMARK 923 INTER-LIGAND FREE ENERGY PREDICTED BY IDOCK:   36.18 KCAL/MOL
REMARK 924 INTRA-LIGAND FREE ENERGY PREDICTED BY IDOCK:    0.40 KCAL/MOL
REMARK 927      BINDING AFFINITY PREDICTED BY RF-SCORE:    0.00 PKD
ROOT
HETATM    1  O   UNL     1     -12.261   4.134  70.246  1.00  0.00     9.252 OA 
HETATM    2  S   UNL     1     -12.083   5.468  69.357  1.00  0.00     5.213 S  
HETATM    3  O   UNL     1     -13.385   6.100  69.374  1.00  0.00     5.484 OA 
HETATM    4  O   UNL     1     -11.479   5.042  68.114  1.00  0.00     1.788 OA 
HETATM    5  O   UNL     1     -11.022   6.358  70.215  1.00  0.00    -0.262 OA 
ENDROOT
BRANCH   5   6
HETATM    6  C   UNL     1     -10.525   7.532  69.711  1.00  0.00    -0.230 A  
HETATM    7  C   UNL     1     -11.315   8.620  69.350  1.00  0.00     0.325 A  
HETATM    8  C   UNL     1     -10.726   9.787  68.855  1.00  0.00    -0.241 A  
HETATM    9  C   UNL     1      -9.332   9.899  68.720  1.00  0.00    -0.157 A  
HETATM   10  C   UNL     1      -8.736  11.207  68.180  1.00  0.00    -0.144 C  
HETATM   11  C   UNL     1      -8.552   8.789  69.086  1.00  0.00    -0.128 A  
HETATM   12  C   UNL     1      -8.116  11.084  66.782  1.00  0.00    -0.151 A  
HETATM   13  C   UNL     1      -9.140   7.626  69.598  1.00  0.00    -0.147 A  
HETATM   14  C   UNL     1      -7.867  11.978  69.181  1.00  0.00     0.247 A  
HETATM   15  C   UNL     1      -8.648  11.833  65.726  1.00  0.00     0.214 A  
HETATM   16  C   UNL     1      -6.646  11.470  69.647  1.00  0.00    -0.112 A  
HETATM   17  C   UNL     1      -8.094  11.713  64.455  1.00  0.00     1.536 A  
HETATM   18  C   UNL     1      -5.867  12.177  70.564  1.00  0.00    -0.119 A  
HETATM   19  C   UNL     1      -6.264  13.442  70.987  1.00  0.00     0.408 A  
HETATM   20  C   UNL     1      -7.023  10.855  64.259  1.00  0.00     0.585 A  
HETATM   21  C   UNL     1      -7.478  13.965  70.542  1.00  0.00     1.693 A  
HETATM   22  N   UNL     1      -7.058  10.248  66.599  1.00  0.00    -0.102 NA 
HETATM   23  C   UNL     1      -6.543  10.153  65.353  1.00  0.00    -0.120 A  
HETATM   24  C   UNL     1      -8.275  13.240  69.650  1.00  0.00     1.464 A  
BRANCH  19  25
HETATM   25  O   UNL     1      -5.533  14.243  71.823  1.00  0.00    -0.184 OA 
HETATM   26  S   UNL     1      -6.056  15.727  72.257  1.00  0.00     2.210 S  
HETATM   27  O   UNL     1      -5.607  16.675  71.259  1.00  0.00     0.100 OA 
HETATM   28  O   UNL     1      -7.436  15.663  72.685  1.00  0.00     6.338 OA 
HETATM   29  O   UNL     1      -5.165  16.034  73.563  1.00  0.00     1.419 OA 
ENDBRANCH  19  25
ENDBRANCH   5   6
TORSDOF 2
ENDMDL
MODEL      122
REMARK 921   NORMALIZED FREE ENERGY PREDICTED BY IDOCK:   33.44 KCAL/MOL
REMARK 922        TOTAL FREE ENERGY PREDICTED BY IDOCK:   37.02 KCAL/MOL
REMARK 923 INTER-LIGAND FREE ENERGY PREDICTED BY IDOCK:   37.29 KCAL/MOL
REMARK 924 INTRA-LIGAND FREE ENERGY PREDICTED BY IDOCK:   -0.28 KCAL/MOL
REMARK 927      BINDING AFFINITY PREDICTED BY RF-SCORE:    0.00 PKD
ROOT
HETATM    1  O   UNL     1     -11.580   3.879  71.138  1.00  0.00     3.267 OA 
HETATM    2  S   UNL     1     -11.945   5.433  71.367  1.00  0.00     1.550 S  
HETATM    3  O   UNL     1     -10.940   5.917  72.290  1.00  0.00    -0.238 OA 
HETATM    4  O   UNL     1     -13.349   5.468  71.711  1.00  0.00     1.617 OA 
HETATM    5  O   UNL     1     -11.715   6.098  69.897  1.00  0.00    -0.339 OA 
ENDROOT
BRANCH   5   6
HETATM    6  C   UNL     1     -12.045   7.408  69.662  1.00  0.00     0.830 A  
HETATM    7  C   UNL     1     -13.344   7.855  69.435  1.00  0.00     5.823 A  
HETATM    8  C   UNL     1     -13.595   9.212  69.216  1.00  0.00     5.743 A  
HETATM    9  C   UNL     1     -12.556  10.157  69.230  1.00  0.00     0.937 A  
HETATM   10  C   UNL     1     -12.889  11.638  68.993  1.00  0.00     1.311 C  
HETATM   11  C   UNL     1     -11.252   9.686  69.457  1.00  0.00    -0.144 A  
HETATM   12  C   UNL     1     -12.374  12.190  67.658  1.00  0.00     0.749 A  
HETATM   13  C   UNL     1     -11.001   8.330  69.694  1.00  0.00    -0.092 A  
HETATM   14  C   UNL     1     -12.622  12.556  70.192  1.00  0.00     0.044 A  
HETATM   15  C   UNL     1     -13.289  12.666  66.713  1.00  0.00     4.633 A  
HETATM   16  C   UNL     1     -11.324  12.795  70.667  1.00  0.00     1.034 A  
HETATM   17  C   UNL     1     -12.824  13.157  65.496  1.00  0.00    -0.206 A  
HETATM   18  C   UNL     1     -11.094  13.627  71.764  1.00  0.00     3.485 A  
HETATM   19  C   UNL     1     -12.155  14.289  72.371  1.00  0.00     0.115 A  
HETATM   20  C   UNL     1     -11.460  13.168  65.245  1.00  0.00    -0.328 A  
HETATM   21  C   UNL     1     -13.456  14.060  71.921  1.00  0.00    -0.506 A  
HETATM   22  N   UNL     1     -11.034  12.208  67.423  1.00  0.00    -0.248 NA 
HETATM   23  C   UNL     1     -10.613  12.690  66.231  1.00  0.00    -0.252 A  
HETATM   24  C   UNL     1     -13.688  13.200  70.844  1.00  0.00     0.827 A  
BRANCH  19  25
HETATM   25  O   UNL     1     -12.023  15.182  73.403  1.00  0.00    -0.417 OA 
HETATM   26  S   UNL     1     -11.713  16.760  73.131  1.00  0.00     0.423 S  
HETATM   27  O   UNL     1     -10.279  16.932  73.043  1.00  0.00     5.666 OA 
HETATM   28  O   UNL     1     -12.608  17.276  72.118  1.00  0.00     2.443 OA 
HETATM   29  O   UNL     1     -12.136  17.436  74.530  1.00  0.00    -0.434 OA 
ENDBRANCH  19  25
ENDBRANCH   5   6
TORSDOF 2
ENDMDL
MODEL      123
REMARK 921   NORMALIZED FREE ENERGY PREDICTED BY IDOCK:   44.26 KCAL/MOL
REMARK 922        TOTAL FREE ENERGY PREDICTED BY IDOCK:   49.09 KCAL/MOL
REMARK 923 INTER-LIGAND FREE ENERGY PREDICTED BY IDOCK:   48.78 KCAL/MOL
REMARK 924 INTRA-LIGAND FREE ENERGY PREDICTED BY IDOCK:    0.31 KCAL/MOL
REMARK 927      BINDING AFFINITY PREDICTED BY RF-SCORE:    0.00 PKD
ROOT
HETATM    1  O   UNL     1      -9.727  11.730  63.704  1.00  0.00    -0.303 OA 
HETATM    2  S   UNL     1     -10.075  11.793  65.277  1.00  0.00    -0.269 S  
HETATM    3  O   UNL     1     -10.550  13.143  65.497  1.00  0.00    -0.278 OA 
HETATM    4  O   UNL     1      -8.906  11.296  65.967  1.00  0.00    -0.191 OA 
HETATM    5  O   UNL     1     -11.306  10.738  65.437  1.00  0.00     0.255 OA 
ENDROOT
BRANCH   5   6
HETATM    6  C   UNL     1     -11.804  10.425  66.676  1.00  0.00     2.202 A  
HETATM    7  C   UNL     1     -13.161  10.291  66.958  1.00  0.00    11.412 A  
HETATM    8  C   UNL     1     -13.584   9.957  68.248  1.00  0.00    10.503 A  
HETATM    9  C   UNL     1     -12.661   9.738  69.283  1.00  0.00     1.591 A  
HETATM   10  C   UNL     1     -13.179   9.364  70.680  1.00  0.00     0.179 C  
HETATM   11  C   UNL     1     -11.297   9.883  68.980  1.00  0.00    -0.073 A  
HETATM   12  C   UNL     1     -12.981  10.458  71.736  1.00  0.00    -0.475 A  
HETATM   13  C   UNL     1     -10.871  10.200  67.685  1.00  0.00    -0.346 A  
HETATM   14  C   UNL     1     -12.787   7.960  71.156  1.00  0.00    -0.156 A  
HETATM   15  C   UNL     1     -14.100  11.025  72.356  1.00  0.00     0.851 A  
HETATM   16  C   UNL     1     -11.454   7.614  71.422  1.00  0.00    -0.290 A  
HETATM   17  C   UNL     1     -13.923  12.027  73.307  1.00  0.00     3.815 A  
HETATM   18  C   UNL     1     -11.108   6.330  71.848  1.00  0.00    -0.315 A  
HETATM   19  C   UNL     1     -12.098   5.381  72.078  1.00  0.00     0.646 A  
HETATM   20  C   UNL     1     -12.638  12.441  73.624  1.00  0.00     7.678 A  
HETATM   21  C   UNL     1     -13.430   5.701  71.812  1.00  0.00     1.986 A  
HETATM   22  N   UNL     1     -11.718  10.853  72.051  1.00  0.00     1.443 NA 
HETATM   23  C   UNL     1     -11.577  11.828  72.978  1.00  0.00     9.323 A  
HETATM   24  C   UNL     1     -13.772   6.976  71.353  1.00  0.00    -0.307 A  
BRANCH  19  25
HETATM   25  O   UNL     1     -11.866   4.122  72.566  1.00  0.00     0.612 OA 
HETATM   26  S   UNL     1     -10.515   3.770  73.410  1.00  0.00    -0.192 S  
HETATM   27  O   UNL     1      -9.478   3.396  72.472  1.00  0.00    -0.107 OA 
HETATM   28  O   UNL     1     -10.294   4.767  74.436  1.00  0.00    -0.236 OA 
HETATM   29  O   UNL     1     -10.925   2.403  74.155  1.00  0.00    -0.171 OA 
ENDBRANCH  19  25
ENDBRANCH   5   6
TORSDOF 2
ENDMDL
MODEL      124
REMARK 921   NORMALIZED FREE ENERGY PREDICTED BY IDOCK:   45.48 KCAL/MOL
REMARK 922        TOTAL FREE ENERGY PREDICTED BY IDOCK:   50.46 KCAL/MOL
REMARK 923 INTER-LIGAND FREE ENERGY PREDICTED BY IDOCK:   49.91 KCAL/MOL
REMARK 924 INTRA-LIGAND FREE ENERGY PREDICTED BY IDOCK:    0.55 KCAL/MOL
REMARK 927      BINDING AFFINITY PREDICTED BY RF-SCORE:    0.00 PKD
ROOT
HETATM    1  O   UNL     1      -9.188  18.578  64.163  1.00  0.00     6.880 OA 
HETATM    2  S   UNL     1      -9.669  17.298  65.017  1.00  0.00     2.368 S  
HETATM    3  O   UNL     1      -9.455  16.167  64.139  1.00  0.00     3.052 OA 
HETATM    4  O   UNL     1     -10.991  17.618  65.508  1.00  0.00    -0.302 OA 
HETATM    5  O   UNL     1      -8.612  17.248  66.256  1.00  0.00    -0.338 OA 
ENDROOT
BRANCH   5   6
HETATM    6  C   UNL     1      -8.773  16.348  67.278  1.00  0.00    -0.181 A  
HETATM    7  C   UNL     1      -9.844  16.367  68.168  1.00  0.00    -0.238 A  
HETATM    8  C   UNL     1      -9.939  15.403  69.177  1.00  0.00    -0.241 A  
HETATM    9  C   UNL     1      -8.974  14.392  69.312  1.00  0.00     0.193 A  
HETATM   10  C   UNL     1      -9.132  13.353  70.432  1.00  0.00     4.697 C  
HETATM   11  C   UNL     1      -7.900  14.393  68.406  1.00  0.00    -0.138 A  
HETATM   12  C   UNL     1      -8.089  13.472  71.550  1.00  0.00     8.913 A  
HETATM   13  C   UNL     1      -7.811  15.347  67.386  1.00  0.00    -0.215 A  
HETATM   14  C   UNL     1      -9.364  11.917  69.946  1.00  0.00     2.319 A  
HETATM   15  C   UNL     1      -8.510  13.754  72.854  1.00  0.00    11.915 A  
HETATM   16  C   UNL     1      -8.379  11.201  69.252  1.00  0.00     0.099 A  
HETATM   17  C   UNL     1      -7.563  13.874  73.868  1.00  0.00     6.315 A  
HETATM   18  C   UNL     1      -8.604   9.896  68.809  1.00  0.00    -0.130 A  
HETATM   19  C   UNL     1      -9.802   9.256  69.107  1.00  0.00    -0.167 A  
HETATM   20  C   UNL     1      -6.220  13.707  73.566  1.00  0.00     1.216 A  
HETATM   21  C   UNL     1     -10.801   9.951  69.790  1.00  0.00    -0.300 A  
HETATM   22  N   UNL     1      -6.774  13.297  71.249  1.00  0.00     1.313 NA 
HETATM   23  C   UNL     1      -5.879  13.420  72.255  1.00  0.00     0.650 A  
HETATM   24  C   UNL     1     -10.586  11.270  70.204  1.00  0.00     0.616 A  
BRANCH  19  25
HETATM   25  O   UNL     1     -10.087   7.956  68.782  1.00  0.00    -0.183 OA 
HETATM   26  S   UNL     1     -11.286   7.134  69.523  1.00  0.00     0.059 S  
HETATM   27  O   UNL     1     -10.745   6.522  70.718  1.00  0.00    -0.222 OA 
HETATM   28  O   UNL     1     -12.493   7.931  69.553  1.00  0.00     1.698 OA 
HETATM   29  O   UNL     1     -11.545   5.915  68.504  1.00  0.00     0.266 OA 
ENDBRANCH  19  25
ENDBRANCH   5   6
TORSDOF 2
ENDMDL
MODEL      125
REMARK 921   NORMALIZED FREE ENERGY PREDICTED BY IDOCK:   47.34 KCAL/MOL
REMARK 922        TOTAL FREE ENERGY PREDICTED BY IDOCK:   52.54 KCAL/MOL
REMARK 923 INTER-LIGAND FREE ENERGY PREDICTED BY IDOCK:   52.30 KCAL/MOL
REMARK 924 INTRA-LIGAND FREE ENERGY PREDICTED BY IDOCK:    0.24 KCAL/MOL
REMARK 927      BINDING AFFINITY PREDICTED BY RF-SCORE:    0.00 PKD
ROOT
HETATM    1  O   UNL     1     -13.132   9.920  63.454  1.00  0.00     7.410 OA 
HETATM    2  S   UNL     1     -12.100   9.540  64.633  1.00  0.00    12.521 S  
HETATM    3  O   UNL     1     -11.727   8.166  64.370  1.00  0.00    14.320 OA 
HETATM    4  O   UNL     1     -12.751   9.909  65.870  1.00  0.00     8.329 OA 
HETATM    5  O   UNL     1     -10.830  10.522  64.358  1.00  0.00     0.024 OA 
ENDROOT
BRANCH   5   6
HETATM    6  C   UNL     1      -9.781  10.575  65.240  1.00  0.00    -0.270 A  
HETATM    7  C   UNL     1      -8.442  10.522  64.861  1.00  0.00    -0.161 A  
HETATM    8  C   UNL     1      -7.433  10.595  65.825  1.00  0.00    -0.114 A  
HETATM    9  C   UNL     1      -7.737  10.735  67.189  1.00  0.00    -0.120 A  
HETATM   10  C   UNL     1      -6.588  10.820  68.206  1.00  0.00    -0.058 C  
HETATM   11  C   UNL     1      -9.093  10.783  67.552  1.00  0.00    -0.143 A  
HETATM   12  C   UNL     1      -6.467   9.594  69.119  1.00  0.00    -0.044 A  
HETATM   13  C   UNL     1     -10.105  10.727  66.586  1.00  0.00    -0.265 A  
HETATM   14  C   UNL     1      -6.482  12.160  68.944  1.00  0.00    -0.088 A  
HETATM   15  C   UNL     1      -5.301   8.821  69.081  1.00  0.00    -0.036 A  
HETATM   16  C   UNL     1      -7.472  12.593  69.839  1.00  0.00     1.304 A  
HETATM   17  C   UNL     1      -5.194   7.701  69.901  1.00  0.00    -0.023 A  
HETATM   18  C   UNL     1      -7.368  13.819  70.499  1.00  0.00     1.620 A  
HETATM   19  C   UNL     1      -6.238  14.611  70.326  1.00  0.00    -0.173 A  
HETATM   20  C   UNL     1      -6.246   7.375  70.744  1.00  0.00    -0.035 A  
HETATM   21  C   UNL     1      -5.244  14.204  69.435  1.00  0.00    -0.082 A  
HETATM   22  N   UNL     1      -7.498   9.286  69.952  1.00  0.00    -0.075 NA 
HETATM   23  C   UNL     1      -7.365   8.192  70.736  1.00  0.00    -0.058 A  
HETATM   24  C   UNL     1      -5.366  12.992  68.748  1.00  0.00    -0.072 A  
BRANCH  19  25
HETATM   25  O   UNL     1      -6.010  15.789  70.986  1.00  0.00     0.178 OA 
HETATM   26  S   UNL     1      -6.862  17.138  70.643  1.00  0.00     2.526 S  
HETATM   27  O   UNL     1      -6.198  17.830  69.559  1.00  0.00    -0.238 OA 
HETATM   28  O   UNL     1      -8.276  16.837  70.605  1.00  0.00     3.093 OA 
HETATM   29  O   UNL     1      -6.603  18.046  71.947  1.00  0.00     3.031 OA 
ENDBRANCH  19  25
ENDBRANCH   5   6
TORSDOF 2
ENDMDL
MODEL      126
REMARK 921   NORMALIZED FREE ENERGY PREDICTED BY IDOCK:   50.58 KCAL/MOL
REMARK 922        TOTAL FREE ENERGY PREDICTED BY IDOCK:   56.16 KCAL/MOL
REMARK 923 INTER-LIGAND FREE ENERGY PREDICTED BY IDOCK:   56.38 KCAL/MOL
REMARK 924 INTRA-LIGAND FREE ENERGY PREDICTED BY IDOCK:   -0.22 KCAL/MOL
REMARK 927      BINDING AFFINITY PREDICTED BY RF-SCORE:    0.00 PKD
ROOT
HETATM    1  O   UNL     1     -11.953  16.248  69.168  1.00  0.00    -0.204 OA 
HETATM    2  S   UNL     1     -11.439  15.067  68.198  1.00  0.00    -0.345 S  
HETATM    3  O   UNL     1     -10.094  15.454  67.824  1.00  0.00    -0.225 OA 
HETATM    4  O   UNL     1     -12.468  14.895  67.197  1.00  0.00     0.125 OA 
HETATM    5  O   UNL     1     -11.391  13.765  69.176  1.00  0.00    -0.255 OA 
ENDROOT
BRANCH   5   6
HETATM    6  C   UNL     1     -11.108  12.521  68.673  1.00  0.00    -0.265 A  
HETATM    7  C   UNL     1     -10.252  12.293  67.599  1.00  0.00    -0.208 A  
HETATM    8  C   UNL     1     -10.008  10.990  67.155  1.00  0.00    -0.218 A  
HETATM    9  C   UNL     1     -10.605   9.884  67.782  1.00  0.00    -0.313 A  
HETATM   10  C   UNL     1     -10.296   8.472  67.261  1.00  0.00    -0.372 C  
HETATM   11  C   UNL     1     -11.470  10.135  68.861  1.00  0.00    -0.125 A  
HETATM   12  C   UNL     1     -11.482   7.784  66.572  1.00  0.00     2.757 A  
HETATM   13  C   UNL     1     -11.701  11.438  69.317  1.00  0.00    -0.404 A  
HETATM   14  C   UNL     1      -9.542   7.574  68.248  1.00  0.00    -0.157 A  
HETATM   15  C   UNL     1     -11.381   7.431  65.222  1.00  0.00     8.155 A  
HETATM   16  C   UNL     1     -10.125   7.138  69.447  1.00  0.00    -0.178 A  
HETATM   17  C   UNL     1     -12.460   6.817  64.592  1.00  0.00    13.530 A  
HETATM   18  C   UNL     1      -9.426   6.326  70.342  1.00  0.00    -0.174 A  
HETATM   19  C   UNL     1      -8.147   5.880  70.026  1.00  0.00    -0.109 A  
HETATM   20  C   UNL     1     -13.615   6.564  65.318  1.00  0.00    11.915 A  
HETATM   21  C   UNL     1      -7.544   6.308  68.843  1.00  0.00    -0.092 A  
HETATM   22  N   UNL     1     -12.607   7.529  67.292  1.00  0.00     6.663 NA 
HETATM   23  C   UNL     1     -13.638   6.932  66.653  1.00  0.00    17.278 A  
HETATM   24  C   UNL     1      -8.232   7.149  67.963  1.00  0.00    -0.120 A  
BRANCH  19  25
HETATM   25  O   UNL     1      -7.412   5.023  70.802  1.00  0.00    -0.065 OA 
HETATM   26  S   UNL     1      -7.954   3.529  71.171  1.00  0.00    -0.059 S  
HETATM   27  O   UNL     1      -8.763   3.623  72.368  1.00  0.00    -0.088 OA 
HETATM   28  O   UNL     1      -8.428   2.862  69.979  1.00  0.00    -0.047 OA 
HETATM   29  O   UNL     1      -6.604   2.781  71.631  1.00  0.00    -0.018 OA 
ENDBRANCH  19  25
ENDBRANCH   5   6
TORSDOF 2
ENDMDL
MODEL      127
REMARK 921   NORMALIZED FREE ENERGY PREDICTED BY IDOCK:   57.88 KCAL/MOL
REMARK 922        TOTAL FREE ENERGY PREDICTED BY IDOCK:   64.31 KCAL/MOL
REMARK 923 INTER-LIGAND FREE ENERGY PREDICTED BY IDOCK:   64.01 KCAL/MOL
REMARK 924 INTRA-LIGAND FREE ENERGY PREDICTED BY IDOCK:    0.30 KCAL/MOL
REMARK 927      BINDING AFFINITY PREDICTED BY RF-SCORE:    0.00 PKD
ROOT
HETATM    1  O   UNL     1     -12.631   6.527  66.080  1.00  0.00     4.365 OA 
HETATM    2  S   UNL     1     -11.859   7.230  67.309  1.00  0.00     3.026 S  
HETATM    3  O   UNL     1     -10.793   6.312  67.651  1.00  0.00    -0.280 OA 
HETATM    4  O   UNL     1     -12.877   7.580  68.274  1.00  0.00     5.803 OA 
HETATM    5  O   UNL     1     -11.236   8.581  66.644  1.00  0.00     0.586 OA 
ENDROOT
BRANCH   5   6
HETATM    6  C   UNL     1     -10.599   9.514  67.420  1.00  0.00    -0.271 A  
HETATM    7  C   UNL     1      -9.856  10.575  66.909  1.00  0.00    -0.235 A  
HETATM    8  C   UNL     1      -9.248  11.492  67.772  1.00  0.00    -0.165 A  
HETATM    9  C   UNL     1      -9.378  11.376  69.166  1.00  0.00     0.140 A  
HETATM   10  C   UNL     1      -8.697  12.416  70.069  1.00  0.00     3.468 C  
HETATM   11  C   UNL     1     -10.128  10.296  69.662  1.00  0.00    -0.257 A  
HETATM   12  C   UNL     1      -7.515  11.866  70.877  1.00  0.00     4.816 A  
HETATM   13  C   UNL     1     -10.751   9.388  68.799  1.00  0.00    -0.200 A  
HETATM   14  C   UNL     1      -9.660  13.286  70.885  1.00  0.00     7.496 A  
HETATM   15  C   UNL     1      -6.236  12.396  70.670  1.00  0.00     0.383 A  
HETATM   16  C   UNL     1     -10.464  12.748  71.900  1.00  0.00    10.357 A  
HETATM   17  C   UNL     1      -5.160  11.890  71.395  1.00  0.00    -0.077 A  
HETATM   18  C   UNL     1     -11.343  13.549  72.632  1.00  0.00     4.279 A  
HETATM   19  C   UNL     1     -11.390  14.921  72.405  1.00  0.00     0.131 A  
HETATM   20  C   UNL     1      -5.378  10.873  72.312  1.00  0.00     0.415 A  
HETATM   21  C   UNL     1     -10.605  15.476  71.395  1.00  0.00     0.383 A  
HETATM   22  N   UNL     1      -7.737  10.876  71.783  1.00  0.00     5.308 NA 
HETATM   23  C   UNL     1      -6.673  10.406  72.472  1.00  0.00     2.989 A  
HETATM   24  C   UNL     1      -9.750  14.668  70.639  1.00  0.00     1.560 A  
BRANCH  19  25
HETATM   25  O   UNL     1     -12.161  15.798  73.121  1.00  0.00    -0.410 OA 
HETATM   26  S   UNL     1     -13.221  16.797  72.386  1.00  0.00     2.907 S  
HETATM   27  O   UNL     1     -12.520  18.007  72.013  1.00  0.00     6.152 OA 
HETATM   28  O   UNL     1     -14.028  16.059  71.440  1.00  0.00    -0.197 OA 
HETATM   29  O   UNL     1     -14.185  17.225  73.603  1.00  0.00     1.533 OA 
ENDBRANCH  19  25
ENDBRANCH   5   6
TORSDOF 2
ENDMDL
MODEL      128
REMARK 921   NORMALIZED FREE ENERGY PREDICTED BY IDOCK:   64.68 KCAL/MOL
REMARK 922        TOTAL FREE ENERGY PREDICTED BY IDOCK:   71.90 KCAL/MOL
REMARK 923 INTER-LIGAND FREE ENERGY PREDICTED BY IDOCK:   71.80 KCAL/MOL
REMARK 924 INTRA-LIGAND FREE ENERGY PREDICTED BY IDOCK:    0.10 KCAL/MOL
REMARK 927      BINDING AFFINITY PREDICTED BY RF-SCORE:    0.00 PKD
ROOT
HETATM    1  O   UNL     1      -8.170   9.336  73.529  1.00  0.00     0.512 OA 
HETATM    2  S   UNL     1      -8.081  10.470  72.387  1.00  0.00     9.266 S  
HETATM    3  O   UNL     1      -9.451  10.676  71.964  1.00  0.00     5.688 OA 
HETATM    4  O   UNL     1      -7.075  10.018  71.452  1.00  0.00    -0.098 OA 
HETATM    5  O   UNL     1      -7.545  11.780  73.192  1.00  0.00    13.088 OA 
ENDROOT
BRANCH   5   6
HETATM    6  C   UNL     1      -7.227  12.933  72.521  1.00  0.00     9.055 A  
HETATM    7  C   UNL     1      -5.976  13.189  71.965  1.00  0.00     1.091 A  
HETATM    8  C   UNL     1      -5.738  14.387  71.285  1.00  0.00    -0.171 A  
HETATM    9  C   UNL     1      -6.748  15.352  71.134  1.00  0.00     1.182 A  
HETATM   10  C   UNL     1      -6.436  16.647  70.369  1.00  0.00     0.641 C  
HETATM   11  C   UNL     1      -8.001  15.076  71.706  1.00  0.00     4.506 A  
HETATM   12  C   UNL     1      -6.396  17.902  71.251  1.00  0.00     2.114 A  
HETATM   13  C   UNL     1      -8.246  13.870  72.372  1.00  0.00     9.750 A  
HETATM   14  C   UNL     1      -7.221  16.827  69.064  1.00  0.00    -0.225 A  
HETATM   15  C   UNL     1      -5.206  18.630  71.356  1.00  0.00    -0.265 A  
HETATM   16  C   UNL     1      -8.611  17.010  69.055  1.00  0.00    -0.126 A  
HETATM   17  C   UNL     1      -5.165  19.763  72.164  1.00  0.00    -0.032 A  
HETATM   18  C   UNL     1      -9.316  17.165  67.860  1.00  0.00    -0.249 A  
HETATM   19  C   UNL     1      -8.634  17.203  66.648  1.00  0.00    -0.253 A  
HETATM   20  C   UNL     1      -6.308  20.150  72.848  1.00  0.00     2.815 A  
HETATM   21  C   UNL     1      -7.252  17.016  66.633  1.00  0.00    -0.293 A  
HETATM   22  N   UNL     1      -7.523  18.282  71.910  1.00  0.00     7.091 NA 
HETATM   23  C   UNL     1      -7.452  19.386  72.688  1.00  0.00     3.893 A  
HETATM   24  C   UNL     1      -6.551  16.826  67.828  1.00  0.00    -0.161 A  
BRANCH  19  25
HETATM   25  O   UNL     1      -9.226  17.426  65.433  1.00  0.00    -0.057 OA 
HETATM   26  S   UNL     1     -10.640  16.718  65.031  1.00  0.00     0.170 S  
HETATM   27  O   UNL     1     -10.349  15.426  64.444  1.00  0.00    -0.008 OA 
HETATM   28  O   UNL     1     -11.598  16.872  66.103  1.00  0.00     0.898 OA 
HETATM   29  O   UNL     1     -11.144  17.634  63.806  1.00  0.00     1.982 OA 
ENDBRANCH  19  25
ENDBRANCH   5   6
TORSDOF 2
ENDMDL
MODEL      129
REMARK 921   NORMALIZED FREE ENERGY PREDICTED BY IDOCK:   65.98 KCAL/MOL
REMARK 922        TOTAL FREE ENERGY PREDICTED BY IDOCK:   73.35 KCAL/MOL
REMARK 923 INTER-LIGAND FREE ENERGY PREDICTED BY IDOCK:   73.26 KCAL/MOL
REMARK 924 INTRA-LIGAND FREE ENERGY PREDICTED BY IDOCK:    0.10 KCAL/MOL
REMARK 927      BINDING AFFINITY PREDICTED BY RF-SCORE:    0.00 PKD
ROOT
HETATM    1  O   UNL     1      -9.660  15.117  73.891  1.00  0.00     7.184 OA 
HETATM    2  S   UNL     1      -8.813  14.603  72.619  1.00  0.00     9.644 S  
HETATM    3  O   UNL     1      -8.166  13.389  73.070  1.00  0.00    10.044 OA 
HETATM    4  O   UNL     1      -8.036  15.737  72.171  1.00  0.00     6.561 OA 
HETATM    5  O   UNL     1      -9.960  14.245  71.518  1.00  0.00     3.262 OA 
ENDROOT
BRANCH   5   6
HETATM    6  C   UNL     1      -9.617  13.882  70.241  1.00  0.00     2.592 A  
HETATM    7  C   UNL     1      -8.324  13.966  69.730  1.00  0.00     1.233 A  
HETATM    8  C   UNL     1      -8.056  13.562  68.419  1.00  0.00    -0.145 A  
HETATM    9  C   UNL     1      -9.071  13.055  67.591  1.00  0.00    -0.198 A  
HETATM   10  C   UNL     1      -8.721  12.617  66.161  1.00  0.00     0.293 C  
HETATM   11  C   UNL     1     -10.370  12.983  68.124  1.00  0.00    -0.244 A  
HETATM   12  C   UNL     1      -9.304  13.521  65.068  1.00  0.00     0.815 A  
HETATM   13  C   UNL     1     -10.636  13.370  69.442  1.00  0.00     0.164 A  
HETATM   14  C   UNL     1      -8.895  11.118  65.888  1.00  0.00    -0.193 A  
HETATM   15  C   UNL     1      -8.437  14.205  64.208  1.00  0.00     8.737 A  
HETATM   16  C   UNL     1     -10.156  10.504  65.899  1.00  0.00    -0.323 A  
HETATM   17  C   UNL     1      -8.963  15.036  63.222  1.00  0.00    15.692 A  
HETATM   18  C   UNL     1     -10.301   9.137  65.657  1.00  0.00     0.620 A  
HETATM   19  C   UNL     1      -9.190   8.365  65.334  1.00  0.00     0.091 A  
HETATM   20  C   UNL     1     -10.339  15.166  63.110  1.00  0.00     7.743 A  
HETATM   21  C   UNL     1      -7.925   8.953  65.324  1.00  0.00    -0.116 A  
HETATM   22  N   UNL     1     -10.654  13.637  64.955  1.00  0.00    -0.359 NA 
HETATM   23  C   UNL     1     -11.136  14.451  63.989  1.00  0.00     0.377 A  
HETATM   24  C   UNL     1      -7.777  10.315  65.601  1.00  0.00    -0.148 A  
BRANCH  19  25
HETATM   25  O   UNL     1      -9.240   7.036  65.006  1.00  0.00     0.501 OA 
HETATM   26  S   UNL     1      -9.474   5.886  66.140  1.00  0.00    -0.056 S  
HETATM   27  O   UNL     1      -8.184   5.514  66.681  1.00  0.00    -0.105 OA 
HETATM   28  O   UNL     1     -10.586   6.246  66.992  1.00  0.00    -0.239 OA 
HETATM   29  O   UNL     1      -9.941   4.624  65.254  1.00  0.00    -0.170 OA 
ENDBRANCH  19  25
ENDBRANCH   5   6
TORSDOF 2
ENDMDL
MODEL      130
REMARK 921   NORMALIZED FREE ENERGY PREDICTED BY IDOCK:   67.69 KCAL/MOL
REMARK 922        TOTAL FREE ENERGY PREDICTED BY IDOCK:   75.27 KCAL/MOL
REMARK 923 INTER-LIGAND FREE ENERGY PREDICTED BY IDOCK:   75.23 KCAL/MOL
REMARK 924 INTRA-LIGAND FREE ENERGY PREDICTED BY IDOCK:    0.04 KCAL/MOL
REMARK 927      BINDING AFFINITY PREDICTED BY RF-SCORE:    0.00 PKD
ROOT
HETATM    1  O   UNL     1     -12.826   8.592  62.368  1.00  0.00    14.036 OA 
HETATM    2  S   UNL     1     -11.850   8.181  63.584  1.00  0.00    24.234 S  
HETATM    3  O   UNL     1     -11.471   6.811  63.307  1.00  0.00    12.941 OA 
HETATM    4  O   UNL     1     -12.556   8.525  64.798  1.00  0.00    16.492 OA 
HETATM    5  O   UNL     1     -10.565   9.163  63.390  1.00  0.00     4.320 OA 
ENDROOT
BRANCH   5   6
HETATM    6  C   UNL     1      -9.557   9.191  64.320  1.00  0.00     0.818 A  
HETATM    7  C   UNL     1      -8.203   9.147  64.000  1.00  0.00    -0.168 A  
HETATM    8  C   UNL     1      -7.238   9.193  65.011  1.00  0.00    -0.096 A  
HETATM    9  C   UNL     1      -7.604   9.295  66.363  1.00  0.00    -0.093 A  
HETATM   10  C   UNL     1      -6.503   9.351  67.433  1.00  0.00    -0.063 C  
HETATM   11  C   UNL     1      -8.975   9.334  66.665  1.00  0.00    -0.165 A  
HETATM   12  C   UNL     1      -6.423   8.100  68.316  1.00  0.00    -0.055 A  
HETATM   13  C   UNL     1      -9.942   9.305  65.653  1.00  0.00    -0.130 A  
HETATM   14  C   UNL     1      -6.431  10.670  68.212  1.00  0.00    -0.058 A  
HETATM   15  C   UNL     1      -5.255   7.328  68.309  1.00  0.00    -0.021 A  
HETATM   16  C   UNL     1      -7.460  11.079  69.072  1.00  0.00    -0.129 A  
HETATM   17  C   UNL     1      -5.185   6.185  69.102  1.00  0.00    -0.004 A  
HETATM   18  C   UNL     1      -7.387  12.285  69.771  1.00  0.00     0.786 A  
HETATM   19  C   UNL     1      -6.251  13.081  69.671  1.00  0.00    -0.113 A  
HETATM   20  C   UNL     1      -6.274   5.836  69.887  1.00  0.00    -0.026 A  
HETATM   21  C   UNL     1      -5.218  12.698  68.815  1.00  0.00    -0.055 A  
HETATM   22  N   UNL     1      -7.490   7.769  69.092  1.00  0.00    -0.092 NA 
HETATM   23  C   UNL     1      -7.392   6.654  69.851  1.00  0.00    -0.086 A  
HETATM   24  C   UNL     1      -5.307  11.506  68.090  1.00  0.00    -0.043 A  
BRANCH  19  25
HETATM   25  O   UNL     1      -6.054  14.241  70.373  1.00  0.00    -0.157 OA 
HETATM   26  S   UNL     1      -6.093  14.269  72.004  1.00  0.00     0.666 S  
HETATM   27  O   UNL     1      -7.465  14.468  72.420  1.00  0.00     2.695 OA 
HETATM   28  O   UNL     1      -5.279  13.201  72.540  1.00  0.00    -0.362 OA 
HETATM   29  O   UNL     1      -5.344  15.654  72.339  1.00  0.00     0.159 OA 
ENDBRANCH  19  25
ENDBRANCH   5   6
TORSDOF 2
ENDMDL
MODEL      131
REMARK 921   NORMALIZED FREE ENERGY PREDICTED BY IDOCK:   68.22 KCAL/MOL
REMARK 922        TOTAL FREE ENERGY PREDICTED BY IDOCK:   75.86 KCAL/MOL
REMARK 923 INTER-LIGAND FREE ENERGY PREDICTED BY IDOCK:   75.76 KCAL/MOL
REMARK 924 INTRA-LIGAND FREE ENERGY PREDICTED BY IDOCK:    0.10 KCAL/MOL
REMARK 927      BINDING AFFINITY PREDICTED BY RF-SCORE:    0.00 PKD
ROOT
HETATM    1  O   UNL     1      -9.670  15.161  74.175  1.00  0.00     7.482 OA 
HETATM    2  S   UNL     1      -8.716  14.083  73.448  1.00  0.00    12.669 S  
HETATM    3  O   UNL     1      -8.138  13.312  74.528  1.00  0.00     5.179 OA 
HETATM    4  O   UNL     1      -7.878  14.837  72.542  1.00  0.00     3.939 OA 
HETATM    5  O   UNL     1      -9.760  13.161  72.603  1.00  0.00    13.309 OA 
ENDROOT
BRANCH   5   6
HETATM    6  C   UNL     1      -9.304  12.191  71.747  1.00  0.00    17.375 A  
HETATM    7  C   UNL     1      -7.970  12.047  71.376  1.00  0.00    10.337 A  
HETATM    8  C   UNL     1      -7.586  11.022  70.506  1.00  0.00     1.844 A  
HETATM    9  C   UNL     1      -8.525  10.110  69.997  1.00  0.00    -0.036 A  
HETATM   10  C   UNL     1      -8.049   8.997  69.051  1.00  0.00    -0.107 C  
HETATM   11  C   UNL     1      -9.867  10.275  70.379  1.00  0.00     0.251 A  
HETATM   12  C   UNL     1      -8.523   9.159  67.602  1.00  0.00    -0.116 A  
HETATM   13  C   UNL     1     -10.249  11.290  71.263  1.00  0.00     5.528 A  
HETATM   14  C   UNL     1      -8.206   7.575  69.604  1.00  0.00    -0.129 A  
HETATM   15  C   UNL     1      -7.577   9.320  66.583  1.00  0.00    -0.093 A  
HETATM   16  C   UNL     1      -9.466   7.007  69.838  1.00  0.00    -0.157 A  
HETATM   17  C   UNL     1      -8.007   9.478  65.268  1.00  0.00    -0.112 A  
HETATM   18  C   UNL     1      -9.597   5.714  70.349  1.00  0.00    -0.217 A  
HETATM   19  C   UNL     1      -8.466   4.937  70.576  1.00  0.00    -0.097 A  
HETATM   20  C   UNL     1      -9.366   9.470  64.993  1.00  0.00    -0.294 A  
HETATM   21  C   UNL     1      -7.202   5.484  70.357  1.00  0.00    -0.067 A  
HETATM   22  N   UNL     1      -9.857   9.139  67.337  1.00  0.00    -0.173 NA 
HETATM   23  C   UNL     1     -10.244   9.295  66.051  1.00  0.00    -0.086 A  
HETATM   24  C   UNL     1      -7.071   6.791  69.879  1.00  0.00    -0.071 A  
BRANCH  19  25
HETATM   25  O   UNL     1      -8.494   3.635  71.003  1.00  0.00    -0.069 OA 
HETATM   26  S   UNL     1      -8.843   3.251  72.550  1.00  0.00    -0.085 S  
HETATM   27  O   UNL     1      -7.613   3.280  73.312  1.00  0.00    -0.054 OA 
HETATM   28  O   UNL     1     -10.028   3.959  72.984  1.00  0.00    -0.126 OA 
HETATM   29  O   UNL     1      -9.233   1.693  72.435  1.00  0.00    -0.071 OA 
ENDBRANCH  19  25
ENDBRANCH   5   6
TORSDOF 2
ENDMDL
MODEL      132
REMARK 921   NORMALIZED FREE ENERGY PREDICTED BY IDOCK:   91.67 KCAL/MOL
REMARK 922        TOTAL FREE ENERGY PREDICTED BY IDOCK:  102.05 KCAL/MOL
REMARK 923 INTER-LIGAND FREE ENERGY PREDICTED BY IDOCK:  102.27 KCAL/MOL
REMARK 924 INTRA-LIGAND FREE ENERGY PREDICTED BY IDOCK:   -0.22 KCAL/MOL
REMARK 927      BINDING AFFINITY PREDICTED BY RF-SCORE:    0.00 PKD
ROOT
HETATM    1  O   UNL     1     -12.724  17.013  69.957  1.00  0.00     3.001 OA 
HETATM    2  S   UNL     1     -12.209  15.833  68.987  1.00  0.00     0.175 S  
HETATM    3  O   UNL     1     -10.865  16.220  68.614  1.00  0.00    -0.284 OA 
HETATM    4  O   UNL     1     -13.238  15.661  67.986  1.00  0.00     2.572 OA 
HETATM    5  O   UNL     1     -12.161  14.530  69.965  1.00  0.00    -0.312 OA 
ENDROOT
BRANCH   5   6
HETATM    6  C   UNL     1     -11.879  13.287  69.462  1.00  0.00    -0.327 A  
HETATM    7  C   UNL     1     -10.811  13.016  68.610  1.00  0.00    -0.287 A  
HETATM    8  C   UNL     1     -10.586  11.715  68.152  1.00  0.00    -0.230 A  
HETATM    9  C   UNL     1     -11.416  10.651  68.543  1.00  0.00    -0.333 A  
HETATM   10  C   UNL     1     -11.119   9.239  68.017  1.00  0.00     0.055 C  
HETATM   11  C   UNL     1     -12.491  10.945  69.399  1.00  0.00    -0.037 A  
HETATM   12  C   UNL     1     -12.157   8.708  67.022  1.00  0.00     6.325 A  
HETATM   13  C   UNL     1     -12.707  12.244  69.872  1.00  0.00     0.366 A  
HETATM   14  C   UNL     1     -10.713   8.225  69.094  1.00  0.00    -0.117 A  
HETATM   15  C   UNL     1     -11.763   8.404  65.714  1.00  0.00     7.827 A  
HETATM   16  C   UNL     1     -11.608   7.802  70.087  1.00  0.00     0.029 A  
HETATM   17  C   UNL     1     -12.707   7.934  64.805  1.00  0.00    21.120 A  
HETATM   18  C   UNL     1     -11.225   6.884  71.067  1.00  0.00    -0.323 A  
HETATM   19  C   UNL     1      -9.954   6.321  71.036  1.00  0.00    -0.182 A  
HETATM   20  C   UNL     1     -14.022   7.772  65.216  1.00  0.00    20.374 A  
HETATM   21  C   UNL     1      -9.044   6.734  70.062  1.00  0.00    -0.148 A  
HETATM   22  N   UNL     1     -13.443   8.541  67.434  1.00  0.00    16.938 NA 
HETATM   23  C   UNL     1     -14.337   8.083  66.529  1.00  0.00    26.807 A  
HETATM   24  C   UNL     1      -9.417   7.679  69.102  1.00  0.00    -0.154 A  
BRANCH  19  25
HETATM   25  O   UNL     1      -9.511   5.359  71.906  1.00  0.00    -0.147 OA 
HETATM   26  S   UNL     1      -8.468   5.712  73.110  1.00  0.00    -0.117 S  
HETATM   27  O   UNL     1      -7.121   5.598  72.590  1.00  0.00    -0.084 OA 
HETATM   28  O   UNL     1      -8.913   6.886  73.827  1.00  0.00    -0.140 OA 
HETATM   29  O   UNL     1      -8.648   4.453  74.097  1.00  0.00    -0.100 OA 
ENDBRANCH  19  25
ENDBRANCH   5   6
TORSDOF 2
ENDMDL
