MODEL        1
REMARK 921   NORMALIZED FREE ENERGY PREDICTED BY IDOCK:   -5.41 KCAL/MOL
REMARK 922        TOTAL FREE ENERGY PREDICTED BY IDOCK:   -6.68 KCAL/MOL
REMARK 923 INTER-LIGAND FREE ENERGY PREDICTED BY IDOCK:   -6.36 KCAL/MOL
REMARK 924 INTRA-LIGAND FREE ENERGY PREDICTED BY IDOCK:   -0.32 KCAL/MOL
REMARK 927      BINDING AFFINITY PREDICTED BY RF-SCORE:    0.00 PKD
ROOT
HETATM    1  C   UNL     1      -8.481  16.018  66.234  1.00  0.00    -0.337 C  
HETATM    2  C   UNL     1      -9.955  15.658  66.372  1.00  0.00    -0.298 C  
ENDROOT
BRANCH   2   3
HETATM    3  C   UNL     1     -10.502  14.831  65.206  1.00  0.00    -0.427 C  
HETATM    4  C   UNL     1     -11.296  13.575  65.602  1.00  0.00    -0.312 C  
HETATM    5  C   UNL     1     -11.501  15.561  64.334  1.00  0.00    -0.259 C  
HETATM    6  C   UNL     1     -12.160  13.382  64.366  1.00  0.00    -0.416 C  
HETATM    7  O   UNL     1     -12.472  14.698  63.914  1.00  0.00    -0.813 OA 
HETATM    8  O   UNL     1     -11.454  16.732  63.998  1.00  0.00    -1.198 OA 
BRANCH   4   9
HETATM    9  C   UNL     1     -12.152  13.718  66.880  1.00  0.00    -0.454 C  
BRANCH   9  10
HETATM   10  C   UNL     1     -11.857  12.651  67.886  1.00  0.00    -0.332 A  
HETATM   11  C   UNL     1     -11.511  11.323  67.710  1.00  0.00    -0.275 A  
HETATM   12  N   UNL     1     -11.352  10.686  68.911  1.00  0.00    -0.265 NA 
HETATM   13  C   UNL     1     -11.568  11.608  69.820  1.00  0.00    -0.315 A  
HETATM   14  N   UNL     1     -11.862  12.813  69.252  1.00  0.00    -0.310 NA 
HETATM   15  C   UNL     1     -12.123  14.027  69.991  1.00  0.00    -0.348 C  
ENDBRANCH   9  10
ENDBRANCH   4   9
ENDBRANCH   2   3
TORSDOF 3
ENDMDL
MODEL        2
REMARK 921   NORMALIZED FREE ENERGY PREDICTED BY IDOCK:   -5.14 KCAL/MOL
REMARK 922        TOTAL FREE ENERGY PREDICTED BY IDOCK:   -6.36 KCAL/MOL
REMARK 923 INTER-LIGAND FREE ENERGY PREDICTED BY IDOCK:   -6.02 KCAL/MOL
REMARK 924 INTRA-LIGAND FREE ENERGY PREDICTED BY IDOCK:   -0.34 KCAL/MOL
REMARK 927      BINDING AFFINITY PREDICTED BY RF-SCORE:    0.00 PKD
ROOT
HETATM    1  C   UNL     1     -10.231  15.154  65.967  1.00  0.00    -0.325 C  
HETATM    2  C   UNL     1     -11.183  14.854  67.118  1.00  0.00    -0.345 C  
ENDROOT
BRANCH   2   3
HETATM    3  C   UNL     1     -10.943  13.495  67.782  1.00  0.00    -0.284 C  
HETATM    4  C   UNL     1     -11.289  13.421  69.278  1.00  0.00    -0.314 C  
HETATM    5  C   UNL     1     -11.778  12.365  67.219  1.00  0.00    -0.349 C  
HETATM    6  C   UNL     1     -11.537  11.930  69.441  1.00  0.00    -0.325 C  
HETATM    7  O   UNL     1     -12.145  11.512  68.220  1.00  0.00    -0.580 OA 
HETATM    8  O   UNL     1     -12.063  12.185  66.048  1.00  0.00    -0.612 OA 
BRANCH   4   9
HETATM    9  C   UNL     1     -12.518  14.253  69.708  1.00  0.00    -0.264 C  
BRANCH   9  10
HETATM   10  C   UNL     1     -12.397  14.767  71.108  1.00  0.00    -0.331 A  
HETATM   11  C   UNL     1     -11.818  15.927  71.590  1.00  0.00    -0.490 A  
HETATM   12  N   UNL     1     -11.906  15.999  72.954  1.00  0.00    -0.474 NA 
HETATM   13  C   UNL     1     -12.551  14.914  73.314  1.00  0.00    -0.471 A  
HETATM   14  N   UNL     1     -12.882  14.147  72.236  1.00  0.00    -0.342 NA 
HETATM   15  C   UNL     1     -13.618  12.905  72.306  1.00  0.00    -0.515 C  
ENDBRANCH   9  10
ENDBRANCH   4   9
ENDBRANCH   2   3
TORSDOF 3
ENDMDL
MODEL        3
REMARK 921   NORMALIZED FREE ENERGY PREDICTED BY IDOCK:   -4.99 KCAL/MOL
REMARK 922        TOTAL FREE ENERGY PREDICTED BY IDOCK:   -6.18 KCAL/MOL
REMARK 923 INTER-LIGAND FREE ENERGY PREDICTED BY IDOCK:   -5.87 KCAL/MOL
REMARK 924 INTRA-LIGAND FREE ENERGY PREDICTED BY IDOCK:   -0.32 KCAL/MOL
REMARK 927      BINDING AFFINITY PREDICTED BY RF-SCORE:    0.00 PKD
ROOT
HETATM    1  C   UNL     1      -9.405   8.275  72.581  1.00  0.00    -0.350 C  
HETATM    2  C   UNL     1     -10.557   8.864  71.777  1.00  0.00    -0.432 C  
ENDROOT
BRANCH   2   3
HETATM    3  C   UNL     1     -11.942   8.475  72.302  1.00  0.00    -0.454 C  
HETATM    4  C   UNL     1     -13.025   9.559  72.177  1.00  0.00    -0.497 C  
HETATM    5  C   UNL     1     -12.585   7.315  71.574  1.00  0.00    -0.379 C  
HETATM    6  C   UNL     1     -14.284   8.707  72.176  1.00  0.00    -0.439 C  
HETATM    7  O   UNL     1     -13.932   7.514  71.475  1.00  0.00    -0.408 OA 
HETATM    8  O   UNL     1     -12.025   6.313  71.162  1.00  0.00    -0.270 OA 
BRANCH   4   9
HETATM    9  C   UNL     1     -12.930  10.436  70.909  1.00  0.00    -0.475 C  
BRANCH   9  10
HETATM   10  C   UNL     1     -12.886  11.897  71.228  1.00  0.00    -0.290 A  
HETATM   11  C   UNL     1     -13.412  12.597  72.299  1.00  0.00    -0.438 A  
HETATM   12  N   UNL     1     -13.162  13.938  72.189  1.00  0.00    -0.408 NA 
HETATM   13  C   UNL     1     -12.468  14.068  71.082  1.00  0.00    -0.371 A  
HETATM   14  N   UNL     1     -12.263  12.864  70.475  1.00  0.00    -0.361 NA 
HETATM   15  C   UNL     1     -11.512  12.678  69.253  1.00  0.00    -0.294 C  
ENDBRANCH   9  10
ENDBRANCH   4   9
ENDBRANCH   2   3
TORSDOF 3
ENDMDL
MODEL        4
REMARK 921   NORMALIZED FREE ENERGY PREDICTED BY IDOCK:   -4.94 KCAL/MOL
REMARK 922        TOTAL FREE ENERGY PREDICTED BY IDOCK:   -6.13 KCAL/MOL
REMARK 923 INTER-LIGAND FREE ENERGY PREDICTED BY IDOCK:   -6.01 KCAL/MOL
REMARK 924 INTRA-LIGAND FREE ENERGY PREDICTED BY IDOCK:   -0.12 KCAL/MOL
REMARK 927      BINDING AFFINITY PREDICTED BY RF-SCORE:    0.00 PKD
ROOT
HETATM    1  C   UNL     1     -10.031   9.962  65.427  1.00  0.00    -0.349 C  
HETATM    2  C   UNL     1     -10.416  11.269  64.745  1.00  0.00    -0.384 C  
ENDROOT
BRANCH   2   3
HETATM    3  C   UNL     1     -11.541  12.029  65.454  1.00  0.00    -0.343 C  
HETATM    4  C   UNL     1     -11.125  13.348  66.126  1.00  0.00    -0.299 C  
HETATM    5  C   UNL     1     -12.659  12.489  64.544  1.00  0.00    -0.421 C  
HETATM    6  C   UNL     1     -12.454  14.086  66.154  1.00  0.00    -0.430 C  
HETATM    7  O   UNL     1     -13.122  13.706  64.952  1.00  0.00    -0.713 OA 
HETATM    8  O   UNL     1     -13.132  11.872  63.605  1.00  0.00    -0.696 OA 
BRANCH   4   9
HETATM    9  C   UNL     1     -10.043  14.153  65.373  1.00  0.00    -0.359 C  
BRANCH   9  10
HETATM   10  C   UNL     1     -10.278  15.629  65.442  1.00  0.00    -0.370 A  
HETATM   11  C   UNL     1     -10.979  16.466  64.593  1.00  0.00    -0.143 A  
HETATM   12  N   UNL     1     -10.924  17.766  65.017  1.00  0.00    -0.696 NA 
HETATM   13  C   UNL     1     -10.223  17.736  66.127  1.00  0.00    -0.339 A  
HETATM   14  N   UNL     1      -9.824  16.468  66.433  1.00  0.00    -0.276 NA 
HETATM   15  C   UNL     1      -9.059  16.109  67.606  1.00  0.00    -0.196 C  
ENDBRANCH   9  10
ENDBRANCH   4   9
ENDBRANCH   2   3
TORSDOF 3
ENDMDL
MODEL        5
REMARK 921   NORMALIZED FREE ENERGY PREDICTED BY IDOCK:   -4.90 KCAL/MOL
REMARK 922        TOTAL FREE ENERGY PREDICTED BY IDOCK:   -6.08 KCAL/MOL
REMARK 923 INTER-LIGAND FREE ENERGY PREDICTED BY IDOCK:   -5.74 KCAL/MOL
REMARK 924 INTRA-LIGAND FREE ENERGY PREDICTED BY IDOCK:   -0.34 KCAL/MOL
REMARK 927      BINDING AFFINITY PREDICTED BY RF-SCORE:    0.00 PKD
ROOT
HETATM    1  C   UNL     1     -10.567  16.195  69.532  1.00  0.00    -0.306 C  
HETATM    2  C   UNL     1     -10.918  15.727  70.939  1.00  0.00    -0.277 C  
ENDROOT
BRANCH   2   3
HETATM    3  C   UNL     1     -12.413  15.802  71.261  1.00  0.00    -0.505 C  
HETATM    4  C   UNL     1     -13.215  14.522  70.975  1.00  0.00    -0.414 C  
HETATM    5  C   UNL     1     -12.729  16.041  72.721  1.00  0.00    -0.455 C  
HETATM    6  C   UNL     1     -14.390  14.702  71.924  1.00  0.00    -0.571 C  
HETATM    7  O   UNL     1     -13.848  15.344  73.077  1.00  0.00    -0.456 OA 
HETATM    8  O   UNL     1     -12.125  16.773  73.486  1.00  0.00    -0.426 OA 
BRANCH   4   9
HETATM    9  C   UNL     1     -12.460  13.202  71.248  1.00  0.00    -0.327 C  
BRANCH   9  10
HETATM   10  C   UNL     1     -12.118  12.470  69.988  1.00  0.00    -0.266 A  
HETATM   11  C   UNL     1     -11.973  12.934  68.693  1.00  0.00    -0.247 A  
HETATM   12  N   UNL     1     -11.676  11.915  67.829  1.00  0.00    -0.516 NA 
HETATM   13  C   UNL     1     -11.610  10.839  68.577  1.00  0.00    -0.255 A  
HETATM   14  N   UNL     1     -11.854  11.124  69.889  1.00  0.00    -0.330 NA 
HETATM   15  C   UNL     1     -11.828  10.153  70.959  1.00  0.00    -0.383 C  
ENDBRANCH   9  10
ENDBRANCH   4   9
ENDBRANCH   2   3
TORSDOF 3
ENDMDL
MODEL        6
REMARK 921   NORMALIZED FREE ENERGY PREDICTED BY IDOCK:   -4.88 KCAL/MOL
REMARK 922        TOTAL FREE ENERGY PREDICTED BY IDOCK:   -6.05 KCAL/MOL
REMARK 923 INTER-LIGAND FREE ENERGY PREDICTED BY IDOCK:   -5.66 KCAL/MOL
REMARK 924 INTRA-LIGAND FREE ENERGY PREDICTED BY IDOCK:   -0.39 KCAL/MOL
REMARK 927      BINDING AFFINITY PREDICTED BY RF-SCORE:    0.00 PKD
ROOT
HETATM    1  C   UNL     1     -12.723  11.996  63.464  1.00  0.00    -0.567 C  
HETATM    2  C   UNL     1     -11.923  13.292  63.521  1.00  0.00    -0.537 C  
ENDROOT
BRANCH   2   3
HETATM    3  C   UNL     1     -12.116  14.081  64.819  1.00  0.00    -0.455 C  
HETATM    4  C   UNL     1     -11.487  13.454  66.073  1.00  0.00    -0.351 C  
HETATM    5  C   UNL     1     -11.485  15.456  64.816  1.00  0.00    -0.336 C  
HETATM    6  C   UNL     1     -11.311  14.683  66.951  1.00  0.00    -0.356 C  
HETATM    7  O   UNL     1     -10.984  15.743  66.053  1.00  0.00    -0.282 OA 
HETATM    8  O   UNL     1     -11.450  16.239  63.882  1.00  0.00    -0.940 OA 
BRANCH   4   9
HETATM    9  C   UNL     1     -10.146  12.725  65.838  1.00  0.00    -0.286 C  
BRANCH   9  10
HETATM   10  C   UNL     1     -10.195  11.290  66.260  1.00  0.00    -0.236 A  
HETATM   11  C   UNL     1     -10.532  10.723  67.476  1.00  0.00    -0.220 A  
HETATM   12  N   UNL     1     -10.420   9.360  67.439  1.00  0.00    -0.269 NA 
HETATM   13  C   UNL     1     -10.045   9.079  66.213  1.00  0.00    -0.241 A  
HETATM   14  N   UNL     1      -9.910  10.208  65.459  1.00  0.00    -0.279 NA 
HETATM   15  C   UNL     1      -9.535  10.224  64.063  1.00  0.00    -0.300 C  
ENDBRANCH   9  10
ENDBRANCH   4   9
ENDBRANCH   2   3
TORSDOF 3
ENDMDL
MODEL        7
REMARK 921   NORMALIZED FREE ENERGY PREDICTED BY IDOCK:   -4.82 KCAL/MOL
REMARK 922        TOTAL FREE ENERGY PREDICTED BY IDOCK:   -5.99 KCAL/MOL
REMARK 923 INTER-LIGAND FREE ENERGY PREDICTED BY IDOCK:   -5.68 KCAL/MOL
REMARK 924 INTRA-LIGAND FREE ENERGY PREDICTED BY IDOCK:   -0.31 KCAL/MOL
REMARK 927      BINDING AFFINITY PREDICTED BY RF-SCORE:    0.00 PKD
ROOT
HETATM    1  C   UNL     1      -8.706  15.251  66.552  1.00  0.00    -0.314 C  
HETATM    2  C   UNL     1     -10.173  15.351  66.152  1.00  0.00    -0.324 C  
ENDROOT
BRANCH   2   3
HETATM    3  C   UNL     1     -10.519  14.588  64.870  1.00  0.00    -0.435 C  
HETATM    4  C   UNL     1     -10.818  13.091  65.053  1.00  0.00    -0.328 C  
HETATM    5  C   UNL     1     -11.773  15.067  64.173  1.00  0.00    -0.110 C  
HETATM    6  C   UNL     1     -11.675  12.818  63.827  1.00  0.00    -0.493 C  
HETATM    7  O   UNL     1     -12.440  14.006  63.630  1.00  0.00    -0.803 OA 
HETATM    8  O   UNL     1     -12.143  16.222  64.054  1.00  0.00    -0.928 OA 
BRANCH   4   9
HETATM    9  C   UNL     1     -11.558  12.726  66.358  1.00  0.00    -0.435 C  
BRANCH   9  10
HETATM   10  C   UNL     1     -11.094  11.424  66.932  1.00  0.00    -0.295 A  
HETATM   11  C   UNL     1     -10.301  10.433  66.382  1.00  0.00    -0.213 A  
HETATM   12  N   UNL     1     -10.140   9.386  67.248  1.00  0.00    -0.210 NA 
HETATM   13  C   UNL     1     -10.799   9.729  68.330  1.00  0.00    -0.210 A  
HETATM   14  N   UNL     1     -11.379  10.956  68.194  1.00  0.00    -0.323 NA 
HETATM   15  C   UNL     1     -12.150  11.619  69.223  1.00  0.00    -0.259 C  
ENDBRANCH   9  10
ENDBRANCH   4   9
ENDBRANCH   2   3
TORSDOF 3
ENDMDL
MODEL        8
REMARK 921   NORMALIZED FREE ENERGY PREDICTED BY IDOCK:   -4.81 KCAL/MOL
REMARK 922        TOTAL FREE ENERGY PREDICTED BY IDOCK:   -5.97 KCAL/MOL
REMARK 923 INTER-LIGAND FREE ENERGY PREDICTED BY IDOCK:   -5.71 KCAL/MOL
REMARK 924 INTRA-LIGAND FREE ENERGY PREDICTED BY IDOCK:   -0.27 KCAL/MOL
REMARK 927      BINDING AFFINITY PREDICTED BY RF-SCORE:    0.00 PKD
ROOT
HETATM    1  C   UNL     1     -12.406  12.734  65.316  1.00  0.00    -0.546 C  
HETATM    2  C   UNL     1     -11.908  13.048  66.722  1.00  0.00    -0.451 C  
ENDROOT
BRANCH   2   3
HETATM    3  C   UNL     1     -11.713  14.542  66.990  1.00  0.00    -0.412 C  
HETATM    4  C   UNL     1     -12.028  15.003  68.422  1.00  0.00    -0.231 C  
HETATM    5  C   UNL     1     -10.290  15.030  66.819  1.00  0.00    -0.270 C  
HETATM    6  C   UNL     1     -11.185  16.265  68.510  1.00  0.00    -0.359 C  
HETATM    7  O   UNL     1     -10.009  15.987  67.752  1.00  0.00    -0.230 OA 
HETATM    8  O   UNL     1      -9.499  14.678  65.961  1.00  0.00    -0.288 OA 
BRANCH   4   9
HETATM    9  C   UNL     1     -11.658  13.993  69.531  1.00  0.00    -0.350 C  
BRANCH   9  10
HETATM   10  C   UNL     1     -12.579  14.075  70.708  1.00  0.00    -0.360 A  
HETATM   11  C   UNL     1     -13.198  15.168  71.287  1.00  0.00    -0.464 A  
HETATM   12  N   UNL     1     -13.945  14.800  72.374  1.00  0.00    -0.468 NA 
HETATM   13  C   UNL     1     -13.815  13.496  72.454  1.00  0.00    -0.586 A  
HETATM   14  N   UNL     1     -13.013  13.011  71.463  1.00  0.00    -0.352 NA 
HETATM   15  C   UNL     1     -12.701  11.612  71.270  1.00  0.00    -0.340 C  
ENDBRANCH   9  10
ENDBRANCH   4   9
ENDBRANCH   2   3
TORSDOF 3
ENDMDL
MODEL        9
REMARK 921   NORMALIZED FREE ENERGY PREDICTED BY IDOCK:   -4.78 KCAL/MOL
REMARK 922        TOTAL FREE ENERGY PREDICTED BY IDOCK:   -5.94 KCAL/MOL
REMARK 923 INTER-LIGAND FREE ENERGY PREDICTED BY IDOCK:   -5.59 KCAL/MOL
REMARK 924 INTRA-LIGAND FREE ENERGY PREDICTED BY IDOCK:   -0.35 KCAL/MOL
REMARK 927      BINDING AFFINITY PREDICTED BY RF-SCORE:    0.00 PKD
ROOT
HETATM    1  C   UNL     1     -10.661  19.670  66.421  1.00  0.00    -0.592 C  
HETATM    2  C   UNL     1     -10.335  18.183  66.361  1.00  0.00    -0.404 C  
ENDROOT
BRANCH   2   3
HETATM    3  C   UNL     1     -10.445  17.470  67.712  1.00  0.00    -0.381 C  
HETATM    4  C   UNL     1     -10.771  15.969  67.642  1.00  0.00    -0.320 C  
HETATM    5  C   UNL     1      -9.170  17.468  68.526  1.00  0.00    -0.278 C  
HETATM    6  C   UNL     1     -10.210  15.492  68.972  1.00  0.00    -0.229 C  
HETATM    7  O   UNL     1      -9.046  16.286  69.197  1.00  0.00    -0.253 OA 
HETATM    8  O   UNL     1      -8.372  18.384  68.629  1.00  0.00    -0.324 OA 
BRANCH   4   9
HETATM    9  C   UNL     1     -10.135  15.216  66.453  1.00  0.00    -0.286 C  
BRANCH   9  10
HETATM   10  C   UNL     1     -11.144  14.452  65.655  1.00  0.00    -0.321 A  
HETATM   11  C   UNL     1     -11.820  14.796  64.499  1.00  0.00    -0.419 A  
HETATM   12  N   UNL     1     -12.682  13.806  64.112  1.00  0.00    -0.644 NA 
HETATM   13  C   UNL     1     -12.526  12.849  64.997  1.00  0.00    -0.492 A  
HETATM   14  N   UNL     1     -11.599  13.185  65.940  1.00  0.00    -0.338 NA 
HETATM   15  C   UNL     1     -11.190  12.330  67.031  1.00  0.00    -0.310 C  
ENDBRANCH   9  10
ENDBRANCH   4   9
ENDBRANCH   2   3
TORSDOF 3
ENDMDL
MODEL       10
REMARK 921   NORMALIZED FREE ENERGY PREDICTED BY IDOCK:   -4.77 KCAL/MOL
REMARK 922        TOTAL FREE ENERGY PREDICTED BY IDOCK:   -5.92 KCAL/MOL
REMARK 923 INTER-LIGAND FREE ENERGY PREDICTED BY IDOCK:   -5.61 KCAL/MOL
REMARK 924 INTRA-LIGAND FREE ENERGY PREDICTED BY IDOCK:   -0.31 KCAL/MOL
REMARK 927      BINDING AFFINITY PREDICTED BY RF-SCORE:    0.00 PKD
ROOT
HETATM    1  C   UNL     1      -9.600  10.867  63.564  1.00  0.00    -0.354 C  
HETATM    2  C   UNL     1     -10.171  12.274  63.688  1.00  0.00    -0.430 C  
ENDROOT
BRANCH   2   3
HETATM    3  C   UNL     1     -11.188  12.432  64.822  1.00  0.00    -0.353 C  
HETATM    4  C   UNL     1     -10.991  13.665  65.719  1.00  0.00    -0.281 C  
HETATM    5  C   UNL     1     -12.618  12.615  64.361  1.00  0.00    -0.387 C  
HETATM    6  C   UNL     1     -12.400  13.854  66.259  1.00  0.00    -0.449 C  
HETATM    7  O   UNL     1     -13.267  13.486  65.188  1.00  0.00    -0.720 OA 
HETATM    8  O   UNL     1     -13.157  12.053  63.423  1.00  0.00    -0.747 OA 
BRANCH   4   9
HETATM    9  C   UNL     1     -10.486  14.930  64.992  1.00  0.00    -0.429 C  
BRANCH   9  10
HETATM   10  C   UNL     1      -9.628  15.787  65.869  1.00  0.00    -0.347 A  
HETATM   11  C   UNL     1      -8.520  15.464  66.631  1.00  0.00    -0.260 A  
HETATM   12  N   UNL     1      -8.045  16.554  67.309  1.00  0.00    -0.159 NA 
HETATM   13  C   UNL     1      -8.827  17.547  66.953  1.00  0.00    -0.251 A  
HETATM   14  N   UNL     1      -9.788  17.138  66.074  1.00  0.00    -0.483 NA 
HETATM   15  C   UNL     1     -10.781  18.004  65.482  1.00  0.00     0.042 C  
ENDBRANCH   9  10
ENDBRANCH   4   9
ENDBRANCH   2   3
TORSDOF 3
ENDMDL
MODEL       11
REMARK 921   NORMALIZED FREE ENERGY PREDICTED BY IDOCK:   -4.73 KCAL/MOL
REMARK 922        TOTAL FREE ENERGY PREDICTED BY IDOCK:   -5.88 KCAL/MOL
REMARK 923 INTER-LIGAND FREE ENERGY PREDICTED BY IDOCK:   -5.47 KCAL/MOL
REMARK 924 INTRA-LIGAND FREE ENERGY PREDICTED BY IDOCK:   -0.42 KCAL/MOL
REMARK 927      BINDING AFFINITY PREDICTED BY RF-SCORE:    0.00 PKD
ROOT
HETATM    1  C   UNL     1     -11.418  11.694  67.657  1.00  0.00    -0.373 C  
HETATM    2  C   UNL     1     -11.226  11.842  66.152  1.00  0.00    -0.387 C  
ENDROOT
BRANCH   2   3
HETATM    3  C   UNL     1     -12.180  12.849  65.503  1.00  0.00    -0.527 C  
HETATM    4  C   UNL     1     -11.798  14.328  65.678  1.00  0.00    -0.373 C  
HETATM    5  C   UNL     1     -12.282  12.736  63.998  1.00  0.00    -0.441 C  
HETATM    6  C   UNL     1     -12.505  14.949  64.484  1.00  0.00    -0.206 C  
HETATM    7  O   UNL     1     -12.415  13.977  63.444  1.00  0.00    -0.826 OA 
HETATM    8  O   UNL     1     -12.293  11.706  63.345  1.00  0.00    -0.469 OA 
BRANCH   4   9
HETATM    9  C   UNL     1     -10.281  14.619  65.657  1.00  0.00    -0.382 C  
BRANCH   9  10
HETATM   10  C   UNL     1      -9.793  15.196  66.948  1.00  0.00    -0.237 A  
HETATM   11  C   UNL     1      -9.222  14.579  68.047  1.00  0.00    -0.190 A  
HETATM   12  N   UNL     1      -8.942  15.482  69.036  1.00  0.00    -0.219 NA 
HETATM   13  C   UNL     1      -9.306  16.646  68.552  1.00  0.00    -0.236 A  
HETATM   14  N   UNL     1      -9.812  16.528  67.290  1.00  0.00    -0.249 NA 
HETATM   15  C   UNL     1     -10.274  17.635  66.484  1.00  0.00    -0.355 C  
ENDBRANCH   9  10
ENDBRANCH   4   9
ENDBRANCH   2   3
TORSDOF 3
ENDMDL
MODEL       12
REMARK 921   NORMALIZED FREE ENERGY PREDICTED BY IDOCK:   -4.73 KCAL/MOL
REMARK 922        TOTAL FREE ENERGY PREDICTED BY IDOCK:   -5.88 KCAL/MOL
REMARK 923 INTER-LIGAND FREE ENERGY PREDICTED BY IDOCK:   -5.58 KCAL/MOL
REMARK 924 INTRA-LIGAND FREE ENERGY PREDICTED BY IDOCK:   -0.30 KCAL/MOL
REMARK 927      BINDING AFFINITY PREDICTED BY RF-SCORE:    0.00 PKD
ROOT
HETATM    1  C   UNL     1     -12.535  12.646  64.818  1.00  0.00    -0.555 C  
HETATM    2  C   UNL     1     -11.940  12.827  66.209  1.00  0.00    -0.460 C  
ENDROOT
BRANCH   2   3
HETATM    3  C   UNL     1     -11.967  14.273  66.711  1.00  0.00    -0.462 C  
HETATM    4  C   UNL     1     -12.065  14.440  68.236  1.00  0.00    -0.260 C  
HETATM    5  C   UNL     1     -10.721  15.071  66.395  1.00  0.00    -0.322 C  
HETATM    6  C   UNL     1     -11.464  15.826  68.411  1.00  0.00    -0.365 C  
HETATM    7  O   UNL     1     -10.435  15.918  67.427  1.00  0.00    -0.293 OA 
HETATM    8  O   UNL     1     -10.069  15.025  65.366  1.00  0.00    -0.345 OA 
BRANCH   4   9
HETATM    9  C   UNL     1     -11.302  13.381  69.061  1.00  0.00    -0.335 C  
BRANCH   9  10
HETATM   10  C   UNL     1     -12.095  12.889  70.231  1.00  0.00    -0.302 A  
HETATM   11  C   UNL     1     -12.816  13.588  71.182  1.00  0.00    -0.309 A  
HETATM   12  N   UNL     1     -13.376  12.744  72.103  1.00  0.00    -0.528 NA 
HETATM   13  C   UNL     1     -13.032  11.538  71.716  1.00  0.00    -0.394 A  
HETATM   14  N   UNL     1     -12.272  11.572  70.584  1.00  0.00    -0.383 NA 
HETATM   15  C   UNL     1     -11.762  10.404  69.902  1.00  0.00    -0.264 C  
ENDBRANCH   9  10
ENDBRANCH   4   9
ENDBRANCH   2   3
TORSDOF 3
ENDMDL
MODEL       13
REMARK 921   NORMALIZED FREE ENERGY PREDICTED BY IDOCK:   -4.68 KCAL/MOL
REMARK 922        TOTAL FREE ENERGY PREDICTED BY IDOCK:   -5.82 KCAL/MOL
REMARK 923 INTER-LIGAND FREE ENERGY PREDICTED BY IDOCK:   -5.59 KCAL/MOL
REMARK 924 INTRA-LIGAND FREE ENERGY PREDICTED BY IDOCK:   -0.24 KCAL/MOL
REMARK 927      BINDING AFFINITY PREDICTED BY RF-SCORE:    0.00 PKD
ROOT
HETATM    1  C   UNL     1     -12.522  12.415  64.579  1.00  0.00    -0.519 C  
HETATM    2  C   UNL     1     -11.844  12.622  65.928  1.00  0.00    -0.499 C  
ENDROOT
BRANCH   2   3
HETATM    3  C   UNL     1     -12.030  14.028  66.505  1.00  0.00    -0.470 C  
HETATM    4  C   UNL     1     -12.033  14.117  68.040  1.00  0.00    -0.372 C  
HETATM    5  C   UNL     1     -10.931  15.005  66.145  1.00  0.00    -0.334 C  
HETATM    6  C   UNL     1     -11.615  15.565  68.244  1.00  0.00    -0.334 C  
HETATM    7  O   UNL     1     -10.685  15.840  67.197  1.00  0.00    -0.314 OA 
HETATM    8  O   UNL     1     -10.359  15.093  65.072  1.00  0.00    -0.383 OA 
BRANCH   4   9
HETATM    9  C   UNL     1     -11.073  13.141  68.754  1.00  0.00    -0.309 C  
BRANCH   9  10
HETATM   10  C   UNL     1     -11.790  12.217  69.688  1.00  0.00    -0.324 A  
HETATM   11  C   UNL     1     -11.979  10.848  69.627  1.00  0.00    -0.343 A  
HETATM   12  N   UNL     1     -12.722  10.399  70.684  1.00  0.00    -0.345 NA 
HETATM   13  C   UNL     1     -12.970  11.466  71.407  1.00  0.00    -0.365 A  
HETATM   14  N   UNL     1     -12.417  12.585  70.856  1.00  0.00    -0.336 NA 
HETATM   15  C   UNL     1     -12.494  13.909  71.432  1.00  0.00    -0.340 C  
ENDBRANCH   9  10
ENDBRANCH   4   9
ENDBRANCH   2   3
TORSDOF 3
ENDMDL
MODEL       14
REMARK 921   NORMALIZED FREE ENERGY PREDICTED BY IDOCK:   -4.68 KCAL/MOL
REMARK 922        TOTAL FREE ENERGY PREDICTED BY IDOCK:   -5.82 KCAL/MOL
REMARK 923 INTER-LIGAND FREE ENERGY PREDICTED BY IDOCK:   -5.54 KCAL/MOL
REMARK 924 INTRA-LIGAND FREE ENERGY PREDICTED BY IDOCK:   -0.28 KCAL/MOL
REMARK 927      BINDING AFFINITY PREDICTED BY RF-SCORE:    0.00 PKD
ROOT
HETATM    1  C   UNL     1     -11.081  10.783  67.505  1.00  0.00    -0.374 C  
HETATM    2  C   UNL     1     -10.762  11.478  66.187  1.00  0.00    -0.324 C  
ENDROOT
BRANCH   2   3
HETATM    3  C   UNL     1     -11.895  12.365  65.665  1.00  0.00    -0.468 C  
HETATM    4  C   UNL     1     -11.833  13.839  66.098  1.00  0.00    -0.424 C  
HETATM    5  C   UNL     1     -11.949  12.492  64.158  1.00  0.00    -0.429 C  
HETATM    6  C   UNL     1     -12.636  14.498  64.988  1.00  0.00    -0.242 C  
HETATM    7  O   UNL     1     -12.330  13.756  63.809  1.00  0.00    -0.673 OA 
HETATM    8  O   UNL     1     -11.736  11.608  63.346  1.00  0.00    -0.402 OA 
BRANCH   4   9
HETATM    9  C   UNL     1     -10.410  14.432  66.200  1.00  0.00    -0.305 C  
BRANCH   9  10
HETATM   10  C   UNL     1     -10.403  15.795  66.816  1.00  0.00    -0.293 A  
HETATM   11  C   UNL     1     -10.283  17.043  66.232  1.00  0.00    -0.329 A  
HETATM   12  N   UNL     1     -10.300  18.038  67.171  1.00  0.00    -0.362 NA 
HETATM   13  C   UNL     1     -10.455  17.422  68.320  1.00  0.00    -0.385 A  
HETATM   14  N   UNL     1     -10.537  16.070  68.157  1.00  0.00    -0.275 NA 
HETATM   15  C   UNL     1     -10.734  15.124  69.232  1.00  0.00    -0.250 C  
ENDBRANCH   9  10
ENDBRANCH   4   9
ENDBRANCH   2   3
TORSDOF 3
ENDMDL
MODEL       15
REMARK 921   NORMALIZED FREE ENERGY PREDICTED BY IDOCK:   -4.67 KCAL/MOL
REMARK 922        TOTAL FREE ENERGY PREDICTED BY IDOCK:   -5.81 KCAL/MOL
REMARK 923 INTER-LIGAND FREE ENERGY PREDICTED BY IDOCK:   -5.48 KCAL/MOL
REMARK 924 INTRA-LIGAND FREE ENERGY PREDICTED BY IDOCK:   -0.32 KCAL/MOL
REMARK 927      BINDING AFFINITY PREDICTED BY RF-SCORE:    0.00 PKD
ROOT
HETATM    1  C   UNL     1     -12.291  12.263  63.456  1.00  0.00    -0.670 C  
HETATM    2  C   UNL     1     -12.398  12.609  64.936  1.00  0.00    -0.563 C  
ENDROOT
BRANCH   2   3
HETATM    3  C   UNL     1     -11.074  12.496  65.696  1.00  0.00    -0.338 C  
HETATM    4  C   UNL     1     -10.256  13.794  65.794  1.00  0.00    -0.322 C  
HETATM    5  C   UNL     1     -11.217  12.114  67.153  1.00  0.00    -0.314 C  
HETATM    6  C   UNL     1      -9.426  13.517  67.037  1.00  0.00    -0.251 C  
HETATM    7  O   UNL     1     -10.280  12.767  67.901  1.00  0.00    -0.217 OA 
HETATM    8  O   UNL     1     -12.008  11.313  67.620  1.00  0.00    -0.634 OA 
BRANCH   4   9
HETATM    9  C   UNL     1     -11.092  15.085  65.943  1.00  0.00    -0.334 C  
BRANCH   9  10
HETATM   10  C   UNL     1     -10.394  16.124  66.763  1.00  0.00    -0.291 A  
HETATM   11  C   UNL     1      -9.377  16.998  66.426  1.00  0.00    -0.270 A  
HETATM   12  N   UNL     1      -9.011  17.773  67.494  1.00  0.00    -0.242 NA 
HETATM   13  C   UNL     1      -9.805  17.406  68.472  1.00  0.00    -0.320 A  
HETATM   14  N   UNL     1     -10.667  16.425  68.077  1.00  0.00    -0.324 NA 
HETATM   15  C   UNL     1     -11.680  15.833  68.922  1.00  0.00    -0.394 C  
ENDBRANCH   9  10
ENDBRANCH   4   9
ENDBRANCH   2   3
TORSDOF 3
ENDMDL
MODEL       16
REMARK 921   NORMALIZED FREE ENERGY PREDICTED BY IDOCK:   -4.65 KCAL/MOL
REMARK 922        TOTAL FREE ENERGY PREDICTED BY IDOCK:   -5.79 KCAL/MOL
REMARK 923 INTER-LIGAND FREE ENERGY PREDICTED BY IDOCK:   -5.44 KCAL/MOL
REMARK 924 INTRA-LIGAND FREE ENERGY PREDICTED BY IDOCK:   -0.35 KCAL/MOL
REMARK 927      BINDING AFFINITY PREDICTED BY RF-SCORE:    0.00 PKD
ROOT
HETATM    1  C   UNL     1     -11.019  10.555  67.390  1.00  0.00    -0.352 C  
HETATM    2  C   UNL     1     -10.549  11.477  66.272  1.00  0.00    -0.309 C  
ENDROOT
BRANCH   2   3
HETATM    3  C   UNL     1     -11.678  12.272  65.610  1.00  0.00    -0.440 C  
HETATM    4  C   UNL     1     -12.201  13.473  66.414  1.00  0.00    -0.454 C  
HETATM    5  C   UNL     1     -11.300  12.925  64.298  1.00  0.00    -0.371 C  
HETATM    6  C   UNL     1     -12.782  14.332  65.303  1.00  0.00    -0.343 C  
HETATM    7  O   UNL     1     -11.917  14.137  64.184  1.00  0.00    -0.441 OA 
HETATM    8  O   UNL     1     -10.589  12.451  63.428  1.00  0.00    -0.436 OA 
BRANCH   4   9
HETATM    9  C   UNL     1     -11.128  14.236  67.222  1.00  0.00    -0.315 C  
BRANCH   9  10
HETATM   10  C   UNL     1     -11.568  14.527  68.623  1.00  0.00    -0.315 A  
HETATM   11  C   UNL     1     -12.249  13.737  69.531  1.00  0.00    -0.293 A  
HETATM   12  N   UNL     1     -12.476  14.406  70.703  1.00  0.00    -0.330 NA 
HETATM   13  C   UNL     1     -11.921  15.584  70.538  1.00  0.00    -0.371 A  
HETATM   14  N   UNL     1     -11.348  15.701  69.306  1.00  0.00    -0.319 NA 
HETATM   15  C   UNL     1     -10.638  16.869  68.837  1.00  0.00    -0.353 C  
ENDBRANCH   9  10
ENDBRANCH   4   9
ENDBRANCH   2   3
TORSDOF 3
ENDMDL
MODEL       17
REMARK 921   NORMALIZED FREE ENERGY PREDICTED BY IDOCK:   -4.64 KCAL/MOL
REMARK 922        TOTAL FREE ENERGY PREDICTED BY IDOCK:   -5.77 KCAL/MOL
REMARK 923 INTER-LIGAND FREE ENERGY PREDICTED BY IDOCK:   -5.48 KCAL/MOL
REMARK 924 INTRA-LIGAND FREE ENERGY PREDICTED BY IDOCK:   -0.30 KCAL/MOL
REMARK 927      BINDING AFFINITY PREDICTED BY RF-SCORE:    0.00 PKD
ROOT
HETATM    1  C   UNL     1      -9.828  18.241  68.703  1.00  0.00    -0.400 C  
HETATM    2  C   UNL     1     -10.626  17.063  68.158  1.00  0.00    -0.369 C  
ENDROOT
BRANCH   2   3
HETATM    3  C   UNL     1     -10.053  16.471  66.868  1.00  0.00    -0.281 C  
HETATM    4  C   UNL     1     -10.417  15.002  66.596  1.00  0.00    -0.284 C  
HETATM    5  C   UNL     1     -10.533  17.144  65.600  1.00  0.00    -0.197 C  
HETATM    6  C   UNL     1     -10.260  14.943  65.085  1.00  0.00    -0.375 C  
HETATM    7  O   UNL     1     -10.691  16.217  64.610  1.00  0.00    -0.670 OA 
HETATM    8  O   UNL     1     -10.718  18.338  65.436  1.00  0.00    -0.610 OA 
BRANCH   4   9
HETATM    9  C   UNL     1     -11.839  14.588  67.038  1.00  0.00    -0.408 C  
BRANCH   9  10
HETATM   10  C   UNL     1     -11.826  13.444  68.001  1.00  0.00    -0.357 A  
HETATM   11  C   UNL     1     -12.033  13.421  69.369  1.00  0.00    -0.315 A  
HETATM   12  N   UNL     1     -11.905  12.154  69.871  1.00  0.00    -0.333 NA 
HETATM   13  C   UNL     1     -11.650  11.396  68.830  1.00  0.00    -0.323 A  
HETATM   14  N   UNL     1     -11.607  12.125  67.678  1.00  0.00    -0.383 NA 
HETATM   15  C   UNL     1     -11.372  11.570  66.364  1.00  0.00    -0.176 C  
ENDBRANCH   9  10
ENDBRANCH   4   9
ENDBRANCH   2   3
TORSDOF 3
ENDMDL
MODEL       18
REMARK 921   NORMALIZED FREE ENERGY PREDICTED BY IDOCK:   -4.63 KCAL/MOL
REMARK 922        TOTAL FREE ENERGY PREDICTED BY IDOCK:   -5.77 KCAL/MOL
REMARK 923 INTER-LIGAND FREE ENERGY PREDICTED BY IDOCK:   -5.45 KCAL/MOL
REMARK 924 INTRA-LIGAND FREE ENERGY PREDICTED BY IDOCK:   -0.32 KCAL/MOL
REMARK 927      BINDING AFFINITY PREDICTED BY RF-SCORE:    0.00 PKD
ROOT
HETATM    1  C   UNL     1      -9.918  18.445  68.284  1.00  0.00    -0.394 C  
HETATM    2  C   UNL     1     -10.712  17.185  67.963  1.00  0.00    -0.372 C  
ENDROOT
BRANCH   2   3
HETATM    3  C   UNL     1     -10.202  16.427  66.735  1.00  0.00    -0.285 C  
HETATM    4  C   UNL     1     -10.559  14.933  66.685  1.00  0.00    -0.305 C  
HETATM    5  C   UNL     1     -10.761  16.919  65.417  1.00  0.00    -0.150 C  
HETATM    6  C   UNL     1     -10.485  14.670  65.189  1.00  0.00    -0.416 C  
HETATM    7  O   UNL     1     -10.960  15.865  64.572  1.00  0.00    -0.527 OA 
HETATM    8  O   UNL     1     -10.973  18.078  65.104  1.00  0.00    -0.645 OA 
BRANCH   4   9
HETATM    9  C   UNL     1     -11.948  14.572  67.258  1.00  0.00    -0.375 C  
BRANCH   9  10
HETATM   10  C   UNL     1     -11.880  13.470  68.267  1.00  0.00    -0.366 A  
HETATM   11  C   UNL     1     -11.593  12.126  68.109  1.00  0.00    -0.337 A  
HETATM   12  N   UNL     1     -11.663  11.457  69.301  1.00  0.00    -0.306 NA 
HETATM   13  C   UNL     1     -11.962  12.374  70.192  1.00  0.00    -0.298 A  
HETATM   14  N   UNL     1     -12.088  13.606  69.620  1.00  0.00    -0.328 NA 
HETATM   15  C   UNL     1     -12.386  14.821  70.344  1.00  0.00    -0.344 C  
ENDBRANCH   9  10
ENDBRANCH   4   9
ENDBRANCH   2   3
TORSDOF 3
ENDMDL
MODEL       19
REMARK 921   NORMALIZED FREE ENERGY PREDICTED BY IDOCK:   -4.62 KCAL/MOL
REMARK 922        TOTAL FREE ENERGY PREDICTED BY IDOCK:   -5.75 KCAL/MOL
REMARK 923 INTER-LIGAND FREE ENERGY PREDICTED BY IDOCK:   -5.45 KCAL/MOL
REMARK 924 INTRA-LIGAND FREE ENERGY PREDICTED BY IDOCK:   -0.30 KCAL/MOL
REMARK 927      BINDING AFFINITY PREDICTED BY RF-SCORE:    0.00 PKD
ROOT
HETATM    1  C   UNL     1     -12.641  16.048  72.320  1.00  0.00    -0.505 C  
HETATM    2  C   UNL     1     -11.588  15.869  71.234  1.00  0.00    -0.509 C  
ENDROOT
BRANCH   2   3
HETATM    3  C   UNL     1     -12.152  15.369  69.901  1.00  0.00    -0.382 C  
HETATM    4  C   UNL     1     -11.436  15.889  68.644  1.00  0.00    -0.391 C  
HETATM    5  C   UNL     1     -12.065  13.872  69.705  1.00  0.00    -0.345 C  
HETATM    6  C   UNL     1     -11.785  14.798  67.644  1.00  0.00    -0.341 C  
HETATM    7  O   UNL     1     -11.798  13.586  68.397  1.00  0.00    -0.341 OA 
HETATM    8  O   UNL     1     -12.245  13.015  70.554  1.00  0.00    -0.357 OA 
BRANCH   4   9
HETATM    9  C   UNL     1      -9.907  16.063  68.787  1.00  0.00    -0.223 C  
BRANCH   9  10
HETATM   10  C   UNL     1      -9.328  16.920  67.706  1.00  0.00    -0.235 A  
HETATM   11  C   UNL     1      -8.680  16.571  66.534  1.00  0.00    -0.282 A  
HETATM   12  N   UNL     1      -8.284  17.679  65.835  1.00  0.00    -0.547 NA 
HETATM   13  C   UNL     1      -8.701  18.701  66.545  1.00  0.00    -0.304 A  
HETATM   14  N   UNL     1      -9.349  18.295  67.675  1.00  0.00    -0.265 NA 
HETATM   15  C   UNL     1      -9.944  19.187  68.645  1.00  0.00    -0.419 C  
ENDBRANCH   9  10
ENDBRANCH   4   9
ENDBRANCH   2   3
TORSDOF 3
ENDMDL
MODEL       20
REMARK 921   NORMALIZED FREE ENERGY PREDICTED BY IDOCK:   -4.61 KCAL/MOL
REMARK 922        TOTAL FREE ENERGY PREDICTED BY IDOCK:   -5.74 KCAL/MOL
REMARK 923 INTER-LIGAND FREE ENERGY PREDICTED BY IDOCK:   -5.47 KCAL/MOL
REMARK 924 INTRA-LIGAND FREE ENERGY PREDICTED BY IDOCK:   -0.26 KCAL/MOL
REMARK 927      BINDING AFFINITY PREDICTED BY RF-SCORE:    0.00 PKD
ROOT
HETATM    1  C   UNL     1     -10.486   9.982  66.958  1.00  0.00    -0.302 C  
HETATM    2  C   UNL     1     -10.127  11.275  66.236  1.00  0.00    -0.271 C  
ENDROOT
BRANCH   2   3
HETATM    3  C   UNL     1     -11.328  11.987  65.607  1.00  0.00    -0.381 C  
HETATM    4  C   UNL     1     -11.963  13.094  66.464  1.00  0.00    -0.459 C  
HETATM    5  C   UNL     1     -11.016  12.732  64.328  1.00  0.00    -0.379 C  
HETATM    6  C   UNL     1     -12.625  13.943  65.391  1.00  0.00    -0.507 C  
HETATM    7  O   UNL     1     -11.748  13.883  64.268  1.00  0.00    -0.397 OA 
HETATM    8  O   UNL     1     -10.265  12.369  63.439  1.00  0.00    -0.393 OA 
BRANCH   4   9
HETATM    9  C   UNL     1     -10.967  13.919  67.309  1.00  0.00    -0.299 C  
BRANCH   9  10
HETATM   10  C   UNL     1     -11.565  14.386  68.599  1.00  0.00    -0.314 A  
HETATM   11  C   UNL     1     -11.894  15.661  69.025  1.00  0.00    -0.364 A  
HETATM   12  N   UNL     1     -12.399  15.646  70.297  1.00  0.00    -0.400 NA 
HETATM   13  C   UNL     1     -12.410  14.381  70.648  1.00  0.00    -0.351 A  
HETATM   14  N   UNL     1     -11.931  13.581  69.652  1.00  0.00    -0.329 NA 
HETATM   15  C   UNL     1     -11.841  12.140  69.728  1.00  0.00    -0.327 C  
ENDBRANCH   9  10
ENDBRANCH   4   9
ENDBRANCH   2   3
TORSDOF 3
ENDMDL
MODEL       21
REMARK 921   NORMALIZED FREE ENERGY PREDICTED BY IDOCK:   -4.59 KCAL/MOL
REMARK 922        TOTAL FREE ENERGY PREDICTED BY IDOCK:   -5.72 KCAL/MOL
REMARK 923 INTER-LIGAND FREE ENERGY PREDICTED BY IDOCK:   -5.69 KCAL/MOL
REMARK 924 INTRA-LIGAND FREE ENERGY PREDICTED BY IDOCK:   -0.03 KCAL/MOL
REMARK 927      BINDING AFFINITY PREDICTED BY RF-SCORE:    0.00 PKD
ROOT
HETATM    1  C   UNL     1      -9.937  19.672  68.944  1.00  0.00    -0.524 C  
HETATM    2  C   UNL     1     -10.389  18.256  68.609  1.00  0.00    -0.301 C  
ENDROOT
BRANCH   2   3
HETATM    3  C   UNL     1      -9.790  17.705  67.312  1.00  0.00    -0.303 C  
HETATM    4  C   UNL     1      -9.910  16.184  67.123  1.00  0.00    -0.241 C  
HETATM    5  C   UNL     1     -10.444  18.222  66.049  1.00  0.00    -0.361 C  
HETATM    6  C   UNL     1      -9.823  16.076  65.609  1.00  0.00    -0.274 C  
HETATM    7  O   UNL     1     -10.491  17.233  65.109  1.00  0.00    -0.656 OA 
HETATM    8  O   UNL     1     -10.840  19.357  65.848  1.00  0.00    -0.420 OA 
BRANCH   4   9
HETATM    9  C   UNL     1     -11.214  15.558  67.665  1.00  0.00    -0.291 C  
BRANCH   9  10
HETATM   10  C   UNL     1     -11.600  14.315  66.926  1.00  0.00    -0.387 A  
HETATM   11  C   UNL     1     -12.416  14.146  65.822  1.00  0.00    -0.466 A  
HETATM   12  N   UNL     1     -12.522  12.825  65.479  1.00  0.00    -0.623 NA 
HETATM   13  C   UNL     1     -11.763  12.185  66.337  1.00  0.00    -0.324 A  
HETATM   14  N   UNL     1     -11.174  13.041  67.220  1.00  0.00    -0.277 NA 
HETATM   15  C   UNL     1     -10.262  12.641  68.268  1.00  0.00    -0.239 C  
ENDBRANCH   9  10
ENDBRANCH   4   9
ENDBRANCH   2   3
TORSDOF 3
ENDMDL
MODEL       22
REMARK 921   NORMALIZED FREE ENERGY PREDICTED BY IDOCK:   -4.59 KCAL/MOL
REMARK 922        TOTAL FREE ENERGY PREDICTED BY IDOCK:   -5.72 KCAL/MOL
REMARK 923 INTER-LIGAND FREE ENERGY PREDICTED BY IDOCK:   -5.40 KCAL/MOL
REMARK 924 INTRA-LIGAND FREE ENERGY PREDICTED BY IDOCK:   -0.32 KCAL/MOL
REMARK 927      BINDING AFFINITY PREDICTED BY RF-SCORE:    0.00 PKD
ROOT
HETATM    1  C   UNL     1     -12.890  10.797  71.368  1.00  0.00    -0.557 C  
HETATM    2  C   UNL     1     -12.152  11.615  70.316  1.00  0.00    -0.443 C  
ENDROOT
BRANCH   2   3
HETATM    3  C   UNL     1     -11.698  10.799  69.102  1.00  0.00    -0.368 C  
HETATM    4  C   UNL     1     -11.770  11.529  67.751  1.00  0.00    -0.299 C  
HETATM    5  C   UNL     1     -10.247  10.371  69.141  1.00  0.00    -0.222 C  
HETATM    6  C   UNL     1     -10.738  10.751  66.950  1.00  0.00    -0.252 C  
HETATM    7  O   UNL     1      -9.715  10.409  67.885  1.00  0.00    -0.148 OA 
HETATM    8  O   UNL     1      -9.625   9.997  70.121  1.00  0.00    -0.225 OA 
BRANCH   4   9
HETATM    9  C   UNL     1     -11.433  13.036  67.802  1.00  0.00    -0.359 C  
BRANCH   9  10
HETATM   10  C   UNL     1     -11.710  13.726  66.504  1.00  0.00    -0.385 A  
HETATM   11  C   UNL     1     -12.770  13.592  65.625  1.00  0.00    -0.454 A  
HETATM   12  N   UNL     1     -12.617  14.403  64.533  1.00  0.00    -0.673 NA 
HETATM   13  C   UNL     1     -11.494  15.051  64.740  1.00  0.00    -0.403 A  
HETATM   14  N   UNL     1     -10.918  14.688  65.922  1.00  0.00    -0.324 NA 
HETATM   15  C   UNL     1      -9.688  15.245  66.441  1.00  0.00    -0.285 C  
ENDBRANCH   9  10
ENDBRANCH   4   9
ENDBRANCH   2   3
TORSDOF 3
ENDMDL
MODEL       23
REMARK 921   NORMALIZED FREE ENERGY PREDICTED BY IDOCK:   -4.59 KCAL/MOL
REMARK 922        TOTAL FREE ENERGY PREDICTED BY IDOCK:   -5.71 KCAL/MOL
REMARK 923 INTER-LIGAND FREE ENERGY PREDICTED BY IDOCK:   -5.31 KCAL/MOL
REMARK 924 INTRA-LIGAND FREE ENERGY PREDICTED BY IDOCK:   -0.40 KCAL/MOL
REMARK 927      BINDING AFFINITY PREDICTED BY RF-SCORE:    0.00 PKD
ROOT
HETATM    1  C   UNL     1     -12.693  15.404  70.836  1.00  0.00    -0.520 C  
HETATM    2  C   UNL     1     -11.699  14.359  70.344  1.00  0.00    -0.346 C  
ENDROOT
BRANCH   2   3
HETATM    3  C   UNL     1     -12.240  13.471  69.220  1.00  0.00    -0.257 C  
HETATM    4  C   UNL     1     -11.859  13.903  67.795  1.00  0.00    -0.415 C  
HETATM    5  C   UNL     1     -11.737  12.044  69.251  1.00  0.00    -0.330 C  
HETATM    6  C   UNL     1     -11.982  12.582  67.052  1.00  0.00    -0.225 C  
HETATM    7  O   UNL     1     -11.550  11.587  67.978  1.00  0.00    -0.361 OA 
HETATM    8  O   UNL     1     -11.557  11.358  70.243  1.00  0.00    -0.307 OA 
BRANCH   4   9
HETATM    9  C   UNL     1     -10.444  14.507  67.651  1.00  0.00    -0.246 C  
BRANCH   9  10
HETATM   10  C   UNL     1     -10.452  15.804  66.904  1.00  0.00    -0.315 A  
HETATM   11  C   UNL     1     -10.715  16.071  65.573  1.00  0.00    -0.361 A  
HETATM   12  N   UNL     1     -10.587  17.406  65.297  1.00  0.00    -0.640 NA 
HETATM   13  C   UNL     1     -10.275  17.965  66.443  1.00  0.00    -0.372 A  
HETATM   14  N   UNL     1     -10.196  17.043  67.445  1.00  0.00    -0.306 NA 
HETATM   15  C   UNL     1      -9.897  17.353  68.825  1.00  0.00    -0.311 C  
ENDBRANCH   9  10
ENDBRANCH   4   9
ENDBRANCH   2   3
TORSDOF 3
ENDMDL
MODEL       24
REMARK 921   NORMALIZED FREE ENERGY PREDICTED BY IDOCK:   -4.59 KCAL/MOL
REMARK 922        TOTAL FREE ENERGY PREDICTED BY IDOCK:   -5.71 KCAL/MOL
REMARK 923 INTER-LIGAND FREE ENERGY PREDICTED BY IDOCK:   -5.42 KCAL/MOL
REMARK 924 INTRA-LIGAND FREE ENERGY PREDICTED BY IDOCK:   -0.29 KCAL/MOL
REMARK 927      BINDING AFFINITY PREDICTED BY RF-SCORE:    0.00 PKD
ROOT
HETATM    1  C   UNL     1      -9.858  19.414  68.811  1.00  0.00    -0.530 C  
HETATM    2  C   UNL     1     -10.416  18.203  68.074  1.00  0.00    -0.387 C  
ENDROOT
BRANCH   2   3
HETATM    3  C   UNL     1      -9.401  17.072  67.885  1.00  0.00    -0.240 C  
HETATM    4  C   UNL     1      -9.934  15.655  68.147  1.00  0.00    -0.217 C  
HETATM    5  C   UNL     1      -8.864  16.940  66.476  1.00  0.00    -0.271 C  
HETATM    6  C   UNL     1      -8.968  14.826  67.316  1.00  0.00    -0.198 C  
HETATM    7  O   UNL     1      -8.679  15.623  66.168  1.00  0.00    -0.317 OA 
HETATM    8  O   UNL     1      -8.584  17.852  65.716  1.00  0.00    -0.503 OA 
BRANCH   4   9
HETATM    9  C   UNL     1     -11.400  15.418  67.721  1.00  0.00    -0.308 C  
BRANCH   9  10
HETATM   10  C   UNL     1     -11.616  14.048  67.158  1.00  0.00    -0.372 A  
HETATM   11  C   UNL     1     -11.725  12.824  67.794  1.00  0.00    -0.359 A  
HETATM   12  N   UNL     1     -11.895  11.808  66.893  1.00  0.00    -0.585 NA 
HETATM   13  C   UNL     1     -11.918  12.392  65.717  1.00  0.00    -0.372 A  
HETATM   14  N   UNL     1     -11.769  13.744  65.826  1.00  0.00    -0.336 NA 
HETATM   15  C   UNL     1     -11.779  14.663  64.710  1.00  0.00    -0.428 C  
ENDBRANCH   9  10
ENDBRANCH   4   9
ENDBRANCH   2   3
TORSDOF 3
ENDMDL
MODEL       25
REMARK 921   NORMALIZED FREE ENERGY PREDICTED BY IDOCK:   -4.58 KCAL/MOL
REMARK 922        TOTAL FREE ENERGY PREDICTED BY IDOCK:   -5.71 KCAL/MOL
REMARK 923 INTER-LIGAND FREE ENERGY PREDICTED BY IDOCK:   -5.42 KCAL/MOL
REMARK 924 INTRA-LIGAND FREE ENERGY PREDICTED BY IDOCK:   -0.29 KCAL/MOL
REMARK 927      BINDING AFFINITY PREDICTED BY RF-SCORE:    0.00 PKD
ROOT
HETATM    1  C   UNL     1     -10.196  15.460  67.082  1.00  0.00    -0.251 C  
HETATM    2  C   UNL     1     -11.415  14.706  67.598  1.00  0.00    -0.364 C  
ENDROOT
BRANCH   2   3
HETATM    3  C   UNL     1     -11.089  13.331  68.188  1.00  0.00    -0.286 C  
HETATM    4  C   UNL     1     -11.439  13.150  69.674  1.00  0.00    -0.261 C  
HETATM    5  C   UNL     1     -11.841  12.182  67.554  1.00  0.00    -0.237 C  
HETATM    6  C   UNL     1     -11.587  11.639  69.751  1.00  0.00    -0.315 C  
HETATM    7  O   UNL     1     -12.157  11.251  68.501  1.00  0.00    -0.573 OA 
HETATM    8  O   UNL     1     -12.105  12.049  66.371  1.00  0.00    -0.610 OA 
BRANCH   4   9
HETATM    9  C   UNL     1     -12.725  13.872  70.135  1.00  0.00    -0.182 C  
BRANCH   9  10
HETATM   10  C   UNL     1     -12.537  14.597  71.430  1.00  0.00    -0.335 A  
HETATM   11  C   UNL     1     -12.952  14.272  72.709  1.00  0.00    -0.453 A  
HETATM   12  N   UNL     1     -12.589  15.235  73.611  1.00  0.00    -0.532 NA 
HETATM   13  C   UNL     1     -11.934  16.132  72.911  1.00  0.00    -0.520 A  
HETATM   14  N   UNL     1     -11.863  15.785  71.594  1.00  0.00    -0.418 NA 
HETATM   15  C   UNL     1     -11.186  16.558  70.577  1.00  0.00    -0.084 C  
ENDBRANCH   9  10
ENDBRANCH   4   9
ENDBRANCH   2   3
TORSDOF 3
ENDMDL
MODEL       26
REMARK 921   NORMALIZED FREE ENERGY PREDICTED BY IDOCK:   -4.58 KCAL/MOL
REMARK 922        TOTAL FREE ENERGY PREDICTED BY IDOCK:   -5.71 KCAL/MOL
REMARK 923 INTER-LIGAND FREE ENERGY PREDICTED BY IDOCK:   -5.39 KCAL/MOL
REMARK 924 INTRA-LIGAND FREE ENERGY PREDICTED BY IDOCK:   -0.32 KCAL/MOL
REMARK 927      BINDING AFFINITY PREDICTED BY RF-SCORE:    0.00 PKD
ROOT
HETATM    1  C   UNL     1      -6.269  18.157  65.618  1.00  0.00    -0.279 C  
HETATM    2  C   UNL     1      -7.401  17.558  66.444  1.00  0.00    -0.334 C  
ENDROOT
BRANCH   2   3
HETATM    3  C   UNL     1      -8.569  18.519  66.683  1.00  0.00    -0.295 C  
HETATM    4  C   UNL     1      -9.969  17.890  66.602  1.00  0.00    -0.355 C  
HETATM    5  C   UNL     1      -8.594  19.145  68.060  1.00  0.00    -0.310 C  
HETATM    6  C   UNL     1     -10.770  18.864  67.450  1.00  0.00    -0.444 C  
HETATM    7  O   UNL     1      -9.884  19.277  68.489  1.00  0.00    -0.370 OA 
HETATM    8  O   UNL     1      -7.632  19.528  68.703  1.00  0.00    -0.336 OA 
BRANCH   4   9
HETATM    9  C   UNL     1     -10.070  16.447  67.143  1.00  0.00    -0.271 C  
BRANCH   9  10
HETATM   10  C   UNL     1     -10.890  15.562  66.258  1.00  0.00    -0.283 A  
HETATM   11  C   UNL     1     -11.033  15.554  64.882  1.00  0.00    -0.436 A  
HETATM   12  N   UNL     1     -11.910  14.584  64.477  1.00  0.00    -0.447 NA 
HETATM   13  C   UNL     1     -12.287  13.980  65.579  1.00  0.00    -0.483 A  
HETATM   14  N   UNL     1     -11.688  14.523  66.678  1.00  0.00    -0.380 NA 
HETATM   15  C   UNL     1     -11.882  14.058  68.033  1.00  0.00    -0.368 C  
ENDBRANCH   9  10
ENDBRANCH   4   9
ENDBRANCH   2   3
TORSDOF 3
ENDMDL
MODEL       27
REMARK 921   NORMALIZED FREE ENERGY PREDICTED BY IDOCK:   -4.58 KCAL/MOL
REMARK 922        TOTAL FREE ENERGY PREDICTED BY IDOCK:   -5.70 KCAL/MOL
REMARK 923 INTER-LIGAND FREE ENERGY PREDICTED BY IDOCK:   -5.34 KCAL/MOL
REMARK 924 INTRA-LIGAND FREE ENERGY PREDICTED BY IDOCK:   -0.37 KCAL/MOL
REMARK 927      BINDING AFFINITY PREDICTED BY RF-SCORE:    0.00 PKD
ROOT
HETATM    1  C   UNL     1      -9.936  10.139  65.516  1.00  0.00    -0.363 C  
HETATM    2  C   UNL     1     -10.227  11.540  64.992  1.00  0.00    -0.328 C  
ENDROOT
BRANCH   2   3
HETATM    3  C   UNL     1     -11.418  12.220  65.672  1.00  0.00    -0.416 C  
HETATM    4  C   UNL     1     -11.076  13.448  66.532  1.00  0.00    -0.312 C  
HETATM    5  C   UNL     1     -12.443  12.793  64.717  1.00  0.00    -0.472 C  
HETATM    6  C   UNL     1     -12.403  14.188  66.516  1.00  0.00    -0.372 C  
HETATM    7  O   UNL     1     -12.948  13.958  65.218  1.00  0.00    -0.747 OA 
HETATM    8  O   UNL     1     -12.820  12.295  63.670  1.00  0.00    -0.753 OA 
BRANCH   4   9
HETATM    9  C   UNL     1      -9.927  14.326  65.989  1.00  0.00    -0.337 C  
BRANCH   9  10
HETATM   10  C   UNL     1      -9.078  14.894  67.083  1.00  0.00    -0.222 A  
HETATM   11  C   UNL     1      -7.992  14.354  67.748  1.00  0.00    -0.158 A  
HETATM   12  N   UNL     1      -7.519  15.208  68.707  1.00  0.00    -0.123 NA 
HETATM   13  C   UNL     1      -8.281  16.274  68.623  1.00  0.00    -0.214 A  
HETATM   14  N   UNL     1      -9.226  16.139  67.649  1.00  0.00    -0.204 NA 
HETATM   15  C   UNL     1     -10.196  17.153  67.300  1.00  0.00    -0.316 C  
ENDBRANCH   9  10
ENDBRANCH   4   9
ENDBRANCH   2   3
TORSDOF 3
ENDMDL
MODEL       28
REMARK 921   NORMALIZED FREE ENERGY PREDICTED BY IDOCK:   -4.57 KCAL/MOL
REMARK 922        TOTAL FREE ENERGY PREDICTED BY IDOCK:   -5.70 KCAL/MOL
REMARK 923 INTER-LIGAND FREE ENERGY PREDICTED BY IDOCK:   -5.39 KCAL/MOL
REMARK 924 INTRA-LIGAND FREE ENERGY PREDICTED BY IDOCK:   -0.30 KCAL/MOL
REMARK 927      BINDING AFFINITY PREDICTED BY RF-SCORE:    0.00 PKD
ROOT
HETATM    1  C   UNL     1     -11.429  15.824  68.749  1.00  0.00    -0.391 C  
HETATM    2  C   UNL     1     -12.046  14.456  68.483  1.00  0.00    -0.278 C  
ENDROOT
BRANCH   2   3
HETATM    3  C   UNL     1     -11.369  13.681  67.349  1.00  0.00    -0.340 C  
HETATM    4  C   UNL     1     -10.918  12.254  67.702  1.00  0.00    -0.287 C  
HETATM    5  C   UNL     1     -12.251  13.434  66.145  1.00  0.00    -0.415 C  
HETATM    6  C   UNL     1     -10.896  11.612  66.324  1.00  0.00    -0.286 C  
HETATM    7  O   UNL     1     -11.983  12.205  65.614  1.00  0.00    -0.503 OA 
HETATM    8  O   UNL     1     -13.059  14.209  65.663  1.00  0.00    -0.617 OA 
BRANCH   4   9
HETATM    9  C   UNL     1     -11.851  11.493  68.670  1.00  0.00    -0.382 C  
BRANCH   9  10
HETATM   10  C   UNL     1     -11.096  10.621  69.623  1.00  0.00    -0.284 A  
HETATM   11  C   UNL     1      -9.828  10.076  69.527  1.00  0.00    -0.229 A  
HETATM   12  N   UNL     1      -9.530   9.311  70.622  1.00  0.00    -0.256 NA 
HETATM   13  C   UNL     1     -10.584   9.400  71.399  1.00  0.00    -0.311 A  
HETATM   14  N   UNL     1     -11.549  10.190  70.848  1.00  0.00    -0.351 NA 
HETATM   15  C   UNL     1     -12.814  10.500  71.475  1.00  0.00    -0.463 C  
ENDBRANCH   9  10
ENDBRANCH   4   9
ENDBRANCH   2   3
TORSDOF 3
ENDMDL
MODEL       29
REMARK 921   NORMALIZED FREE ENERGY PREDICTED BY IDOCK:   -4.53 KCAL/MOL
REMARK 922        TOTAL FREE ENERGY PREDICTED BY IDOCK:   -5.65 KCAL/MOL
REMARK 923 INTER-LIGAND FREE ENERGY PREDICTED BY IDOCK:   -5.30 KCAL/MOL
REMARK 924 INTRA-LIGAND FREE ENERGY PREDICTED BY IDOCK:   -0.34 KCAL/MOL
REMARK 927      BINDING AFFINITY PREDICTED BY RF-SCORE:    0.00 PKD
ROOT
HETATM    1  C   UNL     1     -12.312  11.420  70.742  1.00  0.00    -0.483 C  
HETATM    2  C   UNL     1     -12.504  12.847  70.243  1.00  0.00    -0.198 C  
ENDROOT
BRANCH   2   3
HETATM    3  C   UNL     1     -12.064  13.918  71.244  1.00  0.00    -0.254 C  
HETATM    4  C   UNL     1     -11.506  15.211  70.626  1.00  0.00    -0.345 C  
HETATM    5  C   UNL     1     -13.175  14.453  72.120  1.00  0.00    -0.384 C  
HETATM    6  C   UNL     1     -11.761  16.200  71.752  1.00  0.00    -0.488 C  
HETATM    7  O   UNL     1     -12.992  15.787  72.345  1.00  0.00    -0.425 OA 
HETATM    8  O   UNL     1     -14.090  13.812  72.608  1.00  0.00    -0.715 OA 
BRANCH   4   9
HETATM    9  C   UNL     1     -12.187  15.655  69.313  1.00  0.00    -0.167 C  
BRANCH   9  10
HETATM   10  C   UNL     1     -11.263  15.579  68.138  1.00  0.00    -0.343 A  
HETATM   11  C   UNL     1     -10.917  14.505  67.337  1.00  0.00    -0.303 A  
HETATM   12  N   UNL     1     -10.012  14.870  66.378  1.00  0.00    -0.262 NA 
HETATM   13  C   UNL     1      -9.817  16.155  66.561  1.00  0.00    -0.267 A  
HETATM   14  N   UNL     1     -10.560  16.632  67.600  1.00  0.00    -0.324 NA 
HETATM   15  C   UNL     1     -10.581  18.012  68.030  1.00  0.00    -0.347 C  
ENDBRANCH   9  10
ENDBRANCH   4   9
ENDBRANCH   2   3
TORSDOF 3
ENDMDL
MODEL       30
REMARK 921   NORMALIZED FREE ENERGY PREDICTED BY IDOCK:   -4.51 KCAL/MOL
REMARK 922        TOTAL FREE ENERGY PREDICTED BY IDOCK:   -5.62 KCAL/MOL
REMARK 923 INTER-LIGAND FREE ENERGY PREDICTED BY IDOCK:   -5.22 KCAL/MOL
REMARK 924 INTRA-LIGAND FREE ENERGY PREDICTED BY IDOCK:   -0.41 KCAL/MOL
REMARK 927      BINDING AFFINITY PREDICTED BY RF-SCORE:    0.00 PKD
ROOT
HETATM    1  C   UNL     1      -8.463  15.495  66.698  1.00  0.00    -0.314 C  
HETATM    2  C   UNL     1      -9.784  15.060  66.076  1.00  0.00    -0.359 C  
ENDROOT
BRANCH   2   3
HETATM    3  C   UNL     1     -10.141  13.595  66.344  1.00  0.00    -0.295 C  
HETATM    4  C   UNL     1     -10.895  13.329  67.657  1.00  0.00    -0.273 C  
HETATM    5  C   UNL     1     -11.076  12.981  65.325  1.00  0.00    -0.286 C  
HETATM    6  C   UNL     1     -11.598  12.023  67.323  1.00  0.00    -0.313 C  
HETATM    7  O   UNL     1     -11.937  12.119  65.941  1.00  0.00    -0.561 OA 
HETATM    8  O   UNL     1     -11.064  13.169  64.120  1.00  0.00    -0.375 OA 
BRANCH   4   9
HETATM    9  C   UNL     1     -11.900  14.427  68.069  1.00  0.00    -0.361 C  
BRANCH   9  10
HETATM   10  C   UNL     1     -11.853  14.722  69.535  1.00  0.00    -0.326 A  
HETATM   11  C   UNL     1     -12.334  13.998  70.611  1.00  0.00    -0.375 A  
HETATM   12  N   UNL     1     -12.100  14.647  71.794  1.00  0.00    -0.341 NA 
HETATM   13  C   UNL     1     -11.460  15.744  71.462  1.00  0.00    -0.429 A  
HETATM   14  N   UNL     1     -11.273  15.827  70.113  1.00  0.00    -0.317 NA 
HETATM   15  C   UNL     1     -10.579  16.905  69.445  1.00  0.00    -0.292 C  
ENDBRANCH   9  10
ENDBRANCH   4   9
ENDBRANCH   2   3
TORSDOF 3
ENDMDL
MODEL       31
REMARK 921   NORMALIZED FREE ENERGY PREDICTED BY IDOCK:   -4.51 KCAL/MOL
REMARK 922        TOTAL FREE ENERGY PREDICTED BY IDOCK:   -5.62 KCAL/MOL
REMARK 923 INTER-LIGAND FREE ENERGY PREDICTED BY IDOCK:   -5.24 KCAL/MOL
REMARK 924 INTRA-LIGAND FREE ENERGY PREDICTED BY IDOCK:   -0.39 KCAL/MOL
REMARK 927      BINDING AFFINITY PREDICTED BY RF-SCORE:    0.00 PKD
ROOT
HETATM    1  C   UNL     1     -12.068  13.499  70.105  1.00  0.00    -0.425 C  
HETATM    2  C   UNL     1     -11.200  13.071  68.929  1.00  0.00    -0.326 C  
ENDROOT
BRANCH   2   3
HETATM    3  C   UNL     1     -11.948  13.019  67.593  1.00  0.00    -0.353 C  
HETATM    4  C   UNL     1     -11.725  14.223  66.664  1.00  0.00    -0.417 C  
HETATM    5  C   UNL     1     -11.553  11.865  66.698  1.00  0.00    -0.264 C  
HETATM    6  C   UNL     1     -12.043  13.605  65.312  1.00  0.00    -0.406 C  
HETATM    7  O   UNL     1     -11.569  12.261  65.391  1.00  0.00    -0.348 OA 
HETATM    8  O   UNL     1     -11.297  10.726  67.049  1.00  0.00    -0.341 OA 
BRANCH   4   9
HETATM    9  C   UNL     1     -10.301  14.820  66.697  1.00  0.00    -0.273 C  
BRANCH   9  10
HETATM   10  C   UNL     1     -10.309  16.316  66.677  1.00  0.00    -0.302 A  
HETATM   11  C   UNL     1     -10.214  17.200  65.617  1.00  0.00    -0.144 A  
HETATM   12  N   UNL     1     -10.237  18.499  66.047  1.00  0.00    -0.553 NA 
HETATM   13  C   UNL     1     -10.371  18.427  67.350  1.00  0.00    -0.391 A  
HETATM   14  N   UNL     1     -10.434  17.133  67.777  1.00  0.00    -0.350 NA 
HETATM   15  C   UNL     1     -10.606  16.729  69.155  1.00  0.00    -0.343 C  
ENDBRANCH   9  10
ENDBRANCH   4   9
ENDBRANCH   2   3
TORSDOF 3
ENDMDL
MODEL       32
REMARK 921   NORMALIZED FREE ENERGY PREDICTED BY IDOCK:   -4.51 KCAL/MOL
REMARK 922        TOTAL FREE ENERGY PREDICTED BY IDOCK:   -5.62 KCAL/MOL
REMARK 923 INTER-LIGAND FREE ENERGY PREDICTED BY IDOCK:   -5.37 KCAL/MOL
REMARK 924 INTRA-LIGAND FREE ENERGY PREDICTED BY IDOCK:   -0.25 KCAL/MOL
REMARK 927      BINDING AFFINITY PREDICTED BY RF-SCORE:    0.00 PKD
ROOT
HETATM    1  C   UNL     1     -10.567  19.926  66.192  1.00  0.00    -0.526 C  
HETATM    2  C   UNL     1     -10.348  18.419  66.239  1.00  0.00    -0.440 C  
ENDROOT
BRANCH   2   3
HETATM    3  C   UNL     1     -10.369  17.834  67.654  1.00  0.00    -0.375 C  
HETATM    4  C   UNL     1     -10.688  16.333  67.743  1.00  0.00    -0.325 C  
HETATM    5  C   UNL     1      -9.045  17.909  68.384  1.00  0.00    -0.289 C  
HETATM    6  C   UNL     1     -10.042  15.981  69.074  1.00  0.00    -0.239 C  
HETATM    7  O   UNL     1      -8.872  16.793  69.151  1.00  0.00    -0.220 OA 
HETATM    8  O   UNL     1      -8.248  18.830  68.351  1.00  0.00    -0.318 OA 
BRANCH   4   9
HETATM    9  C   UNL     1     -10.122  15.474  66.591  1.00  0.00    -0.275 C  
BRANCH   9  10
HETATM   10  C   UNL     1     -10.926  14.234  66.355  1.00  0.00    -0.311 A  
HETATM   11  C   UNL     1     -11.007  13.065  67.090  1.00  0.00    -0.269 A  
HETATM   12  N   UNL     1     -11.853  12.164  66.501  1.00  0.00    -0.615 NA 
HETATM   13  C   UNL     1     -12.312  12.772  65.432  1.00  0.00    -0.470 A  
HETATM   14  N   UNL     1     -11.795  14.028  65.309  1.00  0.00    -0.343 NA 
HETATM   15  C   UNL     1     -12.128  14.953  64.249  1.00  0.00    -0.353 C  
ENDBRANCH   9  10
ENDBRANCH   4   9
ENDBRANCH   2   3
TORSDOF 3
ENDMDL
MODEL       33
REMARK 921   NORMALIZED FREE ENERGY PREDICTED BY IDOCK:   -4.50 KCAL/MOL
REMARK 922        TOTAL FREE ENERGY PREDICTED BY IDOCK:   -5.61 KCAL/MOL
REMARK 923 INTER-LIGAND FREE ENERGY PREDICTED BY IDOCK:   -5.40 KCAL/MOL
REMARK 924 INTRA-LIGAND FREE ENERGY PREDICTED BY IDOCK:   -0.21 KCAL/MOL
REMARK 927      BINDING AFFINITY PREDICTED BY RF-SCORE:    0.00 PKD
ROOT
HETATM    1  C   UNL     1     -12.866  12.005  63.554  1.00  0.00    -0.472 C  
HETATM    2  C   UNL     1     -12.038  13.284  63.577  1.00  0.00    -0.550 C  
ENDROOT
BRANCH   2   3
HETATM    3  C   UNL     1     -12.210  14.109  64.856  1.00  0.00    -0.451 C  
HETATM    4  C   UNL     1     -11.524  13.538  66.108  1.00  0.00    -0.348 C  
HETATM    5  C   UNL     1     -11.617  15.499  64.790  1.00  0.00    -0.256 C  
HETATM    6  C   UNL     1     -11.353  14.798  66.941  1.00  0.00    -0.355 C  
HETATM    7  O   UNL     1     -11.085  15.838  66.001  1.00  0.00    -0.229 OA 
HETATM    8  O   UNL     1     -11.634  16.253  63.832  1.00  0.00    -0.987 OA 
BRANCH   4   9
HETATM    9  C   UNL     1     -10.172  12.837  65.850  1.00  0.00    -0.300 C  
BRANCH   9  10
HETATM   10  C   UNL     1     -10.209  11.381  66.193  1.00  0.00    -0.239 A  
HETATM   11  C   UNL     1     -10.016  10.267  65.396  1.00  0.00    -0.302 A  
HETATM   12  N   UNL     1     -10.166   9.110  66.111  1.00  0.00    -0.222 NA 
HETATM   13  C   UNL     1     -10.421   9.497  67.340  1.00  0.00    -0.272 A  
HETATM   14  N   UNL     1     -10.443  10.857  67.443  1.00  0.00    -0.210 NA 
HETATM   15  C   UNL     1     -10.673  11.584  68.671  1.00  0.00    -0.207 C  
ENDBRANCH   9  10
ENDBRANCH   4   9
ENDBRANCH   2   3
TORSDOF 3
ENDMDL
MODEL       34
REMARK 921   NORMALIZED FREE ENERGY PREDICTED BY IDOCK:   -4.50 KCAL/MOL
REMARK 922        TOTAL FREE ENERGY PREDICTED BY IDOCK:   -5.61 KCAL/MOL
REMARK 923 INTER-LIGAND FREE ENERGY PREDICTED BY IDOCK:   -5.26 KCAL/MOL
REMARK 924 INTRA-LIGAND FREE ENERGY PREDICTED BY IDOCK:   -0.35 KCAL/MOL
REMARK 927      BINDING AFFINITY PREDICTED BY RF-SCORE:    0.00 PKD
ROOT
HETATM    1  C   UNL     1     -10.152  20.055  67.042  1.00  0.00    -0.594 C  
HETATM    2  C   UNL     1     -10.633  18.660  67.420  1.00  0.00    -0.490 C  
ENDROOT
BRANCH   2   3
HETATM    3  C   UNL     1      -9.531  17.754  67.977  1.00  0.00    -0.281 C  
HETATM    4  C   UNL     1     -10.001  16.670  68.960  1.00  0.00    -0.280 C  
HETATM    5  C   UNL     1      -8.811  16.929  66.933  1.00  0.00    -0.225 C  
HETATM    6  C   UNL     1      -8.885  15.648  68.815  1.00  0.00    -0.208 C  
HETATM    7  O   UNL     1      -8.503  15.699  67.441  1.00  0.00    -0.155 OA 
HETATM    8  O   UNL     1      -8.496  17.288  65.812  1.00  0.00    -0.532 OA 
BRANCH   4   9
HETATM    9  C   UNL     1     -11.382  16.054  68.644  1.00  0.00    -0.383 C  
BRANCH   9  10
HETATM   10  C   UNL     1     -11.879  15.172  69.747  1.00  0.00    -0.333 A  
HETATM   11  C   UNL     1     -12.298  15.486  71.027  1.00  0.00    -0.416 A  
HETATM   12  N   UNL     1     -12.651  14.364  71.725  1.00  0.00    -0.344 NA 
HETATM   13  C   UNL     1     -12.481  13.369  70.886  1.00  0.00    -0.359 A  
HETATM   14  N   UNL     1     -12.030  13.807  69.675  1.00  0.00    -0.324 NA 
HETATM   15  C   UNL     1     -11.772  12.953  68.537  1.00  0.00    -0.339 C  
ENDBRANCH   9  10
ENDBRANCH   4   9
ENDBRANCH   2   3
TORSDOF 3
ENDMDL
MODEL       35
REMARK 921   NORMALIZED FREE ENERGY PREDICTED BY IDOCK:   -4.48 KCAL/MOL
REMARK 922        TOTAL FREE ENERGY PREDICTED BY IDOCK:   -5.59 KCAL/MOL
REMARK 923 INTER-LIGAND FREE ENERGY PREDICTED BY IDOCK:   -5.28 KCAL/MOL
REMARK 924 INTRA-LIGAND FREE ENERGY PREDICTED BY IDOCK:   -0.31 KCAL/MOL
REMARK 927      BINDING AFFINITY PREDICTED BY RF-SCORE:    0.00 PKD
ROOT
HETATM    1  C   UNL     1     -14.329   7.126  71.671  1.00  0.00    -0.528 C  
HETATM    2  C   UNL     1     -13.409   8.319  71.898  1.00  0.00    -0.364 C  
ENDROOT
BRANCH   2   3
HETATM    3  C   UNL     1     -11.962   8.078  71.457  1.00  0.00    -0.331 C  
HETATM    4  C   UNL     1     -11.371   9.145  70.521  1.00  0.00    -0.300 C  
HETATM    5  C   UNL     1     -10.955   8.070  72.586  1.00  0.00    -0.382 C  
HETATM    6  C   UNL     1      -9.885   8.967  70.787  1.00  0.00    -0.243 C  
HETATM    7  O   UNL     1      -9.786   8.642  72.173  1.00  0.00    -0.292 OA 
HETATM    8  O   UNL     1     -11.111   7.593  73.697  1.00  0.00    -0.256 OA 
BRANCH   4   9
HETATM    9  C   UNL     1     -11.831  10.592  70.804  1.00  0.00    -0.465 C  
BRANCH   9  10
HETATM   10  C   UNL     1     -11.805  11.449  69.578  1.00  0.00    -0.357 A  
HETATM   11  C   UNL     1     -11.703  11.102  68.243  1.00  0.00    -0.252 A  
HETATM   12  N   UNL     1     -11.690  12.209  67.439  1.00  0.00    -0.509 NA 
HETATM   13  C   UNL     1     -11.810  13.229  68.257  1.00  0.00    -0.354 A  
HETATM   14  N   UNL     1     -11.898  12.821  69.556  1.00  0.00    -0.320 NA 
HETATM   15  C   UNL     1     -12.062  13.708  70.686  1.00  0.00    -0.323 C  
ENDBRANCH   9  10
ENDBRANCH   4   9
ENDBRANCH   2   3
TORSDOF 3
ENDMDL
MODEL       36
REMARK 921   NORMALIZED FREE ENERGY PREDICTED BY IDOCK:   -4.46 KCAL/MOL
REMARK 922        TOTAL FREE ENERGY PREDICTED BY IDOCK:   -5.56 KCAL/MOL
REMARK 923 INTER-LIGAND FREE ENERGY PREDICTED BY IDOCK:   -5.25 KCAL/MOL
REMARK 924 INTRA-LIGAND FREE ENERGY PREDICTED BY IDOCK:   -0.31 KCAL/MOL
REMARK 927      BINDING AFFINITY PREDICTED BY RF-SCORE:    0.00 PKD
ROOT
HETATM    1  C   UNL     1     -10.681   9.696  67.603  1.00  0.00    -0.324 C  
HETATM    2  C   UNL     1     -10.806  11.047  68.297  1.00  0.00    -0.261 C  
ENDROOT
BRANCH   2   3
HETATM    3  C   UNL     1     -11.381  12.150  67.405  1.00  0.00    -0.393 C  
HETATM    4  C   UNL     1     -12.010  13.340  68.149  1.00  0.00    -0.340 C  
HETATM    5  C   UNL     1     -10.361  12.843  66.528  1.00  0.00    -0.264 C  
HETATM    6  C   UNL     1     -11.892  14.430  67.096  1.00  0.00    -0.410 C  
HETATM    7  O   UNL     1     -10.663  14.170  66.419  1.00  0.00    -0.284 OA 
HETATM    8  O   UNL     1      -9.423  12.320  65.951  1.00  0.00    -0.229 OA 
BRANCH   4   9
HETATM    9  C   UNL     1     -11.303  13.738  69.463  1.00  0.00    -0.283 C  
BRANCH   9  10
HETATM   10  C   UNL     1     -12.271  14.115  70.540  1.00  0.00    -0.361 A  
HETATM   11  C   UNL     1     -12.789  15.349  70.889  1.00  0.00    -0.476 A  
HETATM   12  N   UNL     1     -13.633  15.251  71.962  1.00  0.00    -0.425 NA 
HETATM   13  C   UNL     1     -13.661  13.973  72.260  1.00  0.00    -0.548 A  
HETATM   14  N   UNL     1     -12.868  13.245  71.422  1.00  0.00    -0.356 NA 
HETATM   15  C   UNL     1     -12.712  11.809  71.481  1.00  0.00    -0.295 C  
ENDBRANCH   9  10
ENDBRANCH   4   9
ENDBRANCH   2   3
TORSDOF 3
ENDMDL
MODEL       37
REMARK 921   NORMALIZED FREE ENERGY PREDICTED BY IDOCK:   -4.44 KCAL/MOL
REMARK 922        TOTAL FREE ENERGY PREDICTED BY IDOCK:   -5.54 KCAL/MOL
REMARK 923 INTER-LIGAND FREE ENERGY PREDICTED BY IDOCK:   -5.15 KCAL/MOL
REMARK 924 INTRA-LIGAND FREE ENERGY PREDICTED BY IDOCK:   -0.39 KCAL/MOL
REMARK 927      BINDING AFFINITY PREDICTED BY RF-SCORE:    0.00 PKD
ROOT
HETATM    1  C   UNL     1     -12.404  11.389  70.618  1.00  0.00    -0.466 C  
HETATM    2  C   UNL     1     -11.429  11.532  69.456  1.00  0.00    -0.378 C  
ENDROOT
BRANCH   2   3
HETATM    3  C   UNL     1     -11.052  10.203  68.797  1.00  0.00    -0.250 C  
HETATM    4  C   UNL     1     -10.909  10.242  67.266  1.00  0.00    -0.312 C  
HETATM    5  C   UNL     1      -9.706   9.654  69.215  1.00  0.00    -0.185 C  
HETATM    6  C   UNL     1      -9.983   9.058  67.035  1.00  0.00    -0.230 C  
HETATM    7  O   UNL     1      -9.098   9.047  68.154  1.00  0.00    -0.133 OA 
HETATM    8  O   UNL     1      -9.222   9.689  70.334  1.00  0.00    -0.250 OA 
BRANCH   4   9
HETATM    9  C   UNL     1     -10.314  11.549  66.698  1.00  0.00    -0.262 C  
BRANCH   9  10
HETATM   10  C   UNL     1     -11.220  12.200  65.700  1.00  0.00    -0.335 A  
HETATM   11  C   UNL     1     -12.280  13.069  65.884  1.00  0.00    -0.432 A  
HETATM   12  N   UNL     1     -12.859  13.408  64.691  1.00  0.00    -0.685 NA 
HETATM   13  C   UNL     1     -12.155  12.784  63.777  1.00  0.00    -0.517 A  
HETATM   14  N   UNL     1     -11.146  12.054  64.334  1.00  0.00    -0.324 NA 
HETATM   15  C   UNL     1     -10.183  11.277  63.585  1.00  0.00    -0.392 C  
ENDBRANCH   9  10
ENDBRANCH   4   9
ENDBRANCH   2   3
TORSDOF 3
ENDMDL
MODEL       38
REMARK 921   NORMALIZED FREE ENERGY PREDICTED BY IDOCK:   -4.41 KCAL/MOL
REMARK 922        TOTAL FREE ENERGY PREDICTED BY IDOCK:   -5.51 KCAL/MOL
REMARK 923 INTER-LIGAND FREE ENERGY PREDICTED BY IDOCK:   -5.30 KCAL/MOL
REMARK 924 INTRA-LIGAND FREE ENERGY PREDICTED BY IDOCK:   -0.21 KCAL/MOL
REMARK 927      BINDING AFFINITY PREDICTED BY RF-SCORE:    0.00 PKD
ROOT
HETATM    1  C   UNL     1     -11.318  15.346  71.465  1.00  0.00    -0.461 C  
HETATM    2  C   UNL     1     -11.734  15.232  70.003  1.00  0.00    -0.344 C  
ENDROOT
BRANCH   2   3
HETATM    3  C   UNL     1     -10.571  15.363  69.016  1.00  0.00    -0.247 C  
HETATM    4  C   UNL     1     -10.658  14.466  67.771  1.00  0.00    -0.246 C  
HETATM    5  C   UNL     1     -10.427  16.735  68.395  1.00  0.00    -0.339 C  
HETATM    6  C   UNL     1      -9.789  15.244  66.796  1.00  0.00    -0.236 C  
HETATM    7  O   UNL     1     -10.025  16.619  67.095  1.00  0.00    -0.255 OA 
HETATM    8  O   UNL     1     -10.591  17.807  68.952  1.00  0.00    -0.278 OA 
BRANCH   4   9
HETATM    9  C   UNL     1     -12.084  14.252  67.216  1.00  0.00    -0.390 C  
BRANCH   9  10
HETATM   10  C   UNL     1     -12.085  13.915  65.758  1.00  0.00    -0.425 A  
HETATM   11  C   UNL     1     -12.469  14.669  64.664  1.00  0.00    -0.286 A  
HETATM   12  N   UNL     1     -12.331  13.964  63.499  1.00  0.00    -0.765 NA 
HETATM   13  C   UNL     1     -11.844  12.799  63.859  1.00  0.00    -0.468 A  
HETATM   14  N   UNL     1     -11.664  12.726  65.209  1.00  0.00    -0.348 NA 
HETATM   15  C   UNL     1     -11.119  11.582  65.905  1.00  0.00    -0.214 C  
ENDBRANCH   9  10
ENDBRANCH   4   9
ENDBRANCH   2   3
TORSDOF 3
ENDMDL
MODEL       39
REMARK 921   NORMALIZED FREE ENERGY PREDICTED BY IDOCK:   -4.39 KCAL/MOL
REMARK 922        TOTAL FREE ENERGY PREDICTED BY IDOCK:   -5.48 KCAL/MOL
REMARK 923 INTER-LIGAND FREE ENERGY PREDICTED BY IDOCK:   -5.08 KCAL/MOL
REMARK 924 INTRA-LIGAND FREE ENERGY PREDICTED BY IDOCK:   -0.40 KCAL/MOL
REMARK 927      BINDING AFFINITY PREDICTED BY RF-SCORE:    0.00 PKD
ROOT
HETATM    1  C   UNL     1     -11.980  13.423  68.881  1.00  0.00    -0.362 C  
HETATM    2  C   UNL     1     -11.662  13.088  67.429  1.00  0.00    -0.427 C  
ENDROOT
BRANCH   2   3
HETATM    3  C   UNL     1     -12.154  14.138  66.429  1.00  0.00    -0.475 C  
HETATM    4  C   UNL     1     -11.108  15.177  65.995  1.00  0.00    -0.312 C  
HETATM    5  C   UNL     1     -12.598  13.576  65.097  1.00  0.00    -0.436 C  
HETATM    6  C   UNL     1     -11.674  15.609  64.651  1.00  0.00    -0.190 C  
HETATM    7  O   UNL     1     -12.254  14.432  64.090  1.00  0.00    -0.540 OA 
HETATM    8  O   UNL     1     -13.214  12.540  64.913  1.00  0.00    -0.787 OA 
BRANCH   4   9
HETATM    9  C   UNL     1      -9.667  14.638  65.858  1.00  0.00    -0.341 C  
BRANCH   9  10
HETATM   10  C   UNL     1      -8.667  15.496  66.569  1.00  0.00    -0.305 A  
HETATM   11  C   UNL     1      -8.242  16.785  66.302  1.00  0.00    -0.324 A  
HETATM   12  N   UNL     1      -7.286  17.188  67.194  1.00  0.00    -0.161 NA 
HETATM   13  C   UNL     1      -7.137  16.178  68.020  1.00  0.00    -0.131 A  
HETATM   14  N   UNL     1      -7.959  15.140  67.693  1.00  0.00    -0.147 NA 
HETATM   15  C   UNL     1      -8.045  13.898  68.428  1.00  0.00    -0.145 C  
ENDBRANCH   9  10
ENDBRANCH   4   9
ENDBRANCH   2   3
TORSDOF 3
ENDMDL
MODEL       40
REMARK 921   NORMALIZED FREE ENERGY PREDICTED BY IDOCK:   -4.37 KCAL/MOL
REMARK 922        TOTAL FREE ENERGY PREDICTED BY IDOCK:   -5.45 KCAL/MOL
REMARK 923 INTER-LIGAND FREE ENERGY PREDICTED BY IDOCK:   -5.07 KCAL/MOL
REMARK 924 INTRA-LIGAND FREE ENERGY PREDICTED BY IDOCK:   -0.38 KCAL/MOL
REMARK 927      BINDING AFFINITY PREDICTED BY RF-SCORE:    0.00 PKD
ROOT
HETATM    1  C   UNL     1      -9.261  18.275  68.107  1.00  0.00    -0.313 C  
HETATM    2  C   UNL     1     -10.425  17.348  68.433  1.00  0.00    -0.384 C  
ENDROOT
BRANCH   2   3
HETATM    3  C   UNL     1     -10.099  15.861  68.269  1.00  0.00    -0.224 C  
HETATM    4  C   UNL     1     -10.738  14.925  69.308  1.00  0.00    -0.253 C  
HETATM    5  C   UNL     1     -10.583  15.252  66.971  1.00  0.00    -0.306 C  
HETATM    6  C   UNL     1     -10.749  13.612  68.542  1.00  0.00    -0.255 C  
HETATM    7  O   UNL     1     -11.000  13.970  67.183  1.00  0.00    -0.289 OA 
HETATM    8  O   UNL     1     -10.575  15.781  65.872  1.00  0.00    -0.316 OA 
BRANCH   4   9
HETATM    9  C   UNL     1     -12.156  15.329  69.767  1.00  0.00    -0.357 C  
BRANCH   9  10
HETATM   10  C   UNL     1     -12.290  15.346  71.258  1.00  0.00    -0.385 A  
HETATM   11  C   UNL     1     -11.996  16.340  72.173  1.00  0.00    -0.494 A  
HETATM   12  N   UNL     1     -12.246  15.927  73.454  1.00  0.00    -0.482 NA 
HETATM   13  C   UNL     1     -12.713  14.706  73.337  1.00  0.00    -0.408 A  
HETATM   14  N   UNL     1     -12.772  14.316  72.031  1.00  0.00    -0.333 NA 
HETATM   15  C   UNL     1     -13.265  13.034  71.579  1.00  0.00    -0.272 C  
ENDBRANCH   9  10
ENDBRANCH   4   9
ENDBRANCH   2   3
TORSDOF 3
ENDMDL
MODEL       41
REMARK 921   NORMALIZED FREE ENERGY PREDICTED BY IDOCK:   -4.33 KCAL/MOL
REMARK 922        TOTAL FREE ENERGY PREDICTED BY IDOCK:   -5.41 KCAL/MOL
REMARK 923 INTER-LIGAND FREE ENERGY PREDICTED BY IDOCK:   -5.24 KCAL/MOL
REMARK 924 INTRA-LIGAND FREE ENERGY PREDICTED BY IDOCK:   -0.17 KCAL/MOL
REMARK 927      BINDING AFFINITY PREDICTED BY RF-SCORE:    0.00 PKD
ROOT
HETATM    1  C   UNL     1      -9.487  14.105  66.873  1.00  0.00    -0.275 C  
HETATM    2  C   UNL     1      -9.495  15.207  65.821  1.00  0.00    -0.285 C  
ENDROOT
BRANCH   2   3
HETATM    3  C   UNL     1     -10.193  16.492  66.276  1.00  0.00    -0.343 C  
HETATM    4  C   UNL     1      -9.285  17.536  66.946  1.00  0.00    -0.273 C  
HETATM    5  C   UNL     1     -10.812  17.299  65.156  1.00  0.00     0.058 C  
HETATM    6  C   UNL     1     -10.078  18.808  66.696  1.00  0.00    -0.378 C  
HETATM    7  O   UNL     1     -10.677  18.634  65.412  1.00  0.00    -0.572 OA 
HETATM    8  O   UNL     1     -11.393  16.861  64.178  1.00  0.00    -1.208 OA 
BRANCH   4   9
HETATM    9  C   UNL     1      -7.857  17.631  66.364  1.00  0.00    -0.318 C  
BRANCH   9  10
HETATM   10  C   UNL     1      -7.289  19.011  66.471  1.00  0.00    -0.233 A  
HETATM   11  C   UNL     1      -7.037  19.955  65.491  1.00  0.00    -0.302 A  
HETATM   12  N   UNL     1      -6.485  21.089  66.022  1.00  0.00    -0.215 NA 
HETATM   13  C   UNL     1      -6.419  20.867  67.314  1.00  0.00    -0.327 A  
HETATM   14  N   UNL     1      -6.906  19.634  67.636  1.00  0.00    -0.233 NA 
HETATM   15  C   UNL     1      -6.990  19.109  68.980  1.00  0.00    -0.335 C  
ENDBRANCH   9  10
ENDBRANCH   4   9
ENDBRANCH   2   3
TORSDOF 3
ENDMDL
MODEL       42
REMARK 921   NORMALIZED FREE ENERGY PREDICTED BY IDOCK:   -4.30 KCAL/MOL
REMARK 922        TOTAL FREE ENERGY PREDICTED BY IDOCK:   -5.37 KCAL/MOL
REMARK 923 INTER-LIGAND FREE ENERGY PREDICTED BY IDOCK:   -4.95 KCAL/MOL
REMARK 924 INTRA-LIGAND FREE ENERGY PREDICTED BY IDOCK:   -0.42 KCAL/MOL
REMARK 927      BINDING AFFINITY PREDICTED BY RF-SCORE:    0.00 PKD
ROOT
HETATM    1  C   UNL     1     -11.712  14.449  69.489  1.00  0.00    -0.362 C  
HETATM    2  C   UNL     1     -11.173  13.614  68.334  1.00  0.00    -0.306 C  
ENDROOT
BRANCH   2   3
HETATM    3  C   UNL     1     -11.937  13.808  67.022  1.00  0.00    -0.452 C  
HETATM    4  C   UNL     1     -11.535  15.043  66.199  1.00  0.00    -0.222 C  
HETATM    5  C   UNL     1     -11.746  12.695  66.014  1.00  0.00    -0.417 C  
HETATM    6  C   UNL     1     -11.966  14.612  64.806  1.00  0.00    -0.433 C  
HETATM    7  O   UNL     1     -11.714  13.209  64.750  1.00  0.00    -0.322 OA 
HETATM    8  O   UNL     1     -11.672  11.502  66.254  1.00  0.00    -0.384 OA 
BRANCH   4   9
HETATM    9  C   UNL     1     -10.032  15.399  66.246  1.00  0.00    -0.308 C  
BRANCH   9  10
HETATM   10  C   UNL     1      -9.788  16.770  66.794  1.00  0.00    -0.276 A  
HETATM   11  C   UNL     1     -10.172  18.009  66.315  1.00  0.00    -0.381 A  
HETATM   12  N   UNL     1      -9.714  19.018  67.119  1.00  0.00    -0.311 NA 
HETATM   13  C   UNL     1      -9.078  18.416  68.096  1.00  0.00    -0.309 A  
HETATM   14  N   UNL     1      -9.107  17.060  67.954  1.00  0.00    -0.228 NA 
HETATM   15  C   UNL     1      -8.517  16.123  68.883  1.00  0.00    -0.241 C  
ENDBRANCH   9  10
ENDBRANCH   4   9
ENDBRANCH   2   3
TORSDOF 3
ENDMDL
MODEL       43
REMARK 921   NORMALIZED FREE ENERGY PREDICTED BY IDOCK:   -4.27 KCAL/MOL
REMARK 922        TOTAL FREE ENERGY PREDICTED BY IDOCK:   -5.34 KCAL/MOL
REMARK 923 INTER-LIGAND FREE ENERGY PREDICTED BY IDOCK:   -5.29 KCAL/MOL
REMARK 924 INTRA-LIGAND FREE ENERGY PREDICTED BY IDOCK:   -0.05 KCAL/MOL
REMARK 927      BINDING AFFINITY PREDICTED BY RF-SCORE:    0.00 PKD
ROOT
HETATM    1  C   UNL     1     -11.274  10.433  70.537  1.00  0.00    -0.395 C  
HETATM    2  C   UNL     1     -12.040  11.451  69.703  1.00  0.00    -0.373 C  
ENDROOT
BRANCH   2   3
HETATM    3  C   UNL     1     -11.170  12.588  69.159  1.00  0.00    -0.297 C  
HETATM    4  C   UNL     1     -10.800  12.483  67.671  1.00  0.00    -0.255 C  
HETATM    5  C   UNL     1     -11.815  13.955  69.218  1.00  0.00    -0.348 C  
HETATM    6  C   UNL     1     -10.528  13.941  67.339  1.00  0.00    -0.263 C  
HETATM    7  O   UNL     1     -11.461  14.686  68.120  1.00  0.00    -0.293 OA 
HETATM    8  O   UNL     1     -12.515  14.391  70.116  1.00  0.00    -0.342 OA 
BRANCH   4   9
HETATM    9  C   UNL     1     -11.901  11.889  66.763  1.00  0.00    -0.170 C  
BRANCH   9  10
HETATM   10  C   UNL     1     -11.986  12.584  65.441  1.00  0.00    -0.437 A  
HETATM   11  C   UNL     1     -12.696  13.709  65.063  1.00  0.00    -0.336 A  
HETATM   12  N   UNL     1     -12.510  13.994  63.737  1.00  0.00    -0.796 NA 
HETATM   13  C   UNL     1     -11.677  13.078  63.303  1.00  0.00    -0.286 A  
HETATM   14  N   UNL     1     -11.320  12.214  64.296  1.00  0.00    -0.338 NA 
HETATM   15  C   UNL     1     -10.396  11.113  64.134  1.00  0.00    -0.361 C  
ENDBRANCH   9  10
ENDBRANCH   4   9
ENDBRANCH   2   3
TORSDOF 3
ENDMDL
MODEL       44
REMARK 921   NORMALIZED FREE ENERGY PREDICTED BY IDOCK:   -4.27 KCAL/MOL
REMARK 922        TOTAL FREE ENERGY PREDICTED BY IDOCK:   -5.34 KCAL/MOL
REMARK 923 INTER-LIGAND FREE ENERGY PREDICTED BY IDOCK:   -4.96 KCAL/MOL
REMARK 924 INTRA-LIGAND FREE ENERGY PREDICTED BY IDOCK:   -0.38 KCAL/MOL
REMARK 927      BINDING AFFINITY PREDICTED BY RF-SCORE:    0.00 PKD
ROOT
HETATM    1  C   UNL     1     -10.993  15.783  70.327  1.00  0.00    -0.368 C  
HETATM    2  C   UNL     1     -11.408  16.057  68.887  1.00  0.00    -0.370 C  
ENDROOT
BRANCH   2   3
HETATM    3  C   UNL     1     -10.235  16.116  67.905  1.00  0.00    -0.261 C  
HETATM    4  C   UNL     1     -10.042  14.866  67.031  1.00  0.00    -0.244 C  
HETATM    5  C   UNL     1     -10.344  17.205  66.860  1.00  0.00    -0.308 C  
HETATM    6  C   UNL     1      -9.294  15.458  65.846  1.00  0.00    -0.294 C  
HETATM    7  O   UNL     1      -9.839  16.765  65.671  1.00  0.00    -0.544 OA 
HETATM    8  O   UNL     1     -10.773  18.334  67.029  1.00  0.00    -0.370 OA 
BRANCH   4   9
HETATM    9  C   UNL     1     -11.347  14.168  66.589  1.00  0.00    -0.352 C  
BRANCH   9  10
HETATM   10  C   UNL     1     -11.090  12.950  65.759  1.00  0.00    -0.284 A  
HETATM   11  C   UNL     1     -10.467  11.759  66.084  1.00  0.00    -0.245 A  
HETATM   12  N   UNL     1     -10.421  10.911  65.011  1.00  0.00    -0.286 NA 
HETATM   13  C   UNL     1     -11.029  11.553  64.040  1.00  0.00    -0.383 A  
HETATM   14  N   UNL     1     -11.463  12.780  64.446  1.00  0.00    -0.333 NA 
HETATM   15  C   UNL     1     -12.190  13.712  63.612  1.00  0.00    -0.317 C  
ENDBRANCH   9  10
ENDBRANCH   4   9
ENDBRANCH   2   3
TORSDOF 3
ENDMDL
MODEL       45
REMARK 921   NORMALIZED FREE ENERGY PREDICTED BY IDOCK:   -4.25 KCAL/MOL
REMARK 922        TOTAL FREE ENERGY PREDICTED BY IDOCK:   -5.32 KCAL/MOL
REMARK 923 INTER-LIGAND FREE ENERGY PREDICTED BY IDOCK:   -5.14 KCAL/MOL
REMARK 924 INTRA-LIGAND FREE ENERGY PREDICTED BY IDOCK:   -0.18 KCAL/MOL
REMARK 927      BINDING AFFINITY PREDICTED BY RF-SCORE:    0.00 PKD
ROOT
HETATM    1  C   UNL     1     -10.329  19.582  68.060  1.00  0.00    -0.564 C  
HETATM    2  C   UNL     1     -10.650  18.191  67.526  1.00  0.00    -0.419 C  
ENDROOT
BRANCH   2   3
HETATM    3  C   UNL     1      -9.525  17.173  67.736  1.00  0.00    -0.253 C  
HETATM    4  C   UNL     1      -9.982  15.736  68.034  1.00  0.00    -0.222 C  
HETATM    5  C   UNL     1      -8.634  16.966  66.531  1.00  0.00    -0.270 C  
HETATM    6  C   UNL     1      -8.766  14.948  67.576  1.00  0.00    -0.187 C  
HETATM    7  O   UNL     1      -8.261  15.655  66.445  1.00  0.00    -0.248 OA 
HETATM    8  O   UNL     1      -8.248  17.824  65.755  1.00  0.00    -0.538 OA 
BRANCH   4   9
HETATM    9  C   UNL     1     -11.262  15.290  67.294  1.00  0.00    -0.306 C  
BRANCH   9  10
HETATM   10  C   UNL     1     -11.526  13.824  67.444  1.00  0.00    -0.345 A  
HETATM   11  C   UNL     1     -11.550  12.816  66.497  1.00  0.00    -0.376 A  
HETATM   12  N   UNL     1     -11.860  11.609  67.062  1.00  0.00    -0.575 NA 
HETATM   13  C   UNL     1     -11.999  11.855  68.344  1.00  0.00    -0.182 A  
HETATM   14  N   UNL     1     -11.793  13.174  68.626  1.00  0.00    -0.325 NA 
HETATM   15  C   UNL     1     -11.851  13.749  69.951  1.00  0.00    -0.327 C  
ENDBRANCH   9  10
ENDBRANCH   4   9
ENDBRANCH   2   3
TORSDOF 3
ENDMDL
MODEL       46
REMARK 921   NORMALIZED FREE ENERGY PREDICTED BY IDOCK:   -4.25 KCAL/MOL
REMARK 922        TOTAL FREE ENERGY PREDICTED BY IDOCK:   -5.32 KCAL/MOL
REMARK 923 INTER-LIGAND FREE ENERGY PREDICTED BY IDOCK:   -5.03 KCAL/MOL
REMARK 924 INTRA-LIGAND FREE ENERGY PREDICTED BY IDOCK:   -0.29 KCAL/MOL
REMARK 927      BINDING AFFINITY PREDICTED BY RF-SCORE:    0.00 PKD
ROOT
HETATM    1  C   UNL     1     -11.178  10.758  67.630  1.00  0.00    -0.370 C  
HETATM    2  C   UNL     1     -10.991  11.108  69.101  1.00  0.00    -0.295 C  
ENDROOT
BRANCH   2   3
HETATM    3  C   UNL     1     -12.277  11.023  69.926  1.00  0.00    -0.408 C  
HETATM    4  C   UNL     1     -12.395   9.792  70.841  1.00  0.00    -0.379 C  
HETATM    5  C   UNL     1     -12.467  12.155  70.912  1.00  0.00    -0.279 C  
HETATM    6  C   UNL     1     -13.369  10.306  71.888  1.00  0.00    -0.383 C  
HETATM    7  O   UNL     1     -13.052  11.687  72.054  1.00  0.00    -0.478 OA 
HETATM    8  O   UNL     1     -12.192  13.329  70.733  1.00  0.00    -0.358 OA 
BRANCH   4   9
HETATM    9  C   UNL     1     -11.069   9.321  71.478  1.00  0.00    -0.443 C  
BRANCH   9  10
HETATM   10  C   UNL     1     -11.158   7.928  72.016  1.00  0.00    -0.278 A  
HETATM   11  C   UNL     1     -12.029   6.900  71.703  1.00  0.00    -0.339 A  
HETATM   12  N   UNL     1     -11.776   5.785  72.456  1.00  0.00    -0.285 NA 
HETATM   13  C   UNL     1     -10.748   6.105  73.207  1.00  0.00    -0.260 A  
HETATM   14  N   UNL     1     -10.330   7.381  72.969  1.00  0.00    -0.271 NA 
HETATM   15  C   UNL     1      -9.205   8.013  73.621  1.00  0.00    -0.200 C  
ENDBRANCH   9  10
ENDBRANCH   4   9
ENDBRANCH   2   3
TORSDOF 3
ENDMDL
MODEL       47
REMARK 921   NORMALIZED FREE ENERGY PREDICTED BY IDOCK:   -4.25 KCAL/MOL
REMARK 922        TOTAL FREE ENERGY PREDICTED BY IDOCK:   -5.32 KCAL/MOL
REMARK 923 INTER-LIGAND FREE ENERGY PREDICTED BY IDOCK:   -5.05 KCAL/MOL
REMARK 924 INTRA-LIGAND FREE ENERGY PREDICTED BY IDOCK:   -0.27 KCAL/MOL
REMARK 927      BINDING AFFINITY PREDICTED BY RF-SCORE:    0.00 PKD
ROOT
HETATM    1  C   UNL     1     -11.459  12.008  67.734  1.00  0.00    -0.394 C  
HETATM    2  C   UNL     1     -11.130  11.397  69.091  1.00  0.00    -0.317 C  
ENDROOT
BRANCH   2   3
HETATM    3  C   UNL     1     -12.360  11.117  69.958  1.00  0.00    -0.351 C  
HETATM    4  C   UNL     1     -12.323   9.800  70.751  1.00  0.00    -0.321 C  
HETATM    5  C   UNL     1     -12.596  12.129  71.058  1.00  0.00    -0.263 C  
HETATM    6  C   UNL     1     -13.283  10.122  71.885  1.00  0.00    -0.452 C  
HETATM    7  O   UNL     1     -13.079  11.504  72.172  1.00  0.00    -0.466 OA 
HETATM    8  O   UNL     1     -12.433  13.335  70.984  1.00  0.00    -0.366 OA 
BRANCH   4   9
HETATM    9  C   UNL     1     -10.931   9.394  71.281  1.00  0.00    -0.440 C  
BRANCH   9  10
HETATM   10  C   UNL     1     -10.908   7.995  71.812  1.00  0.00    -0.242 A  
HETATM   11  C   UNL     1     -10.885   7.530  73.114  1.00  0.00    -0.395 A  
HETATM   12  N   UNL     1     -10.843   6.162  73.154  1.00  0.00    -0.256 NA 
HETATM   13  C   UNL     1     -10.868   5.781  71.898  1.00  0.00    -0.252 A  
HETATM   14  N   UNL     1     -10.922   6.849  71.051  1.00  0.00    -0.244 NA 
HETATM   15  C   UNL     1     -10.986   6.752  69.610  1.00  0.00    -0.288 C  
ENDBRANCH   9  10
ENDBRANCH   4   9
ENDBRANCH   2   3
TORSDOF 3
ENDMDL
MODEL       48
REMARK 921   NORMALIZED FREE ENERGY PREDICTED BY IDOCK:   -4.24 KCAL/MOL
REMARK 922        TOTAL FREE ENERGY PREDICTED BY IDOCK:   -5.30 KCAL/MOL
REMARK 923 INTER-LIGAND FREE ENERGY PREDICTED BY IDOCK:   -5.16 KCAL/MOL
REMARK 924 INTRA-LIGAND FREE ENERGY PREDICTED BY IDOCK:   -0.15 KCAL/MOL
REMARK 927      BINDING AFFINITY PREDICTED BY RF-SCORE:    0.00 PKD
ROOT
HETATM    1  C   UNL     1     -10.452   9.455  67.615  1.00  0.00    -0.328 C  
HETATM    2  C   UNL     1     -10.802  10.780  68.281  1.00  0.00    -0.276 C  
ENDROOT
BRANCH   2   3
HETATM    3  C   UNL     1     -11.386  11.820  67.322  1.00  0.00    -0.379 C  
HETATM    4  C   UNL     1     -12.119  12.995  67.988  1.00  0.00    -0.220 C  
HETATM    5  C   UNL     1     -10.358  12.542  66.477  1.00  0.00    -0.237 C  
HETATM    6  C   UNL     1     -12.003  14.057  66.906  1.00  0.00    -0.447 C  
HETATM    7  O   UNL     1     -10.726  13.845  66.305  1.00  0.00    -0.282 OA 
HETATM    8  O   UNL     1      -9.362  12.055  65.970  1.00  0.00    -0.233 OA 
BRANCH   4   9
HETATM    9  C   UNL     1     -11.509  13.475  69.324  1.00  0.00    -0.345 C  
BRANCH   9  10
HETATM   10  C   UNL     1     -12.366  13.126  70.500  1.00  0.00    -0.304 A  
HETATM   11  C   UNL     1     -12.603  11.905  71.106  1.00  0.00    -0.288 A  
HETATM   12  N   UNL     1     -13.481  12.029  72.149  1.00  0.00    -0.396 NA 
HETATM   13  C   UNL     1     -13.765  13.309  72.209  1.00  0.00    -0.589 A  
HETATM   14  N   UNL     1     -13.106  14.014  71.245  1.00  0.00    -0.336 NA 
HETATM   15  C   UNL     1     -13.194  15.447  71.071  1.00  0.00    -0.496 C  
ENDBRANCH   9  10
ENDBRANCH   4   9
ENDBRANCH   2   3
TORSDOF 3
ENDMDL
MODEL       49
REMARK 921   NORMALIZED FREE ENERGY PREDICTED BY IDOCK:   -4.24 KCAL/MOL
REMARK 922        TOTAL FREE ENERGY PREDICTED BY IDOCK:   -5.30 KCAL/MOL
REMARK 923 INTER-LIGAND FREE ENERGY PREDICTED BY IDOCK:   -5.04 KCAL/MOL
REMARK 924 INTRA-LIGAND FREE ENERGY PREDICTED BY IDOCK:   -0.26 KCAL/MOL
REMARK 927      BINDING AFFINITY PREDICTED BY RF-SCORE:    0.00 PKD
ROOT
HETATM    1  C   UNL     1      -9.096   7.915  70.399  1.00  0.00    -0.154 C  
HETATM    2  C   UNL     1     -10.177   8.860  69.888  1.00  0.00    -0.209 C  
ENDROOT
BRANCH   2   3
HETATM    3  C   UNL     1     -11.077   9.426  70.990  1.00  0.00    -0.414 C  
HETATM    4  C   UNL     1     -11.694  10.803  70.696  1.00  0.00    -0.442 C  
HETATM    5  C   UNL     1     -12.307   8.596  71.283  1.00  0.00    -0.263 C  
HETATM    6  C   UNL     1     -12.917  10.767  71.599  1.00  0.00    -0.476 C  
HETATM    7  O   UNL     1     -13.362   9.411  71.578  1.00  0.00    -0.364 OA 
HETATM    8  O   UNL     1     -12.375   7.379  71.307  1.00  0.00    -0.327 OA 
BRANCH   4   9
HETATM    9  C   UNL     1     -12.083  11.044  69.220  1.00  0.00    -0.363 C  
BRANCH   9  10
HETATM   10  C   UNL     1     -11.909  12.473  68.811  1.00  0.00    -0.303 A  
HETATM   11  C   UNL     1     -11.946  13.633  69.565  1.00  0.00    -0.341 A  
HETATM   12  N   UNL     1     -11.761  14.741  68.784  1.00  0.00    -0.317 NA 
HETATM   13  C   UNL     1     -11.584  14.279  67.568  1.00  0.00    -0.363 A  
HETATM   14  N   UNL     1     -11.650  12.917  67.535  1.00  0.00    -0.335 NA 
HETATM   15  C   UNL     1     -11.470  12.114  66.346  1.00  0.00    -0.370 C  
ENDBRANCH   9  10
ENDBRANCH   4   9
ENDBRANCH   2   3
TORSDOF 3
ENDMDL
MODEL       50
REMARK 921   NORMALIZED FREE ENERGY PREDICTED BY IDOCK:   -4.23 KCAL/MOL
REMARK 922        TOTAL FREE ENERGY PREDICTED BY IDOCK:   -5.30 KCAL/MOL
REMARK 923 INTER-LIGAND FREE ENERGY PREDICTED BY IDOCK:   -4.92 KCAL/MOL
REMARK 924 INTRA-LIGAND FREE ENERGY PREDICTED BY IDOCK:   -0.37 KCAL/MOL
REMARK 927      BINDING AFFINITY PREDICTED BY RF-SCORE:    0.00 PKD
ROOT
HETATM    1  C   UNL     1     -12.304  14.313  69.884  1.00  0.00    -0.377 C  
HETATM    2  C   UNL     1     -11.425  13.704  68.799  1.00  0.00    -0.346 C  
ENDROOT
BRANCH   2   3
HETATM    3  C   UNL     1     -11.983  13.874  67.383  1.00  0.00    -0.436 C  
HETATM    4  C   UNL     1     -11.424  15.067  66.592  1.00  0.00    -0.251 C  
HETATM    5  C   UNL     1     -11.684  12.722  66.449  1.00  0.00    -0.403 C  
HETATM    6  C   UNL     1     -11.662  14.601  65.164  1.00  0.00    -0.364 C  
HETATM    7  O   UNL     1     -11.452  13.190  65.188  1.00  0.00    -0.292 OA 
HETATM    8  O   UNL     1     -11.686  11.536  66.733  1.00  0.00    -0.510 OA 
BRANCH   4   9
HETATM    9  C   UNL     1      -9.933  15.381  66.847  1.00  0.00    -0.247 C  
BRANCH   9  10
HETATM   10  C   UNL     1      -9.738  16.688  67.550  1.00  0.00    -0.247 A  
HETATM   11  C   UNL     1     -10.638  17.476  68.244  1.00  0.00    -0.354 A  
HETATM   12  N   UNL     1     -10.044  18.615  68.715  1.00  0.00    -0.385 NA 
HETATM   13  C   UNL     1      -8.788  18.526  68.344  1.00  0.00    -0.322 A  
HETATM   14  N   UNL     1      -8.550  17.375  67.652  1.00  0.00    -0.215 NA 
HETATM   15  C   UNL     1      -7.260  16.979  67.134  1.00  0.00    -0.172 C  
ENDBRANCH   9  10
ENDBRANCH   4   9
ENDBRANCH   2   3
TORSDOF 3
ENDMDL
MODEL       51
REMARK 921   NORMALIZED FREE ENERGY PREDICTED BY IDOCK:   -4.23 KCAL/MOL
REMARK 922        TOTAL FREE ENERGY PREDICTED BY IDOCK:   -5.29 KCAL/MOL
REMARK 923 INTER-LIGAND FREE ENERGY PREDICTED BY IDOCK:   -5.09 KCAL/MOL
REMARK 924 INTRA-LIGAND FREE ENERGY PREDICTED BY IDOCK:   -0.20 KCAL/MOL
REMARK 927      BINDING AFFINITY PREDICTED BY RF-SCORE:    0.00 PKD
ROOT
HETATM    1  C   UNL     1     -10.349  15.747  66.004  1.00  0.00    -0.356 C  
HETATM    2  C   UNL     1     -10.251  14.229  65.913  1.00  0.00    -0.338 C  
ENDROOT
BRANCH   2   3
HETATM    3  C   UNL     1     -10.949  13.636  64.686  1.00  0.00    -0.403 C  
HETATM    4  C   UNL     1     -10.539  12.199  64.323  1.00  0.00    -0.385 C  
HETATM    5  C   UNL     1     -12.449  13.500  64.822  1.00  0.00    -0.355 C  
HETATM    6  C   UNL     1     -11.765  11.737  63.553  1.00  0.00    -0.383 C  
HETATM    7  O   UNL     1     -12.874  12.361  64.199  1.00  0.00    -0.705 OA 
HETATM    8  O   UNL     1     -13.206  14.290  65.360  1.00  0.00    -0.688 OA 
BRANCH   4   9
HETATM    9  C   UNL     1     -10.242  11.279  65.528  1.00  0.00    -0.312 C  
BRANCH   9  10
HETATM   10  C   UNL     1      -9.294  10.174  65.182  1.00  0.00    -0.235 A  
HETATM   11  C   UNL     1      -8.315  10.105  64.207  1.00  0.00    -0.171 A  
HETATM   12  N   UNL     1      -7.687   8.889  64.217  1.00  0.00    -0.116 NA 
HETATM   13  C   UNL     1      -8.247   8.221  65.199  1.00  0.00    -0.154 A  
HETATM   14  N   UNL     1      -9.211   8.959  65.821  1.00  0.00    -0.223 NA 
HETATM   15  C   UNL     1      -9.987   8.508  66.954  1.00  0.00    -0.265 C  
ENDBRANCH   9  10
ENDBRANCH   4   9
ENDBRANCH   2   3
TORSDOF 3
ENDMDL
MODEL       52
REMARK 921   NORMALIZED FREE ENERGY PREDICTED BY IDOCK:   -4.23 KCAL/MOL
REMARK 922        TOTAL FREE ENERGY PREDICTED BY IDOCK:   -5.29 KCAL/MOL
REMARK 923 INTER-LIGAND FREE ENERGY PREDICTED BY IDOCK:   -5.28 KCAL/MOL
REMARK 924 INTRA-LIGAND FREE ENERGY PREDICTED BY IDOCK:   -0.00 KCAL/MOL
REMARK 927      BINDING AFFINITY PREDICTED BY RF-SCORE:    0.00 PKD
ROOT
HETATM    1  C   UNL     1      -8.887   8.649  71.111  1.00  0.00    -0.249 C  
HETATM    2  C   UNL     1     -10.165   9.359  70.682  1.00  0.00    -0.353 C  
ENDROOT
BRANCH   2   3
HETATM    3  C   UNL     1     -11.350   9.122  71.622  1.00  0.00    -0.446 C  
HETATM    4  C   UNL     1     -12.414  10.233  71.637  1.00  0.00    -0.491 C  
HETATM    5  C   UNL     1     -12.184   7.905  71.287  1.00  0.00    -0.294 C  
HETATM    6  C   UNL     1     -13.631   9.457  72.114  1.00  0.00    -0.457 C  
HETATM    7  O   UNL     1     -13.502   8.159  71.535  1.00  0.00    -0.328 OA 
HETATM    8  O   UNL     1     -11.772   6.827  70.895  1.00  0.00    -0.332 OA 
BRANCH   4   9
HETATM    9  C   UNL     1     -12.670  10.912  70.273  1.00  0.00    -0.285 C  
BRANCH   9  10
HETATM   10  C   UNL     1     -12.278  12.356  70.273  1.00  0.00    -0.267 A  
HETATM   11  C   UNL     1     -11.444  13.059  69.423  1.00  0.00    -0.261 A  
HETATM   12  N   UNL     1     -11.340  14.371  69.798  1.00  0.00    -0.250 NA 
HETATM   13  C   UNL     1     -12.118  14.490  70.849  1.00  0.00    -0.336 A  
HETATM   14  N   UNL     1     -12.717  13.306  71.166  1.00  0.00    -0.352 NA 
HETATM   15  C   UNL     1     -13.648  13.123  72.256  1.00  0.00    -0.581 C  
ENDBRANCH   9  10
ENDBRANCH   4   9
ENDBRANCH   2   3
TORSDOF 3
ENDMDL
MODEL       53
REMARK 921   NORMALIZED FREE ENERGY PREDICTED BY IDOCK:   -4.19 KCAL/MOL
REMARK 922        TOTAL FREE ENERGY PREDICTED BY IDOCK:   -5.25 KCAL/MOL
REMARK 923 INTER-LIGAND FREE ENERGY PREDICTED BY IDOCK:   -4.96 KCAL/MOL
REMARK 924 INTRA-LIGAND FREE ENERGY PREDICTED BY IDOCK:   -0.30 KCAL/MOL
REMARK 927      BINDING AFFINITY PREDICTED BY RF-SCORE:    0.00 PKD
ROOT
HETATM    1  C   UNL     1     -10.826   6.881  67.081  1.00  0.00    -0.447 C  
HETATM    2  C   UNL     1     -10.516   8.372  67.116  1.00  0.00    -0.380 C  
ENDROOT
BRANCH   2   3
HETATM    3  C   UNL     1      -9.617   8.845  65.971  1.00  0.00    -0.320 C  
HETATM    4  C   UNL     1      -9.979  10.212  65.368  1.00  0.00    -0.377 C  
HETATM    5  C   UNL     1      -8.169   9.054  66.355  1.00  0.00    -0.111 C  
HETATM    6  C   UNL     1      -8.641  10.629  64.779  1.00  0.00    -0.130 C  
HETATM    7  O   UNL     1      -7.658  10.128  65.684  1.00  0.00    -0.130 OA 
HETATM    8  O   UNL     1      -7.510   8.362  67.112  1.00  0.00    -0.087 OA 
BRANCH   4   9
HETATM    9  C   UNL     1     -10.506  11.254  66.379  1.00  0.00    -0.306 C  
BRANCH   9  10
HETATM   10  C   UNL     1     -11.412  12.260  65.742  1.00  0.00    -0.367 A  
HETATM   11  C   UNL     1     -11.877  12.352  64.442  1.00  0.00    -0.389 A  
HETATM   12  N   UNL     1     -12.673  13.453  64.274  1.00  0.00    -0.656 NA 
HETATM   13  C   UNL     1     -12.725  14.022  65.455  1.00  0.00    -0.486 A  
HETATM   14  N   UNL     1     -11.993  13.333  66.377  1.00  0.00    -0.403 NA 
HETATM   15  C   UNL     1     -11.876  13.696  67.771  1.00  0.00    -0.368 C  
ENDBRANCH   9  10
ENDBRANCH   4   9
ENDBRANCH   2   3
TORSDOF 3
ENDMDL
MODEL       54
REMARK 921   NORMALIZED FREE ENERGY PREDICTED BY IDOCK:   -4.19 KCAL/MOL
REMARK 922        TOTAL FREE ENERGY PREDICTED BY IDOCK:   -5.24 KCAL/MOL
REMARK 923 INTER-LIGAND FREE ENERGY PREDICTED BY IDOCK:   -4.90 KCAL/MOL
REMARK 924 INTRA-LIGAND FREE ENERGY PREDICTED BY IDOCK:   -0.34 KCAL/MOL
REMARK 927      BINDING AFFINITY PREDICTED BY RF-SCORE:    0.00 PKD
ROOT
HETATM    1  C   UNL     1     -11.381  11.403  67.664  1.00  0.00    -0.359 C  
HETATM    2  C   UNL     1     -11.105  11.068  69.124  1.00  0.00    -0.301 C  
ENDROOT
BRANCH   2   3
HETATM    3  C   UNL     1     -12.363  11.005  69.995  1.00  0.00    -0.377 C  
HETATM    4  C   UNL     1     -12.482   9.765  70.895  1.00  0.00    -0.366 C  
HETATM    5  C   UNL     1     -12.486  12.128  71.002  1.00  0.00    -0.269 C  
HETATM    6  C   UNL     1     -13.404  10.290  71.985  1.00  0.00    -0.361 C  
HETATM    7  O   UNL     1     -13.043  11.660  72.157  1.00  0.00    -0.457 OA 
HETATM    8  O   UNL     1     -12.185  13.296  70.829  1.00  0.00    -0.358 OA 
BRANCH   4   9
HETATM    9  C   UNL     1     -11.148   9.249  71.478  1.00  0.00    -0.443 C  
BRANCH   9  10
HETATM   10  C   UNL     1     -10.927   7.796  71.198  1.00  0.00    -0.239 A  
HETATM   11  C   UNL     1     -10.993   7.092  70.009  1.00  0.00    -0.262 A  
HETATM   12  N   UNL     1     -10.743   5.761  70.203  1.00  0.00    -0.307 NA 
HETATM   13  C   UNL     1     -10.499   5.641  71.488  1.00  0.00    -0.239 A  
HETATM   14  N   UNL     1     -10.583   6.843  72.128  1.00  0.00    -0.210 NA 
HETATM   15  C   UNL     1     -10.342   7.040  73.539  1.00  0.00    -0.356 C  
ENDBRANCH   9  10
ENDBRANCH   4   9
ENDBRANCH   2   3
TORSDOF 3
ENDMDL
MODEL       55
REMARK 921   NORMALIZED FREE ENERGY PREDICTED BY IDOCK:   -4.19 KCAL/MOL
REMARK 922        TOTAL FREE ENERGY PREDICTED BY IDOCK:   -5.24 KCAL/MOL
REMARK 923 INTER-LIGAND FREE ENERGY PREDICTED BY IDOCK:   -4.93 KCAL/MOL
REMARK 924 INTRA-LIGAND FREE ENERGY PREDICTED BY IDOCK:   -0.31 KCAL/MOL
REMARK 927      BINDING AFFINITY PREDICTED BY RF-SCORE:    0.00 PKD
ROOT
HETATM    1  C   UNL     1     -10.864  19.440  67.428  1.00  0.00    -0.555 C  
HETATM    2  C   UNL     1      -9.917  18.949  66.340  1.00  0.00    -0.435 C  
ENDROOT
BRANCH   2   3
HETATM    3  C   UNL     1      -8.710  18.173  66.875  1.00  0.00    -0.267 C  
HETATM    4  C   UNL     1      -8.932  16.666  67.082  1.00  0.00    -0.225 C  
HETATM    5  C   UNL     1      -7.504  18.181  65.961  1.00  0.00    -0.228 C  
HETATM    6  C   UNL     1      -7.505  16.151  66.992  1.00  0.00    -0.229 C  
HETATM    7  O   UNL     1      -6.867  16.975  66.018  1.00  0.00    -0.134 OA 
HETATM    8  O   UNL     1      -7.104  19.119  65.292  1.00  0.00    -0.467 OA 
BRANCH   4   9
HETATM    9  C   UNL     1      -9.848  15.990  66.038  1.00  0.00    -0.365 C  
BRANCH   9  10
HETATM   10  C   UNL     1     -10.665  14.883  66.628  1.00  0.00    -0.312 A  
HETATM   11  C   UNL     1     -11.125  14.698  67.919  1.00  0.00    -0.291 A  
HETATM   12  N   UNL     1     -11.821  13.525  68.037  1.00  0.00    -0.360 NA 
HETATM   13  C   UNL     1     -11.818  13.001  66.833  1.00  0.00    -0.380 A  
HETATM   14  N   UNL     1     -11.145  13.789  65.946  1.00  0.00    -0.285 NA 
HETATM   15  C   UNL     1     -10.990  13.494  64.539  1.00  0.00    -0.394 C  
ENDBRANCH   9  10
ENDBRANCH   4   9
ENDBRANCH   2   3
TORSDOF 3
ENDMDL
MODEL       56
REMARK 921   NORMALIZED FREE ENERGY PREDICTED BY IDOCK:   -4.17 KCAL/MOL
REMARK 922        TOTAL FREE ENERGY PREDICTED BY IDOCK:   -5.22 KCAL/MOL
REMARK 923 INTER-LIGAND FREE ENERGY PREDICTED BY IDOCK:   -4.98 KCAL/MOL
REMARK 924 INTRA-LIGAND FREE ENERGY PREDICTED BY IDOCK:   -0.25 KCAL/MOL
REMARK 927      BINDING AFFINITY PREDICTED BY RF-SCORE:    0.00 PKD
ROOT
HETATM    1  C   UNL     1     -12.015  12.391  63.520  1.00  0.00    -0.627 C  
HETATM    2  C   UNL     1     -12.028  12.531  65.037  1.00  0.00    -0.478 C  
ENDROOT
BRANCH   2   3
HETATM    3  C   UNL     1     -10.681  12.951  65.631  1.00  0.00    -0.295 C  
HETATM    4  C   UNL     1     -10.750  13.633  67.007  1.00  0.00    -0.278 C  
HETATM    5  C   UNL     1      -9.732  11.805  65.906  1.00  0.00    -0.237 C  
HETATM    6  C   UNL     1      -9.355  13.346  67.540  1.00  0.00    -0.218 C  
HETATM    7  O   UNL     1      -9.023  12.049  67.047  1.00  0.00    -0.184 OA 
HETATM    8  O   UNL     1      -9.564  10.817  65.212  1.00  0.00    -0.198 OA 
BRANCH   4   9
HETATM    9  C   UNL     1     -11.844  13.090  67.953  1.00  0.00    -0.389 C  
BRANCH   9  10
HETATM   10  C   UNL     1     -11.993  13.921  69.189  1.00  0.00    -0.363 A  
HETATM   11  C   UNL     1     -11.897  15.289  69.367  1.00  0.00    -0.343 A  
HETATM   12  N   UNL     1     -12.079  15.635  70.678  1.00  0.00    -0.381 NA 
HETATM   13  C   UNL     1     -12.313  14.505  71.303  1.00  0.00    -0.351 A  
HETATM   14  N   UNL     1     -12.286  13.444  70.446  1.00  0.00    -0.356 NA 
HETATM   15  C   UNL     1     -12.531  12.072  70.829  1.00  0.00    -0.279 C  
ENDBRANCH   9  10
ENDBRANCH   4   9
ENDBRANCH   2   3
TORSDOF 3
ENDMDL
MODEL       57
REMARK 921   NORMALIZED FREE ENERGY PREDICTED BY IDOCK:   -4.15 KCAL/MOL
REMARK 922        TOTAL FREE ENERGY PREDICTED BY IDOCK:   -5.20 KCAL/MOL
REMARK 923 INTER-LIGAND FREE ENERGY PREDICTED BY IDOCK:   -4.98 KCAL/MOL
REMARK 924 INTRA-LIGAND FREE ENERGY PREDICTED BY IDOCK:   -0.21 KCAL/MOL
REMARK 927      BINDING AFFINITY PREDICTED BY RF-SCORE:    0.00 PKD
ROOT
HETATM    1  C   UNL     1     -12.210  13.811  63.852  1.00  0.00    -0.402 C  
HETATM    2  C   UNL     1     -11.630  14.831  64.824  1.00  0.00    -0.418 C  
ENDROOT
BRANCH   2   3
HETATM    3  C   UNL     1     -10.240  14.464  65.351  1.00  0.00    -0.408 C  
HETATM    4  C   UNL     1      -9.506  15.580  66.112  1.00  0.00    -0.376 C  
HETATM    5  C   UNL     1     -10.231  13.344  66.369  1.00  0.00    -0.293 C  
HETATM    6  C   UNL     1      -8.555  14.763  66.972  1.00  0.00    -0.234 C  
HETATM    7  O   UNL     1      -9.279  13.583  67.318  1.00  0.00    -0.213 OA 
HETATM    8  O   UNL     1     -10.923  12.340  66.352  1.00  0.00    -0.264 OA 
BRANCH   4   9
HETATM    9  C   UNL     1     -10.411  16.491  66.970  1.00  0.00    -0.301 C  
BRANCH   9  10
HETATM   10  C   UNL     1     -10.156  17.945  66.722  1.00  0.00    -0.349 A  
HETATM   11  C   UNL     1     -10.751  18.821  65.833  1.00  0.00    -0.264 A  
HETATM   12  N   UNL     1     -10.196  20.069  65.914  1.00  0.00    -0.476 NA 
HETATM   13  C   UNL     1      -9.288  19.980  66.858  1.00  0.00    -0.393 A  
HETATM   14  N   UNL     1      -9.236  18.723  67.386  1.00  0.00    -0.281 NA 
HETATM   15  C   UNL     1      -8.355  18.318  68.459  1.00  0.00    -0.310 C  
ENDBRANCH   9  10
ENDBRANCH   4   9
ENDBRANCH   2   3
TORSDOF 3
ENDMDL
MODEL       58
REMARK 921   NORMALIZED FREE ENERGY PREDICTED BY IDOCK:   -4.14 KCAL/MOL
REMARK 922        TOTAL FREE ENERGY PREDICTED BY IDOCK:   -5.19 KCAL/MOL
REMARK 923 INTER-LIGAND FREE ENERGY PREDICTED BY IDOCK:   -4.87 KCAL/MOL
REMARK 924 INTRA-LIGAND FREE ENERGY PREDICTED BY IDOCK:   -0.32 KCAL/MOL
REMARK 927      BINDING AFFINITY PREDICTED BY RF-SCORE:    0.00 PKD
ROOT
HETATM    1  C   UNL     1     -10.358  10.226  68.072  1.00  0.00    -0.215 C  
HETATM    2  C   UNL     1     -11.611  10.816  68.706  1.00  0.00    -0.350 C  
ENDROOT
BRANCH   2   3
HETATM    3  C   UNL     1     -11.328  11.953  69.693  1.00  0.00    -0.266 C  
HETATM    4  C   UNL     1     -11.209  13.353  69.071  1.00  0.00    -0.323 C  
HETATM    5  C   UNL     1     -12.411  12.170  70.727  1.00  0.00    -0.271 C  
HETATM    6  C   UNL     1     -11.554  14.228  70.265  1.00  0.00    -0.224 C  
HETATM    7  O   UNL     1     -12.546  13.503  70.990  1.00  0.00    -0.353 OA 
HETATM    8  O   UNL     1     -13.057  11.306  71.297  1.00  0.00    -0.348 OA 
BRANCH   4   9
HETATM    9  C   UNL     1     -12.151  13.622  67.877  1.00  0.00    -0.318 C  
BRANCH   9  10
HETATM   10  C   UNL     1     -11.460  14.326  66.751  1.00  0.00    -0.367 A  
HETATM   11  C   UNL     1     -10.594  15.404  66.766  1.00  0.00    -0.309 A  
HETATM   12  N   UNL     1     -10.208  15.750  65.499  1.00  0.00    -0.368 NA 
HETATM   13  C   UNL     1     -10.803  14.886  64.710  1.00  0.00    -0.363 A  
HETATM   14  N   UNL     1     -11.557  13.997  65.419  1.00  0.00    -0.319 NA 
HETATM   15  C   UNL     1     -12.311  12.910  64.835  1.00  0.00    -0.475 C  
ENDBRANCH   9  10
ENDBRANCH   4   9
ENDBRANCH   2   3
TORSDOF 3
ENDMDL
MODEL       59
REMARK 921   NORMALIZED FREE ENERGY PREDICTED BY IDOCK:   -4.14 KCAL/MOL
REMARK 922        TOTAL FREE ENERGY PREDICTED BY IDOCK:   -5.18 KCAL/MOL
REMARK 923 INTER-LIGAND FREE ENERGY PREDICTED BY IDOCK:   -5.65 KCAL/MOL
REMARK 924 INTRA-LIGAND FREE ENERGY PREDICTED BY IDOCK:    0.46 KCAL/MOL
REMARK 927      BINDING AFFINITY PREDICTED BY RF-SCORE:    0.00 PKD
ROOT
HETATM    1  C   UNL     1      -9.193  16.087  66.326  1.00  0.00    -0.368 C  
HETATM    2  C   UNL     1     -10.451  15.227  66.323  1.00  0.00    -0.313 C  
ENDROOT
BRANCH   2   3
HETATM    3  C   UNL     1     -10.741  14.559  64.976  1.00  0.00    -0.444 C  
HETATM    4  C   UNL     1     -11.313  13.134  65.054  1.00  0.00    -0.325 C  
HETATM    5  C   UNL     1     -11.786  15.262  64.139  1.00  0.00    -0.124 C  
HETATM    6  C   UNL     1     -12.027  13.038  63.715  1.00  0.00    -0.518 C  
HETATM    7  O   UNL     1     -12.543  14.345  63.468  1.00  0.00    -0.784 OA 
HETATM    8  O   UNL     1     -11.934  16.467  64.020  1.00  0.00    -0.979 OA 
BRANCH   4   9
HETATM    9  C   UNL     1     -12.278  12.881  66.234  1.00  0.00    -0.340 C  
BRANCH   9  10
HETATM   10  C   UNL     1     -11.740  11.879  67.206  1.00  0.00    -0.247 A  
HETATM   11  C   UNL     1     -11.999  11.709  68.554  1.00  0.00    -0.217 A  
HETATM   12  N   UNL     1     -11.268  10.676  69.075  1.00  0.00    -0.247 NA 
HETATM   13  C   UNL     1     -10.586  10.192  68.063  1.00  0.00    -0.231 A  
HETATM   14  N   UNL     1     -10.848  10.874  66.911  1.00  0.00    -0.266 NA 
HETATM   15  C   UNL     1     -10.270  10.563  65.623  1.00  0.00    -0.246 C  
ENDBRANCH   9  10
ENDBRANCH   4   9
ENDBRANCH   2   3
TORSDOF 3
ENDMDL
MODEL       60
REMARK 921   NORMALIZED FREE ENERGY PREDICTED BY IDOCK:   -4.14 KCAL/MOL
REMARK 922        TOTAL FREE ENERGY PREDICTED BY IDOCK:   -5.18 KCAL/MOL
REMARK 923 INTER-LIGAND FREE ENERGY PREDICTED BY IDOCK:   -4.79 KCAL/MOL
REMARK 924 INTRA-LIGAND FREE ENERGY PREDICTED BY IDOCK:   -0.40 KCAL/MOL
REMARK 927      BINDING AFFINITY PREDICTED BY RF-SCORE:    0.00 PKD
ROOT
HETATM    1  C   UNL     1     -10.601  16.897  68.997  1.00  0.00    -0.338 C  
HETATM    2  C   UNL     1     -10.561  15.929  70.172  1.00  0.00    -0.302 C  
ENDROOT
BRANCH   2   3
HETATM    3  C   UNL     1     -11.943  15.578  70.732  1.00  0.00    -0.420 C  
HETATM    4  C   UNL     1     -12.696  14.467  69.982  1.00  0.00    -0.185 C  
HETATM    5  C   UNL     1     -11.928  15.037  72.145  1.00  0.00    -0.375 C  
HETATM    6  C   UNL     1     -13.629  13.967  71.073  1.00  0.00    -0.007 C  
HETATM    7  O   UNL     1     -12.882  14.070  72.285  1.00  0.00    -0.342 OA 
HETATM    8  O   UNL     1     -11.217  15.414  73.061  1.00  0.00    -0.131 OA 
BRANCH   4   9
HETATM    9  C   UNL     1     -11.807  13.332  69.428  1.00  0.00    -0.386 C  
BRANCH   9  10
HETATM   10  C   UNL     1     -11.886  13.221  67.938  1.00  0.00    -0.349 A  
HETATM   11  C   UNL     1     -12.173  14.178  66.982  1.00  0.00    -0.339 A  
HETATM   12  N   UNL     1     -12.165  13.642  65.722  1.00  0.00    -0.433 NA 
HETATM   13  C   UNL     1     -11.850  12.378  65.889  1.00  0.00    -0.405 A  
HETATM   14  N   UNL     1     -11.658  12.079  67.205  1.00  0.00    -0.475 NA 
HETATM   15  C   UNL     1     -11.277  10.777  67.704  1.00  0.00    -0.299 C  
ENDBRANCH   9  10
ENDBRANCH   4   9
ENDBRANCH   2   3
TORSDOF 3
ENDMDL
MODEL       61
REMARK 921   NORMALIZED FREE ENERGY PREDICTED BY IDOCK:   -4.13 KCAL/MOL
REMARK 922        TOTAL FREE ENERGY PREDICTED BY IDOCK:   -5.17 KCAL/MOL
REMARK 923 INTER-LIGAND FREE ENERGY PREDICTED BY IDOCK:   -4.82 KCAL/MOL
REMARK 924 INTRA-LIGAND FREE ENERGY PREDICTED BY IDOCK:   -0.35 KCAL/MOL
REMARK 927      BINDING AFFINITY PREDICTED BY RF-SCORE:    0.00 PKD
ROOT
HETATM    1  C   UNL     1     -11.967  15.624  69.053  1.00  0.00    -0.323 C  
HETATM    2  C   UNL     1     -10.947  15.223  67.994  1.00  0.00    -0.299 C  
ENDROOT
BRANCH   2   3
HETATM    3  C   UNL     1     -10.080  14.025  68.392  1.00  0.00    -0.236 C  
HETATM    4  C   UNL     1      -9.972  12.909  67.341  1.00  0.00    -0.217 C  
HETATM    5  C   UNL     1      -8.624  14.358  68.635  1.00  0.00    -0.161 C  
HETATM    6  C   UNL     1      -8.656  12.263  67.743  1.00  0.00    -0.170 C  
HETATM    7  O   UNL     1      -7.832  13.336  68.196  1.00  0.00    -0.124 OA 
HETATM    8  O   UNL     1      -8.187  15.358  69.179  1.00  0.00    -0.206 OA 
BRANCH   4   9
HETATM    9  C   UNL     1      -9.945  13.392  65.874  1.00  0.00    -0.287 C  
BRANCH   9  10
HETATM   10  C   UNL     1     -11.125  12.907  65.092  1.00  0.00    -0.292 A  
HETATM   11  C   UNL     1     -12.479  13.081  65.311  1.00  0.00    -0.499 A  
HETATM   12  N   UNL     1     -13.225  12.443  64.358  1.00  0.00    -0.778 NA 
HETATM   13  C   UNL     1     -12.350  11.902  63.542  1.00  0.00    -0.490 A  
HETATM   14  N   UNL     1     -11.070  12.166  63.934  1.00  0.00    -0.365 NA 
HETATM   15  C   UNL     1      -9.888  11.727  63.227  1.00  0.00    -0.377 C  
ENDBRANCH   9  10
ENDBRANCH   4   9
ENDBRANCH   2   3
TORSDOF 3
ENDMDL
MODEL       62
REMARK 921   NORMALIZED FREE ENERGY PREDICTED BY IDOCK:   -4.12 KCAL/MOL
REMARK 922        TOTAL FREE ENERGY PREDICTED BY IDOCK:   -5.16 KCAL/MOL
REMARK 923 INTER-LIGAND FREE ENERGY PREDICTED BY IDOCK:   -5.01 KCAL/MOL
REMARK 924 INTRA-LIGAND FREE ENERGY PREDICTED BY IDOCK:   -0.15 KCAL/MOL
REMARK 927      BINDING AFFINITY PREDICTED BY RF-SCORE:    0.00 PKD
ROOT
HETATM    1  C   UNL     1      -6.491  19.596  68.593  1.00  0.00    -0.308 C  
HETATM    2  C   UNL     1      -7.940  19.133  68.676  1.00  0.00    -0.398 C  
ENDROOT
BRANCH   2   3
HETATM    3  C   UNL     1      -8.637  19.030  67.317  1.00  0.00    -0.298 C  
HETATM    4  C   UNL     1      -9.431  17.735  67.078  1.00  0.00    -0.271 C  
HETATM    5  C   UNL     1      -9.692  20.085  67.071  1.00  0.00    -0.421 C  
HETATM    6  C   UNL     1     -10.426  18.199  66.027  1.00  0.00    -0.335 C  
HETATM    7  O   UNL     1     -10.734  19.550  66.369  1.00  0.00    -0.448 OA 
HETATM    8  O   UNL     1      -9.637  21.259  67.396  1.00  0.00    -0.266 OA 
BRANCH   4   9
HETATM    9  C   UNL     1     -10.144  17.165  68.325  1.00  0.00    -0.314 C  
BRANCH   9  10
HETATM   10  C   UNL     1     -10.746  15.819  68.072  1.00  0.00    -0.296 A  
HETATM   11  C   UNL     1     -10.594  14.956  67.002  1.00  0.00    -0.289 A  
HETATM   12  N   UNL     1     -11.353  13.827  67.160  1.00  0.00    -0.311 NA 
HETATM   13  C   UNL     1     -11.946  13.973  68.322  1.00  0.00    -0.349 A  
HETATM   14  N   UNL     1     -11.600  15.151  68.917  1.00  0.00    -0.323 NA 
HETATM   15  C   UNL     1     -12.069  15.584  70.214  1.00  0.00    -0.386 C  
ENDBRANCH   9  10
ENDBRANCH   4   9
ENDBRANCH   2   3
TORSDOF 3
ENDMDL
MODEL       63
REMARK 921   NORMALIZED FREE ENERGY PREDICTED BY IDOCK:   -4.08 KCAL/MOL
REMARK 922        TOTAL FREE ENERGY PREDICTED BY IDOCK:   -5.12 KCAL/MOL
REMARK 923 INTER-LIGAND FREE ENERGY PREDICTED BY IDOCK:   -4.91 KCAL/MOL
REMARK 924 INTRA-LIGAND FREE ENERGY PREDICTED BY IDOCK:   -0.21 KCAL/MOL
REMARK 927      BINDING AFFINITY PREDICTED BY RF-SCORE:    0.00 PKD
ROOT
HETATM    1  C   UNL     1     -13.234  12.094  72.015  1.00  0.00    -0.496 C  
HETATM    2  C   UNL     1     -12.988  10.716  71.413  1.00  0.00    -0.545 C  
ENDROOT
BRANCH   2   3
HETATM    3  C   UNL     1     -11.594  10.546  70.804  1.00  0.00    -0.432 C  
HETATM    4  C   UNL     1     -10.942   9.171  71.019  1.00  0.00    -0.375 C  
HETATM    5  C   UNL     1     -11.548  10.673  69.297  1.00  0.00    -0.275 C  
HETATM    6  C   UNL     1      -9.970   9.128  69.851  1.00  0.00    -0.197 C  
HETATM    7  O   UNL     1     -10.635   9.798  68.782  1.00  0.00    -0.207 OA 
HETATM    8  O   UNL     1     -12.183  11.458  68.613  1.00  0.00    -0.532 OA 
BRANCH   4   9
HETATM    9  C   UNL     1     -11.918   7.973  70.992  1.00  0.00    -0.260 C  
BRANCH   9  10
HETATM   10  C   UNL     1     -11.206   6.660  70.894  1.00  0.00    -0.302 A  
HETATM   11  C   UNL     1     -10.890   5.891  69.789  1.00  0.00    -0.377 A  
HETATM   12  N   UNL     1     -10.250   4.737  70.151  1.00  0.00    -0.236 NA 
HETATM   13  C   UNL     1     -10.146   4.797  71.458  1.00  0.00    -0.190 A  
HETATM   14  N   UNL     1     -10.694   5.945  71.952  1.00  0.00    -0.231 NA 
HETATM   15  C   UNL     1     -10.711   6.311  73.350  1.00  0.00    -0.259 C  
ENDBRANCH   9  10
ENDBRANCH   4   9
ENDBRANCH   2   3
TORSDOF 3
ENDMDL
MODEL       64
REMARK 921   NORMALIZED FREE ENERGY PREDICTED BY IDOCK:   -4.06 KCAL/MOL
REMARK 922        TOTAL FREE ENERGY PREDICTED BY IDOCK:   -5.09 KCAL/MOL
REMARK 923 INTER-LIGAND FREE ENERGY PREDICTED BY IDOCK:   -4.74 KCAL/MOL
REMARK 924 INTRA-LIGAND FREE ENERGY PREDICTED BY IDOCK:   -0.35 KCAL/MOL
REMARK 927      BINDING AFFINITY PREDICTED BY RF-SCORE:    0.00 PKD
ROOT
HETATM    1  C   UNL     1     -10.521   4.245  74.449  1.00  0.00    -0.300 C  
HETATM    2  C   UNL     1     -10.526   5.602  73.756  1.00  0.00    -0.295 C  
ENDROOT
BRANCH   2   3
HETATM    3  C   UNL     1     -11.203   5.593  72.383  1.00  0.00    -0.336 C  
HETATM    4  C   UNL     1     -11.920   6.895  71.991  1.00  0.00    -0.342 C  
HETATM    5  C   UNL     1     -10.256   5.404  71.218  1.00  0.00    -0.223 C  
HETATM    6  C   UNL     1     -11.907   6.784  70.475  1.00  0.00    -0.362 C  
HETATM    7  O   UNL     1     -10.670   6.152  70.153  1.00  0.00    -0.248 OA 
HETATM    8  O   UNL     1      -9.284   4.668  71.182  1.00  0.00    -0.128 OA 
BRANCH   4   9
HETATM    9  C   UNL     1     -11.233   8.191  72.474  1.00  0.00    -0.459 C  
BRANCH   9  10
HETATM   10  C   UNL     1     -11.733   9.404  71.753  1.00  0.00    -0.374 A  
HETATM   11  C   UNL     1     -12.902  10.126  71.917  1.00  0.00    -0.427 A  
HETATM   12  N   UNL     1     -12.977  11.161  71.025  1.00  0.00    -0.304 NA 
HETATM   13  C   UNL     1     -11.862  11.102  70.335  1.00  0.00    -0.369 A  
HETATM   14  N   UNL     1     -11.072  10.068  70.747  1.00  0.00    -0.330 NA 
HETATM   15  C   UNL     1      -9.771   9.760  70.197  1.00  0.00    -0.248 C  
ENDBRANCH   9  10
ENDBRANCH   4   9
ENDBRANCH   2   3
TORSDOF 3
ENDMDL
MODEL       65
REMARK 921   NORMALIZED FREE ENERGY PREDICTED BY IDOCK:   -4.05 KCAL/MOL
REMARK 922        TOTAL FREE ENERGY PREDICTED BY IDOCK:   -5.08 KCAL/MOL
REMARK 923 INTER-LIGAND FREE ENERGY PREDICTED BY IDOCK:   -4.76 KCAL/MOL
REMARK 924 INTRA-LIGAND FREE ENERGY PREDICTED BY IDOCK:   -0.31 KCAL/MOL
REMARK 927      BINDING AFFINITY PREDICTED BY RF-SCORE:    0.00 PKD
ROOT
HETATM    1  C   UNL     1     -11.690   9.954  71.002  1.00  0.00    -0.466 C  
HETATM    2  C   UNL     1     -10.686  10.407  69.948  1.00  0.00    -0.331 C  
ENDROOT
BRANCH   2   3
HETATM    3  C   UNL     1     -10.532   9.430  68.780  1.00  0.00    -0.236 C  
HETATM    4  C   UNL     1     -10.830  10.012  67.388  1.00  0.00    -0.313 C  
HETATM    5  C   UNL     1      -9.131   8.891  68.593  1.00  0.00    -0.137 C  
HETATM    6  C   UNL     1     -10.025   9.070  66.506  1.00  0.00    -0.285 C  
HETATM    7  O   UNL     1      -8.859   8.749  67.262  1.00  0.00    -0.130 OA 
HETATM    8  O   UNL     1      -8.349   8.577  69.473  1.00  0.00    -0.114 OA 
BRANCH   4   9
HETATM    9  C   UNL     1     -10.402  11.483  67.189  1.00  0.00    -0.248 C  
BRANCH   9  10
HETATM   10  C   UNL     1     -11.360  12.243  66.328  1.00  0.00    -0.345 A  
HETATM   11  C   UNL     1     -11.811  11.987  65.045  1.00  0.00    -0.228 A  
HETATM   12  N   UNL     1     -12.672  12.960  64.615  1.00  0.00    -0.709 NA 
HETATM   13  C   UNL     1     -12.777  13.795  65.623  1.00  0.00    -0.478 A  
HETATM   14  N   UNL     1     -12.016  13.399  66.684  1.00  0.00    -0.397 NA 
HETATM   15  C   UNL     1     -11.942  14.097  67.948  1.00  0.00    -0.343 C  
ENDBRANCH   9  10
ENDBRANCH   4   9
ENDBRANCH   2   3
TORSDOF 3
ENDMDL
MODEL       66
REMARK 921   NORMALIZED FREE ENERGY PREDICTED BY IDOCK:   -4.04 KCAL/MOL
REMARK 922        TOTAL FREE ENERGY PREDICTED BY IDOCK:   -5.07 KCAL/MOL
REMARK 923 INTER-LIGAND FREE ENERGY PREDICTED BY IDOCK:   -4.64 KCAL/MOL
REMARK 924 INTRA-LIGAND FREE ENERGY PREDICTED BY IDOCK:   -0.43 KCAL/MOL
REMARK 927      BINDING AFFINITY PREDICTED BY RF-SCORE:    0.00 PKD
ROOT
HETATM    1  C   UNL     1     -11.138  15.665  70.776  1.00  0.00    -0.382 C  
HETATM    2  C   UNL     1     -11.497  16.206  69.398  1.00  0.00    -0.296 C  
ENDROOT
BRANCH   2   3
HETATM    3  C   UNL     1     -10.307  16.297  68.438  1.00  0.00    -0.271 C  
HETATM    4  C   UNL     1     -10.058  15.050  67.574  1.00  0.00    -0.228 C  
HETATM    5  C   UNL     1     -10.431  17.378  67.387  1.00  0.00    -0.336 C  
HETATM    6  C   UNL     1      -9.306  15.660  66.402  1.00  0.00    -0.300 C  
HETATM    7  O   UNL     1      -9.888  16.949  66.210  1.00  0.00    -0.277 OA 
HETATM    8  O   UNL     1     -10.898  18.493  67.541  1.00  0.00    -0.422 OA 
BRANCH   4   9
HETATM    9  C   UNL     1     -11.332  14.310  67.111  1.00  0.00    -0.352 C  
BRANCH   9  10
HETATM   10  C   UNL     1     -11.383  12.899  67.608  1.00  0.00    -0.303 A  
HETATM   11  C   UNL     1     -11.888  12.382  68.788  1.00  0.00    -0.311 A  
HETATM   12  N   UNL     1     -11.709  11.027  68.854  1.00  0.00    -0.318 NA 
HETATM   13  C   UNL     1     -11.128  10.701  67.724  1.00  0.00    -0.321 A  
HETATM   14  N   UNL     1     -10.924  11.793  66.932  1.00  0.00    -0.270 NA 
HETATM   15  C   UNL     1     -10.327  11.753  65.616  1.00  0.00    -0.252 C  
ENDBRANCH   9  10
ENDBRANCH   4   9
ENDBRANCH   2   3
TORSDOF 3
ENDMDL
MODEL       67
REMARK 921   NORMALIZED FREE ENERGY PREDICTED BY IDOCK:   -4.04 KCAL/MOL
REMARK 922        TOTAL FREE ENERGY PREDICTED BY IDOCK:   -5.07 KCAL/MOL
REMARK 923 INTER-LIGAND FREE ENERGY PREDICTED BY IDOCK:   -4.77 KCAL/MOL
REMARK 924 INTRA-LIGAND FREE ENERGY PREDICTED BY IDOCK:   -0.30 KCAL/MOL
REMARK 927      BINDING AFFINITY PREDICTED BY RF-SCORE:    0.00 PKD
ROOT
HETATM    1  C   UNL     1     -10.324  13.871  64.974  1.00  0.00    -0.418 C  
HETATM    2  C   UNL     1     -10.527  15.040  65.931  1.00  0.00    -0.341 C  
ENDROOT
BRANCH   2   3
HETATM    3  C   UNL     1     -10.191  14.712  67.389  1.00  0.00    -0.240 C  
HETATM    4  C   UNL     1      -9.686  15.894  68.232  1.00  0.00    -0.209 C  
HETATM    5  C   UNL     1     -11.367  14.231  68.210  1.00  0.00    -0.289 C  
HETATM    6  C   UNL     1     -10.044  15.421  69.632  1.00  0.00    -0.269 C  
HETATM    7  O   UNL     1     -11.271  14.707  69.486  1.00  0.00    -0.251 OA 
HETATM    8  O   UNL     1     -12.261  13.491  67.837  1.00  0.00    -0.305 OA 
BRANCH   4   9
HETATM    9  C   UNL     1     -10.338  17.256  67.907  1.00  0.00    -0.360 C  
BRANCH   9  10
HETATM   10  C   UNL     1      -9.336  18.364  67.831  1.00  0.00    -0.280 A  
HETATM   11  C   UNL     1      -8.141  18.541  68.505  1.00  0.00    -0.330 A  
HETATM   12  N   UNL     1      -7.539  19.718  68.152  1.00  0.00    -0.301 NA 
HETATM   13  C   UNL     1      -8.331  20.253  67.253  1.00  0.00    -0.347 A  
HETATM   14  N   UNL     1      -9.420  19.468  67.014  1.00  0.00    -0.322 NA 
HETATM   15  C   UNL     1     -10.461  19.775  66.058  1.00  0.00    -0.506 C  
ENDBRANCH   9  10
ENDBRANCH   4   9
ENDBRANCH   2   3
TORSDOF 3
ENDMDL
MODEL       68
REMARK 921   NORMALIZED FREE ENERGY PREDICTED BY IDOCK:   -4.01 KCAL/MOL
REMARK 922        TOTAL FREE ENERGY PREDICTED BY IDOCK:   -5.03 KCAL/MOL
REMARK 923 INTER-LIGAND FREE ENERGY PREDICTED BY IDOCK:   -4.76 KCAL/MOL
REMARK 924 INTRA-LIGAND FREE ENERGY PREDICTED BY IDOCK:   -0.27 KCAL/MOL
REMARK 927      BINDING AFFINITY PREDICTED BY RF-SCORE:    0.00 PKD
ROOT
HETATM    1  C   UNL     1      -9.400   7.781  66.635  1.00  0.00    -0.238 C  
HETATM    2  C   UNL     1     -10.180   9.053  66.947  1.00  0.00    -0.339 C  
ENDROOT
BRANCH   2   3
HETATM    3  C   UNL     1      -9.297  10.284  67.161  1.00  0.00    -0.175 C  
HETATM    4  C   UNL     1      -9.791  11.577  66.491  1.00  0.00    -0.228 C  
HETATM    5  C   UNL     1      -9.166  10.719  68.605  1.00  0.00    -0.184 C  
HETATM    6  C   UNL     1      -9.117  12.626  67.361  1.00  0.00    -0.191 C  
HETATM    7  O   UNL     1      -9.120  12.082  68.680  1.00  0.00    -0.137 OA 
HETATM    8  O   UNL     1      -9.069   9.991  69.578  1.00  0.00    -0.199 OA 
BRANCH   4   9
HETATM    9  C   UNL     1     -11.325  11.756  66.468  1.00  0.00    -0.370 C  
BRANCH   9  10
HETATM   10  C   UNL     1     -11.765  12.775  65.464  1.00  0.00    -0.395 A  
HETATM   11  C   UNL     1     -12.085  12.634  64.125  1.00  0.00    -0.439 A  
HETATM   12  N   UNL     1     -12.416  13.837  63.563  1.00  0.00    -0.813 NA 
HETATM   13  C   UNL     1     -12.331  14.708  64.541  1.00  0.00    -0.398 A  
HETATM   14  N   UNL     1     -11.956  14.114  65.710  1.00  0.00    -0.385 NA 
HETATM   15  C   UNL     1     -11.801  14.806  66.970  1.00  0.00    -0.271 C  
ENDBRANCH   9  10
ENDBRANCH   4   9
ENDBRANCH   2   3
TORSDOF 3
ENDMDL
MODEL       69
REMARK 921   NORMALIZED FREE ENERGY PREDICTED BY IDOCK:   -4.00 KCAL/MOL
REMARK 922        TOTAL FREE ENERGY PREDICTED BY IDOCK:   -5.02 KCAL/MOL
REMARK 923 INTER-LIGAND FREE ENERGY PREDICTED BY IDOCK:   -4.77 KCAL/MOL
REMARK 924 INTRA-LIGAND FREE ENERGY PREDICTED BY IDOCK:   -0.25 KCAL/MOL
REMARK 927      BINDING AFFINITY PREDICTED BY RF-SCORE:    0.00 PKD
ROOT
HETATM    1  C   UNL     1     -13.011   8.610  71.920  1.00  0.00    -0.409 C  
HETATM    2  C   UNL     1     -12.247   9.803  71.358  1.00  0.00    -0.486 C  
ENDROOT
BRANCH   2   3
HETATM    3  C   UNL     1     -11.119   9.418  70.396  1.00  0.00    -0.311 C  
HETATM    4  C   UNL     1     -10.927  10.357  69.194  1.00  0.00    -0.285 C  
HETATM    5  C   UNL     1      -9.738   9.427  71.014  1.00  0.00    -0.223 C  
HETATM    6  C   UNL     1      -9.470  10.090  68.852  1.00  0.00    -0.172 C  
HETATM    7  O   UNL     1      -8.823   9.872  70.105  1.00  0.00    -0.206 OA 
HETATM    8  O   UNL     1      -9.441   9.055  72.137  1.00  0.00    -0.340 OA 
BRANCH   4   9
HETATM    9  C   UNL     1     -11.179  11.853  69.486  1.00  0.00    -0.237 C  
BRANCH   9  10
HETATM   10  C   UNL     1     -11.508  12.628  68.248  1.00  0.00    -0.313 A  
HETATM   11  C   UNL     1     -11.570  12.223  66.927  1.00  0.00    -0.361 A  
HETATM   12  N   UNL     1     -11.887  13.267  66.100  1.00  0.00    -0.371 NA 
HETATM   13  C   UNL     1     -12.046  14.299  66.896  1.00  0.00    -0.409 A  
HETATM   14  N   UNL     1     -11.843  13.961  68.202  1.00  0.00    -0.358 NA 
HETATM   15  C   UNL     1     -11.971  14.874  69.315  1.00  0.00    -0.291 C  
ENDBRANCH   9  10
ENDBRANCH   4   9
ENDBRANCH   2   3
TORSDOF 3
ENDMDL
MODEL       70
REMARK 921   NORMALIZED FREE ENERGY PREDICTED BY IDOCK:   -4.00 KCAL/MOL
REMARK 922        TOTAL FREE ENERGY PREDICTED BY IDOCK:   -5.02 KCAL/MOL
REMARK 923 INTER-LIGAND FREE ENERGY PREDICTED BY IDOCK:   -4.65 KCAL/MOL
REMARK 924 INTRA-LIGAND FREE ENERGY PREDICTED BY IDOCK:   -0.37 KCAL/MOL
REMARK 927      BINDING AFFINITY PREDICTED BY RF-SCORE:    0.00 PKD
ROOT
HETATM    1  C   UNL     1      -7.890  10.001  68.553  1.00  0.00    -0.093 C  
HETATM    2  C   UNL     1      -8.645  10.894  67.577  1.00  0.00    -0.127 C  
ENDROOT
BRANCH   2   3
HETATM    3  C   UNL     1      -9.826  11.639  68.206  1.00  0.00    -0.199 C  
HETATM    4  C   UNL     1     -10.115  13.031  67.621  1.00  0.00    -0.217 C  
HETATM    5  C   UNL     1     -11.163  10.952  68.037  1.00  0.00    -0.314 C  
HETATM    6  C   UNL     1     -11.586  13.189  67.972  1.00  0.00    -0.334 C  
HETATM    7  O   UNL     1     -12.146  11.882  67.851  1.00  0.00    -0.558 OA 
HETATM    8  O   UNL     1     -11.378   9.754  68.097  1.00  0.00    -0.097 OA 
BRANCH   4   9
HETATM    9  C   UNL     1      -9.876  13.164  66.100  1.00  0.00    -0.284 C  
BRANCH   9  10
HETATM   10  C   UNL     1     -10.371  14.468  65.558  1.00  0.00    -0.359 A  
HETATM   11  C   UNL     1      -9.957  15.762  65.817  1.00  0.00    -0.358 A  
HETATM   12  N   UNL     1     -10.703  16.674  65.119  1.00  0.00    -0.646 NA 
HETATM   13  C   UNL     1     -11.550  15.958  64.416  1.00  0.00    -0.234 A  
HETATM   14  N   UNL     1     -11.379  14.622  64.634  1.00  0.00    -0.385 NA 
HETATM   15  C   UNL     1     -12.143  13.580  63.986  1.00  0.00    -0.441 C  
ENDBRANCH   9  10
ENDBRANCH   4   9
ENDBRANCH   2   3
TORSDOF 3
ENDMDL
MODEL       71
REMARK 921   NORMALIZED FREE ENERGY PREDICTED BY IDOCK:   -3.99 KCAL/MOL
REMARK 922        TOTAL FREE ENERGY PREDICTED BY IDOCK:   -5.00 KCAL/MOL
REMARK 923 INTER-LIGAND FREE ENERGY PREDICTED BY IDOCK:   -4.72 KCAL/MOL
REMARK 924 INTRA-LIGAND FREE ENERGY PREDICTED BY IDOCK:   -0.29 KCAL/MOL
REMARK 927      BINDING AFFINITY PREDICTED BY RF-SCORE:    0.00 PKD
ROOT
HETATM    1  C   UNL     1      -8.769   9.465  67.911  1.00  0.00    -0.120 C  
HETATM    2  C   UNL     1     -10.175   9.804  68.390  1.00  0.00    -0.210 C  
ENDROOT
BRANCH   2   3
HETATM    3  C   UNL     1     -10.304  11.209  68.984  1.00  0.00    -0.214 C  
HETATM    4  C   UNL     1     -10.826  12.288  68.021  1.00  0.00    -0.253 C  
HETATM    5  C   UNL     1     -11.289  11.319  70.128  1.00  0.00    -0.164 C  
HETATM    6  C   UNL     1     -11.399  13.297  69.004  1.00  0.00    -0.285 C  
HETATM    7  O   UNL     1     -11.939  12.518  70.071  1.00  0.00    -0.332 OA 
HETATM    8  O   UNL     1     -11.471  10.500  71.013  1.00  0.00    -0.300 OA 
BRANCH   4   9
HETATM    9  C   UNL     1     -11.892  11.805  67.013  1.00  0.00    -0.126 C  
BRANCH   9  10
HETATM   10  C   UNL     1     -11.998  12.704  65.821  1.00  0.00    -0.446 A  
HETATM   11  C   UNL     1     -12.614  13.935  65.679  1.00  0.00    -0.517 A  
HETATM   12  N   UNL     1     -12.494  14.407  64.399  1.00  0.00    -0.679 NA 
HETATM   13  C   UNL     1     -11.792  13.498  63.763  1.00  0.00    -0.381 A  
HETATM   14  N   UNL     1     -11.457  12.459  64.581  1.00  0.00    -0.319 NA 
HETATM   15  C   UNL     1     -10.666  11.319  64.178  1.00  0.00    -0.369 C  
ENDBRANCH   9  10
ENDBRANCH   4   9
ENDBRANCH   2   3
TORSDOF 3
ENDMDL
MODEL       72
REMARK 921   NORMALIZED FREE ENERGY PREDICTED BY IDOCK:   -3.97 KCAL/MOL
REMARK 922        TOTAL FREE ENERGY PREDICTED BY IDOCK:   -4.99 KCAL/MOL
REMARK 923 INTER-LIGAND FREE ENERGY PREDICTED BY IDOCK:   -4.66 KCAL/MOL
REMARK 924 INTRA-LIGAND FREE ENERGY PREDICTED BY IDOCK:   -0.33 KCAL/MOL
REMARK 927      BINDING AFFINITY PREDICTED BY RF-SCORE:    0.00 PKD
ROOT
HETATM    1  C   UNL     1     -10.638  18.106  67.630  1.00  0.00    -0.424 C  
HETATM    2  C   UNL     1     -10.151  16.676  67.432  1.00  0.00    -0.274 C  
ENDROOT
BRANCH   2   3
HETATM    3  C   UNL     1     -11.245  15.619  67.608  1.00  0.00    -0.274 C  
HETATM    4  C   UNL     1     -11.467  14.691  66.403  1.00  0.00    -0.348 C  
HETATM    5  C   UNL     1     -10.982  14.623  68.716  1.00  0.00    -0.258 C  
HETATM    6  C   UNL     1     -12.084  13.480  67.084  1.00  0.00    -0.340 C  
HETATM    7  O   UNL     1     -11.434  13.388  68.351  1.00  0.00    -0.273 OA 
HETATM    8  O   UNL     1     -10.485  14.859  69.804  1.00  0.00    -0.212 OA 
BRANCH   4   9
HETATM    9  C   UNL     1     -10.189  14.315  65.621  1.00  0.00    -0.366 C  
BRANCH   9  10
HETATM   10  C   UNL     1     -10.301  12.982  64.951  1.00  0.00    -0.324 A  
HETATM   11  C   UNL     1     -10.937  12.620  63.777  1.00  0.00    -0.435 A  
HETATM   12  N   UNL     1     -10.815  11.278  63.538  1.00  0.00    -0.359 NA 
HETATM   13  C   UNL     1     -10.092  10.816  64.532  1.00  0.00    -0.350 A  
HETATM   14  N   UNL     1      -9.745  11.808  65.402  1.00  0.00    -0.231 NA 
HETATM   15  C   UNL     1      -8.931  11.618  66.581  1.00  0.00    -0.189 C  
ENDBRANCH   9  10
ENDBRANCH   4   9
ENDBRANCH   2   3
TORSDOF 3
ENDMDL
MODEL       73
REMARK 921   NORMALIZED FREE ENERGY PREDICTED BY IDOCK:   -3.97 KCAL/MOL
REMARK 922        TOTAL FREE ENERGY PREDICTED BY IDOCK:   -4.99 KCAL/MOL
REMARK 923 INTER-LIGAND FREE ENERGY PREDICTED BY IDOCK:   -4.59 KCAL/MOL
REMARK 924 INTRA-LIGAND FREE ENERGY PREDICTED BY IDOCK:   -0.40 KCAL/MOL
REMARK 927      BINDING AFFINITY PREDICTED BY RF-SCORE:    0.00 PKD
ROOT
HETATM    1  C   UNL     1     -11.351  12.824  65.939  1.00  0.00    -0.363 C  
HETATM    2  C   UNL     1     -10.498  13.975  65.419  1.00  0.00    -0.365 C  
ENDROOT
BRANCH   2   3
HETATM    3  C   UNL     1     -10.873  15.338  66.007  1.00  0.00    -0.331 C  
HETATM    4  C   UNL     1      -9.809  15.984  66.909  1.00  0.00    -0.252 C  
HETATM    5  C   UNL     1     -11.102  16.423  64.979  1.00  0.00    -0.208 C  
HETATM    6  C   UNL     1     -10.188  17.451  66.794  1.00  0.00    -0.318 C  
HETATM    7  O   UNL     1     -10.643  17.619  65.452  1.00  0.00    -0.657 OA 
HETATM    8  O   UNL     1     -11.651  16.297  63.898  1.00  0.00    -0.987 OA 
BRANCH   4   9
HETATM    9  C   UNL     1      -8.347  15.737  66.475  1.00  0.00    -0.313 C  
BRANCH   9  10
HETATM   10  C   UNL     1      -7.440  15.490  67.640  1.00  0.00    -0.167 A  
HETATM   11  C   UNL     1      -6.682  16.372  68.389  1.00  0.00    -0.141 A  
HETATM   12  N   UNL     1      -5.970  15.719  69.358  1.00  0.00    -0.122 NA 
HETATM   13  C   UNL     1      -6.300  14.454  69.233  1.00  0.00    -0.115 A  
HETATM   14  N   UNL     1      -7.195  14.268  68.221  1.00  0.00    -0.105 NA 
HETATM   15  C   UNL     1      -7.767  12.991  67.855  1.00  0.00    -0.145 C  
ENDBRANCH   9  10
ENDBRANCH   4   9
ENDBRANCH   2   3
TORSDOF 3
ENDMDL
MODEL       74
REMARK 921   NORMALIZED FREE ENERGY PREDICTED BY IDOCK:   -3.97 KCAL/MOL
REMARK 922        TOTAL FREE ENERGY PREDICTED BY IDOCK:   -4.98 KCAL/MOL
REMARK 923 INTER-LIGAND FREE ENERGY PREDICTED BY IDOCK:   -4.73 KCAL/MOL
REMARK 924 INTRA-LIGAND FREE ENERGY PREDICTED BY IDOCK:   -0.25 KCAL/MOL
REMARK 927      BINDING AFFINITY PREDICTED BY RF-SCORE:    0.00 PKD
ROOT
HETATM    1  C   UNL     1     -10.808  11.222  64.824  1.00  0.00    -0.314 C  
HETATM    2  C   UNL     1     -10.437  11.716  66.217  1.00  0.00    -0.286 C  
ENDROOT
BRANCH   2   3
HETATM    3  C   UNL     1     -11.313  12.868  66.719  1.00  0.00    -0.367 C  
HETATM    4  C   UNL     1     -11.897  12.686  68.129  1.00  0.00    -0.366 C  
HETATM    5  C   UNL     1     -10.593  14.191  66.854  1.00  0.00    -0.280 C  
HETATM    6  C   UNL     1     -12.135  14.134  68.529  1.00  0.00    -0.277 C  
HETATM    7  O   UNL     1     -11.060  14.868  67.944  1.00  0.00    -0.276 OA 
HETATM    8  O   UNL     1      -9.749  14.641  66.098  1.00  0.00    -0.290 OA 
BRANCH   4   9
HETATM    9  C   UNL     1     -10.972  11.963  69.133  1.00  0.00    -0.251 C  
BRANCH   9  10
HETATM   10  C   UNL     1     -11.738  11.244  70.198  1.00  0.00    -0.343 A  
HETATM   11  C   UNL     1     -12.763  11.683  71.017  1.00  0.00    -0.298 A  
HETATM   12  N   UNL     1     -13.168  10.700  71.879  1.00  0.00    -0.462 NA 
HETATM   13  C   UNL     1     -12.427   9.657  71.584  1.00  0.00    -0.407 A  
HETATM   14  N   UNL     1     -11.560   9.931  70.567  1.00  0.00    -0.290 NA 
HETATM   15  C   UNL     1     -10.632   8.978  70.000  1.00  0.00    -0.228 C  
ENDBRANCH   9  10
ENDBRANCH   4   9
ENDBRANCH   2   3
TORSDOF 3
ENDMDL
MODEL       75
REMARK 921   NORMALIZED FREE ENERGY PREDICTED BY IDOCK:   -3.96 KCAL/MOL
REMARK 922        TOTAL FREE ENERGY PREDICTED BY IDOCK:   -4.97 KCAL/MOL
REMARK 923 INTER-LIGAND FREE ENERGY PREDICTED BY IDOCK:   -4.90 KCAL/MOL
REMARK 924 INTRA-LIGAND FREE ENERGY PREDICTED BY IDOCK:   -0.07 KCAL/MOL
REMARK 927      BINDING AFFINITY PREDICTED BY RF-SCORE:    0.00 PKD
ROOT
HETATM    1  C   UNL     1      -9.750   9.855  65.007  1.00  0.00    -0.359 C  
HETATM    2  C   UNL     1      -9.932  10.970  66.030  1.00  0.00    -0.285 C  
ENDROOT
BRANCH   2   3
HETATM    3  C   UNL     1     -11.136  11.874  65.753  1.00  0.00    -0.367 C  
HETATM    4  C   UNL     1     -11.446  12.913  66.843  1.00  0.00    -0.393 C  
HETATM    5  C   UNL     1     -10.996  12.749  64.527  1.00  0.00    -0.341 C  
HETATM    6  C   UNL     1     -12.199  13.959  66.036  1.00  0.00    -0.462 C  
HETATM    7  O   UNL     1     -11.576  13.964  64.752  1.00  0.00    -0.343 OA 
HETATM    8  O   UNL     1     -10.487  12.436  63.464  1.00  0.00    -0.435 OA 
BRANCH   4   9
HETATM    9  C   UNL     1     -10.208  13.516  67.543  1.00  0.00    -0.234 C  
BRANCH   9  10
HETATM   10  C   UNL     1     -10.448  14.914  68.020  1.00  0.00    -0.246 A  
HETATM   11  C   UNL     1     -11.097  15.376  69.152  1.00  0.00    -0.266 A  
HETATM   12  N   UNL     1     -11.112  16.744  69.193  1.00  0.00    -0.219 NA 
HETATM   13  C   UNL     1     -10.461  17.128  68.120  1.00  0.00    -0.366 A  
HETATM   14  N   UNL     1     -10.028  16.061  67.389  1.00  0.00    -0.238 NA 
HETATM   15  C   UNL     1      -9.260  16.160  66.168  1.00  0.00    -0.347 C  
ENDBRANCH   9  10
ENDBRANCH   4   9
ENDBRANCH   2   3
TORSDOF 3
ENDMDL
MODEL       76
REMARK 921   NORMALIZED FREE ENERGY PREDICTED BY IDOCK:   -3.94 KCAL/MOL
REMARK 922        TOTAL FREE ENERGY PREDICTED BY IDOCK:   -4.95 KCAL/MOL
REMARK 923 INTER-LIGAND FREE ENERGY PREDICTED BY IDOCK:   -4.59 KCAL/MOL
REMARK 924 INTRA-LIGAND FREE ENERGY PREDICTED BY IDOCK:   -0.36 KCAL/MOL
REMARK 927      BINDING AFFINITY PREDICTED BY RF-SCORE:    0.00 PKD
ROOT
HETATM    1  C   UNL     1      -9.708  18.032  67.994  1.00  0.00    -0.309 C  
HETATM    2  C   UNL     1     -10.598  16.809  67.808  1.00  0.00    -0.341 C  
ENDROOT
BRANCH   2   3
HETATM    3  C   UNL     1      -9.825  15.494  67.685  1.00  0.00    -0.213 C  
HETATM    4  C   UNL     1     -10.371  14.326  68.522  1.00  0.00    -0.244 C  
HETATM    5  C   UNL     1      -9.819  14.897  66.295  1.00  0.00    -0.294 C  
HETATM    6  C   UNL     1      -9.834  13.137  67.740  1.00  0.00    -0.228 C  
HETATM    7  O   UNL     1      -9.879  13.535  66.371  1.00  0.00    -0.281 OA 
HETATM    8  O   UNL     1      -9.729  15.506  65.242  1.00  0.00    -0.270 OA 
BRANCH   4   9
HETATM    9  C   UNL     1     -11.910  14.275  68.649  1.00  0.00    -0.379 C  
BRANCH   9  10
HETATM   10  C   UNL     1     -12.360  14.142  70.070  1.00  0.00    -0.344 A  
HETATM   11  C   UNL     1     -12.827  15.096  70.956  1.00  0.00    -0.412 A  
HETATM   12  N   UNL     1     -13.109  14.546  72.177  1.00  0.00    -0.333 NA 
HETATM   13  C   UNL     1     -12.848  13.266  72.046  1.00  0.00    -0.210 A  
HETATM   14  N   UNL     1     -12.408  12.970  70.790  1.00  0.00    -0.360 NA 
HETATM   15  C   UNL     1     -12.065  11.643  70.331  1.00  0.00    -0.373 C  
ENDBRANCH   9  10
ENDBRANCH   4   9
ENDBRANCH   2   3
TORSDOF 3
ENDMDL
MODEL       77
REMARK 921   NORMALIZED FREE ENERGY PREDICTED BY IDOCK:   -3.93 KCAL/MOL
REMARK 922        TOTAL FREE ENERGY PREDICTED BY IDOCK:   -4.94 KCAL/MOL
REMARK 923 INTER-LIGAND FREE ENERGY PREDICTED BY IDOCK:   -4.69 KCAL/MOL
REMARK 924 INTRA-LIGAND FREE ENERGY PREDICTED BY IDOCK:   -0.25 KCAL/MOL
REMARK 927      BINDING AFFINITY PREDICTED BY RF-SCORE:    0.00 PKD
ROOT
HETATM    1  C   UNL     1      -8.660   8.102  73.081  1.00  0.00    -0.299 C  
HETATM    2  C   UNL     1      -9.528   8.268  71.839  1.00  0.00    -0.287 C  
ENDROOT
BRANCH   2   3
HETATM    3  C   UNL     1     -11.006   8.521  72.147  1.00  0.00    -0.427 C  
HETATM    4  C   UNL     1     -11.661   9.660  71.349  1.00  0.00    -0.478 C  
HETATM    5  C   UNL     1     -11.921   7.359  71.827  1.00  0.00    -0.305 C  
HETATM    6  C   UNL     1     -13.123   9.247  71.407  1.00  0.00    -0.322 C  
HETATM    7  O   UNL     1     -13.115   7.821  71.352  1.00  0.00    -0.321 OA 
HETATM    8  O   UNL     1     -11.681   6.176  71.997  1.00  0.00    -0.312 OA 
BRANCH   4   9
HETATM    9  C   UNL     1     -11.169   9.807  69.893  1.00  0.00    -0.271 C  
BRANCH   9  10
HETATM   10  C   UNL     1     -11.485  11.152  69.317  1.00  0.00    -0.294 A  
HETATM   11  C   UNL     1     -12.014  12.281  69.914  1.00  0.00    -0.306 A  
HETATM   12  N   UNL     1     -12.167  13.298  69.011  1.00  0.00    -0.213 NA 
HETATM   13  C   UNL     1     -11.716  12.819  67.875  1.00  0.00    -0.357 A  
HETATM   14  N   UNL     1     -11.279  11.534  68.012  1.00  0.00    -0.246 NA 
HETATM   15  C   UNL     1     -10.704  10.745  66.946  1.00  0.00    -0.252 C  
ENDBRANCH   9  10
ENDBRANCH   4   9
ENDBRANCH   2   3
TORSDOF 3
ENDMDL
MODEL       78
REMARK 921   NORMALIZED FREE ENERGY PREDICTED BY IDOCK:   -3.92 KCAL/MOL
REMARK 922        TOTAL FREE ENERGY PREDICTED BY IDOCK:   -4.93 KCAL/MOL
REMARK 923 INTER-LIGAND FREE ENERGY PREDICTED BY IDOCK:   -4.55 KCAL/MOL
REMARK 924 INTRA-LIGAND FREE ENERGY PREDICTED BY IDOCK:   -0.38 KCAL/MOL
REMARK 927      BINDING AFFINITY PREDICTED BY RF-SCORE:    0.00 PKD
ROOT
HETATM    1  C   UNL     1     -14.208   8.615  71.927  1.00  0.00    -0.507 C  
HETATM    2  C   UNL     1     -12.727   8.918  72.120  1.00  0.00    -0.470 C  
ENDROOT
BRANCH   2   3
HETATM    3  C   UNL     1     -11.798   7.807  71.624  1.00  0.00    -0.321 C  
HETATM    4  C   UNL     1     -10.933   8.164  70.404  1.00  0.00    -0.248 C  
HETATM    5  C   UNL     1     -10.749   7.373  72.625  1.00  0.00    -0.288 C  
HETATM    6  C   UNL     1      -9.783   7.184  70.571  1.00  0.00    -0.176 C  
HETATM    7  O   UNL     1      -9.584   7.074  71.980  1.00  0.00    -0.141 OA 
HETATM    8  O   UNL     1     -10.898   7.252  73.829  1.00  0.00    -0.300 OA 
BRANCH   4   9
HETATM    9  C   UNL     1     -10.435   9.626  70.360  1.00  0.00    -0.352 C  
BRANCH   9  10
HETATM   10  C   UNL     1     -10.820  10.322  69.093  1.00  0.00    -0.233 A  
HETATM   11  C   UNL     1     -11.890  11.155  68.817  1.00  0.00    -0.320 A  
HETATM   12  N   UNL     1     -11.881  11.560  67.510  1.00  0.00    -0.631 NA 
HETATM   13  C   UNL     1     -10.810  11.010  66.987  1.00  0.00    -0.279 A  
HETATM   14  N   UNL     1     -10.129  10.267  67.905  1.00  0.00    -0.164 NA 
HETATM   15  C   UNL     1      -8.896   9.560  67.638  1.00  0.00    -0.118 C  
ENDBRANCH   9  10
ENDBRANCH   4   9
ENDBRANCH   2   3
TORSDOF 3
ENDMDL
MODEL       79
REMARK 921   NORMALIZED FREE ENERGY PREDICTED BY IDOCK:   -3.91 KCAL/MOL
REMARK 922        TOTAL FREE ENERGY PREDICTED BY IDOCK:   -4.91 KCAL/MOL
REMARK 923 INTER-LIGAND FREE ENERGY PREDICTED BY IDOCK:   -4.54 KCAL/MOL
REMARK 924 INTRA-LIGAND FREE ENERGY PREDICTED BY IDOCK:   -0.38 KCAL/MOL
REMARK 927      BINDING AFFINITY PREDICTED BY RF-SCORE:    0.00 PKD
ROOT
HETATM    1  C   UNL     1      -9.017   9.700  64.180  1.00  0.00    -0.269 C  
HETATM    2  C   UNL     1     -10.050  10.394  65.059  1.00  0.00    -0.379 C  
ENDROOT
BRANCH   2   3
HETATM    3  C   UNL     1      -9.715  10.359  66.553  1.00  0.00    -0.241 C  
HETATM    4  C   UNL     1     -10.031  11.647  67.331  1.00  0.00    -0.200 C  
HETATM    5  C   UNL     1     -10.487   9.327  67.345  1.00  0.00    -0.273 C  
HETATM    6  C   UNL     1     -10.183  11.099  68.741  1.00  0.00    -0.206 C  
HETATM    7  O   UNL     1     -10.784   9.815  68.585  1.00  0.00    -0.218 OA 
HETATM    8  O   UNL     1     -10.780   8.200  66.981  1.00  0.00    -0.321 OA 
BRANCH   4   9
HETATM    9  C   UNL     1     -11.301  12.395  66.871  1.00  0.00    -0.392 C  
BRANCH   9  10
HETATM   10  C   UNL     1     -10.999  13.762  66.344  1.00  0.00    -0.298 A  
HETATM   11  C   UNL     1     -10.576  14.168  65.091  1.00  0.00    -0.398 A  
HETATM   12  N   UNL     1     -10.392  15.523  65.041  1.00  0.00    -0.410 NA 
HETATM   13  C   UNL     1     -10.721  15.958  66.235  1.00  0.00    -0.261 A  
HETATM   14  N   UNL     1     -11.108  14.937  67.052  1.00  0.00    -0.331 NA 
HETATM   15  C   UNL     1     -11.552  15.101  68.418  1.00  0.00    -0.337 C  
ENDBRANCH   9  10
ENDBRANCH   4   9
ENDBRANCH   2   3
TORSDOF 3
ENDMDL
MODEL       80
REMARK 921   NORMALIZED FREE ENERGY PREDICTED BY IDOCK:   -3.91 KCAL/MOL
REMARK 922        TOTAL FREE ENERGY PREDICTED BY IDOCK:   -4.91 KCAL/MOL
REMARK 923 INTER-LIGAND FREE ENERGY PREDICTED BY IDOCK:   -4.56 KCAL/MOL
REMARK 924 INTRA-LIGAND FREE ENERGY PREDICTED BY IDOCK:   -0.35 KCAL/MOL
REMARK 927      BINDING AFFINITY PREDICTED BY RF-SCORE:    0.00 PKD
ROOT
HETATM    1  C   UNL     1     -10.927  19.506  67.105  1.00  0.00    -0.459 C  
HETATM    2  C   UNL     1      -9.420  19.659  66.937  1.00  0.00    -0.456 C  
ENDROOT
BRANCH   2   3
HETATM    3  C   UNL     1      -8.605  19.048  68.080  1.00  0.00    -0.337 C  
HETATM    4  C   UNL     1      -8.474  17.516  68.052  1.00  0.00    -0.242 C  
HETATM    5  C   UNL     1      -7.155  19.477  68.115  1.00  0.00    -0.284 C  
HETATM    6  C   UNL     1      -7.196  17.323  68.853  1.00  0.00    -0.243 C  
HETATM    7  O   UNL     1      -6.369  18.436  68.516  1.00  0.00    -0.205 OA 
HETATM    8  O   UNL     1      -6.720  20.590  67.873  1.00  0.00    -0.280 OA 
BRANCH   4   9
HETATM    9  C   UNL     1      -8.362  16.894  66.643  1.00  0.00    -0.289 C  
BRANCH   9  10
HETATM   10  C   UNL     1      -9.020  15.552  66.558  1.00  0.00    -0.312 A  
HETATM   11  C   UNL     1      -8.691  14.353  67.163  1.00  0.00    -0.226 A  
HETATM   12  N   UNL     1      -9.550  13.354  66.792  1.00  0.00    -0.256 NA 
HETATM   13  C   UNL     1     -10.417  13.928  65.990  1.00  0.00    -0.298 A  
HETATM   14  N   UNL     1     -10.148  15.256  65.829  1.00  0.00    -0.328 NA 
HETATM   15  C   UNL     1     -10.938  16.163  65.026  1.00  0.00    -0.344 C  
ENDBRANCH   9  10
ENDBRANCH   4   9
ENDBRANCH   2   3
TORSDOF 3
ENDMDL
MODEL       81
REMARK 921   NORMALIZED FREE ENERGY PREDICTED BY IDOCK:   -3.89 KCAL/MOL
REMARK 922        TOTAL FREE ENERGY PREDICTED BY IDOCK:   -4.90 KCAL/MOL
REMARK 923 INTER-LIGAND FREE ENERGY PREDICTED BY IDOCK:   -4.51 KCAL/MOL
REMARK 924 INTRA-LIGAND FREE ENERGY PREDICTED BY IDOCK:   -0.38 KCAL/MOL
REMARK 927      BINDING AFFINITY PREDICTED BY RF-SCORE:    0.00 PKD
ROOT
HETATM    1  C   UNL     1     -12.206  12.645  65.145  1.00  0.00    -0.539 C  
HETATM    2  C   UNL     1     -11.343  12.403  66.378  1.00  0.00    -0.392 C  
ENDROOT
BRANCH   2   3
HETATM    3  C   UNL     1     -11.989  12.867  67.686  1.00  0.00    -0.344 C  
HETATM    4  C   UNL     1     -11.761  11.948  68.898  1.00  0.00    -0.381 C  
HETATM    5  C   UNL     1     -11.474  14.191  68.206  1.00  0.00    -0.304 C  
HETATM    6  C   UNL     1     -11.949  12.931  70.042  1.00  0.00    -0.309 C  
HETATM    7  O   UNL     1     -11.416  14.167  69.570  1.00  0.00    -0.259 OA 
HETATM    8  O   UNL     1     -11.187  15.172  67.540  1.00  0.00    -0.318 OA 
BRANCH   4   9
HETATM    9  C   UNL     1     -10.374  11.270  68.952  1.00  0.00    -0.214 C  
BRANCH   9  10
HETATM   10  C   UNL     1     -10.467   9.777  68.899  1.00  0.00    -0.214 A  
HETATM   11  C   UNL     1     -10.348   8.909  67.829  1.00  0.00    -0.242 A  
HETATM   12  N   UNL     1     -10.528   7.610  68.219  1.00  0.00    -0.195 NA 
HETATM   13  C   UNL     1     -10.729   7.665  69.515  1.00  0.00    -0.209 A  
HETATM   14  N   UNL     1     -10.687   8.949  69.974  1.00  0.00    -0.226 NA 
HETATM   15  C   UNL     1     -10.847   9.331  71.359  1.00  0.00    -0.364 C  
ENDBRANCH   9  10
ENDBRANCH   4   9
ENDBRANCH   2   3
TORSDOF 3
ENDMDL
MODEL       82
REMARK 921   NORMALIZED FREE ENERGY PREDICTED BY IDOCK:   -3.89 KCAL/MOL
REMARK 922        TOTAL FREE ENERGY PREDICTED BY IDOCK:   -4.89 KCAL/MOL
REMARK 923 INTER-LIGAND FREE ENERGY PREDICTED BY IDOCK:   -5.00 KCAL/MOL
REMARK 924 INTRA-LIGAND FREE ENERGY PREDICTED BY IDOCK:    0.11 KCAL/MOL
REMARK 927      BINDING AFFINITY PREDICTED BY RF-SCORE:    0.00 PKD
ROOT
HETATM    1  C   UNL     1      -9.413  16.095  65.941  1.00  0.00    -0.337 C  
HETATM    2  C   UNL     1     -10.311  15.352  66.923  1.00  0.00    -0.277 C  
ENDROOT
BRANCH   2   3
HETATM    3  C   UNL     1     -10.616  13.909  66.513  1.00  0.00    -0.279 C  
HETATM    4  C   UNL     1     -10.830  12.923  67.673  1.00  0.00    -0.252 C  
HETATM    5  C   UNL     1     -11.897  13.737  65.726  1.00  0.00    -0.372 C  
HETATM    6  C   UNL     1     -11.674  11.858  66.992  1.00  0.00    -0.227 C  
HETATM    7  O   UNL     1     -12.505  12.565  66.073  1.00  0.00    -0.565 OA 
HETATM    8  O   UNL     1     -12.332  14.489  64.870  1.00  0.00    -0.419 OA 
BRANCH   4   9
HETATM    9  C   UNL     1     -11.546  13.513  68.909  1.00  0.00    -0.364 C  
BRANCH   9  10
HETATM   10  C   UNL     1     -11.911  12.464  69.911  1.00  0.00    -0.305 A  
HETATM   11  C   UNL     1     -11.502  11.147  70.020  1.00  0.00    -0.292 A  
HETATM   12  N   UNL     1     -12.103  10.524  71.081  1.00  0.00    -0.370 NA 
HETATM   13  C   UNL     1     -12.852  11.446  71.640  1.00  0.00    -0.391 A  
HETATM   14  N   UNL     1     -12.759  12.636  70.980  1.00  0.00    -0.291 NA 
HETATM   15  C   UNL     1     -13.446  13.847  71.370  1.00  0.00    -0.257 C  
ENDBRANCH   9  10
ENDBRANCH   4   9
ENDBRANCH   2   3
TORSDOF 3
ENDMDL
MODEL       83
REMARK 921   NORMALIZED FREE ENERGY PREDICTED BY IDOCK:   -3.88 KCAL/MOL
REMARK 922        TOTAL FREE ENERGY PREDICTED BY IDOCK:   -4.88 KCAL/MOL
REMARK 923 INTER-LIGAND FREE ENERGY PREDICTED BY IDOCK:   -4.53 KCAL/MOL
REMARK 924 INTRA-LIGAND FREE ENERGY PREDICTED BY IDOCK:   -0.35 KCAL/MOL
REMARK 927      BINDING AFFINITY PREDICTED BY RF-SCORE:    0.00 PKD
ROOT
HETATM    1  C   UNL     1     -11.262  15.532  64.774  1.00  0.00    -0.399 C  
HETATM    2  C   UNL     1     -10.131  16.116  65.610  1.00  0.00    -0.366 C  
ENDROOT
BRANCH   2   3
HETATM    3  C   UNL     1     -10.592  16.721  66.939  1.00  0.00    -0.219 C  
HETATM    4  C   UNL     1     -10.822  15.714  68.079  1.00  0.00    -0.308 C  
HETATM    5  C   UNL     1      -9.603  17.676  67.571  1.00  0.00    -0.267 C  
HETATM    6  C   UNL     1     -10.645  16.611  69.293  1.00  0.00    -0.343 C  
HETATM    7  O   UNL     1      -9.627  17.542  68.929  1.00  0.00    -0.279 OA 
HETATM    8  O   UNL     1      -8.906  18.490  66.990  1.00  0.00    -0.265 OA 
BRANCH   4   9
HETATM    9  C   UNL     1      -9.842  14.520  68.104  1.00  0.00    -0.223 C  
BRANCH   9  10
HETATM   10  C   UNL     1     -10.531  13.212  67.875  1.00  0.00    -0.240 A  
HETATM   11  C   UNL     1     -11.806  12.798  68.217  1.00  0.00    -0.312 A  
HETATM   12  N   UNL     1     -12.028  11.501  67.838  1.00  0.00    -0.641 NA 
HETATM   13  C   UNL     1     -10.919  11.122  67.246  1.00  0.00    -0.296 A  
HETATM   14  N   UNL     1      -9.992  12.123  67.230  1.00  0.00    -0.202 NA 
HETATM   15  C   UNL     1      -8.683  12.020  66.626  1.00  0.00    -0.171 C  
ENDBRANCH   9  10
ENDBRANCH   4   9
ENDBRANCH   2   3
TORSDOF 3
ENDMDL
MODEL       84
REMARK 921   NORMALIZED FREE ENERGY PREDICTED BY IDOCK:   -3.86 KCAL/MOL
REMARK 922        TOTAL FREE ENERGY PREDICTED BY IDOCK:   -4.86 KCAL/MOL
REMARK 923 INTER-LIGAND FREE ENERGY PREDICTED BY IDOCK:   -4.50 KCAL/MOL
REMARK 924 INTRA-LIGAND FREE ENERGY PREDICTED BY IDOCK:   -0.35 KCAL/MOL
REMARK 927      BINDING AFFINITY PREDICTED BY RF-SCORE:    0.00 PKD
ROOT
HETATM    1  C   UNL     1     -10.593  19.936  67.509  1.00  0.00    -0.492 C  
HETATM    2  C   UNL     1     -10.411  18.563  68.144  1.00  0.00    -0.391 C  
ENDROOT
BRANCH   2   3
HETATM    3  C   UNL     1     -10.408  17.410  67.137  1.00  0.00    -0.325 C  
HETATM    4  C   UNL     1      -9.094  17.209  66.366  1.00  0.00    -0.285 C  
HETATM    5  C   UNL     1     -10.616  16.042  67.749  1.00  0.00    -0.309 C  
HETATM    6  C   UNL     1      -9.206  15.741  65.986  1.00  0.00    -0.344 C  
HETATM    7  O   UNL     1      -9.861  15.115  67.088  1.00  0.00    -0.225 OA 
HETATM    8  O   UNL     1     -11.369  15.762  68.665  1.00  0.00    -0.328 OA 
BRANCH   4   9
HETATM    9  C   UNL     1      -7.810  17.491  67.177  1.00  0.00    -0.229 C  
BRANCH   9  10
HETATM   10  C   UNL     1      -7.209  18.822  66.850  1.00  0.00    -0.212 A  
HETATM   11  C   UNL     1      -6.899  19.389  65.627  1.00  0.00    -0.291 A  
HETATM   12  N   UNL     1      -6.335  20.627  65.780  1.00  0.00    -0.235 NA 
HETATM   13  C   UNL     1      -6.318  20.839  67.076  1.00  0.00    -0.272 A  
HETATM   14  N   UNL     1      -6.848  19.786  67.762  1.00  0.00    -0.237 NA 
HETATM   15  C   UNL     1      -6.992  19.731  69.200  1.00  0.00    -0.329 C  
ENDBRANCH   9  10
ENDBRANCH   4   9
ENDBRANCH   2   3
TORSDOF 3
ENDMDL
MODEL       85
REMARK 921   NORMALIZED FREE ENERGY PREDICTED BY IDOCK:   -3.85 KCAL/MOL
REMARK 922        TOTAL FREE ENERGY PREDICTED BY IDOCK:   -4.85 KCAL/MOL
REMARK 923 INTER-LIGAND FREE ENERGY PREDICTED BY IDOCK:   -4.58 KCAL/MOL
REMARK 924 INTRA-LIGAND FREE ENERGY PREDICTED BY IDOCK:   -0.27 KCAL/MOL
REMARK 927      BINDING AFFINITY PREDICTED BY RF-SCORE:    0.00 PKD
ROOT
HETATM    1  C   UNL     1      -7.167  12.559  68.563  1.00  0.00    -0.110 C  
HETATM    2  C   UNL     1      -8.205  11.576  68.036  1.00  0.00    -0.143 C  
ENDROOT
BRANCH   2   3
HETATM    3  C   UNL     1      -9.566  11.680  68.731  1.00  0.00    -0.083 C  
HETATM    4  C   UNL     1     -10.755  11.997  67.810  1.00  0.00    -0.243 C  
HETATM    5  C   UNL     1     -10.028  10.403  69.399  1.00  0.00    -0.218 C  
HETATM    6  C   UNL     1     -11.907  11.432  68.626  1.00  0.00    -0.310 C  
HETATM    7  O   UNL     1     -11.381  10.271  69.268  1.00  0.00    -0.229 OA 
HETATM    8  O   UNL     1      -9.334   9.609  70.010  1.00  0.00    -0.213 OA 
BRANCH   4   9
HETATM    9  C   UNL     1     -10.684  11.359  66.406  1.00  0.00    -0.325 C  
BRANCH   9  10
HETATM   10  C   UNL     1     -11.361  12.194  65.365  1.00  0.00    -0.338 A  
HETATM   11  C   UNL     1     -12.310  13.192  65.494  1.00  0.00    -0.474 A  
HETATM   12  N   UNL     1     -12.684  13.685  64.273  1.00  0.00    -0.650 NA 
HETATM   13  C   UNL     1     -11.961  13.024  63.399  1.00  0.00    -0.520 A  
HETATM   14  N   UNL     1     -11.137  12.124  64.009  1.00  0.00    -0.351 NA 
HETATM   15  C   UNL     1     -10.202  11.265  63.317  1.00  0.00    -0.368 C  
ENDBRANCH   9  10
ENDBRANCH   4   9
ENDBRANCH   2   3
TORSDOF 3
ENDMDL
MODEL       86
REMARK 921   NORMALIZED FREE ENERGY PREDICTED BY IDOCK:   -3.81 KCAL/MOL
REMARK 922        TOTAL FREE ENERGY PREDICTED BY IDOCK:   -4.80 KCAL/MOL
REMARK 923 INTER-LIGAND FREE ENERGY PREDICTED BY IDOCK:   -4.67 KCAL/MOL
REMARK 924 INTRA-LIGAND FREE ENERGY PREDICTED BY IDOCK:   -0.13 KCAL/MOL
REMARK 927      BINDING AFFINITY PREDICTED BY RF-SCORE:    0.00 PKD
ROOT
HETATM    1  C   UNL     1     -12.634  13.190  70.974  1.00  0.00    -0.397 C  
HETATM    2  C   UNL     1     -12.256  13.047  69.505  1.00  0.00    -0.198 C  
ENDROOT
BRANCH   2   3
HETATM    3  C   UNL     1     -11.048  13.892  69.092  1.00  0.00    -0.284 C  
HETATM    4  C   UNL     1     -10.475  13.588  67.698  1.00  0.00    -0.239 C  
HETATM    5  C   UNL     1     -11.324  15.376  68.991  1.00  0.00    -0.316 C  
HETATM    6  C   UNL     1      -9.789  14.906  67.376  1.00  0.00    -0.221 C  
HETATM    7  O   UNL     1     -10.619  15.914  67.953  1.00  0.00    -0.282 OA 
HETATM    8  O   UNL     1     -12.030  16.036  69.734  1.00  0.00    -0.297 OA 
BRANCH   4   9
HETATM    9  C   UNL     1     -11.523  13.215  66.627  1.00  0.00    -0.389 C  
BRANCH   9  10
HETATM   10  C   UNL     1     -11.027  12.163  65.685  1.00  0.00    -0.295 A  
HETATM   11  C   UNL     1     -10.256  11.039  65.922  1.00  0.00    -0.254 A  
HETATM   12  N   UNL     1     -10.006  10.353  64.764  1.00  0.00    -0.334 NA 
HETATM   13  C   UNL     1     -10.633  11.023  63.826  1.00  0.00    -0.295 A  
HETATM   14  N   UNL     1     -11.276  12.114  64.333  1.00  0.00    -0.324 NA 
HETATM   15  C   UNL     1     -12.073  13.034  63.553  1.00  0.00    -0.542 C  
ENDBRANCH   9  10
ENDBRANCH   4   9
ENDBRANCH   2   3
TORSDOF 3
ENDMDL
MODEL       87
REMARK 921   NORMALIZED FREE ENERGY PREDICTED BY IDOCK:   -3.79 KCAL/MOL
REMARK 922        TOTAL FREE ENERGY PREDICTED BY IDOCK:   -4.78 KCAL/MOL
REMARK 923 INTER-LIGAND FREE ENERGY PREDICTED BY IDOCK:   -4.39 KCAL/MOL
REMARK 924 INTRA-LIGAND FREE ENERGY PREDICTED BY IDOCK:   -0.39 KCAL/MOL
REMARK 927      BINDING AFFINITY PREDICTED BY RF-SCORE:    0.00 PKD
ROOT
HETATM    1  C   UNL     1      -9.778   9.908  65.331  1.00  0.00    -0.375 C  
HETATM    2  C   UNL     1      -9.587  10.274  66.798  1.00  0.00    -0.214 C  
ENDROOT
BRANCH   2   3
HETATM    3  C   UNL     1     -10.701  11.158  67.365  1.00  0.00    -0.294 C  
HETATM    4  C   UNL     1     -11.369  10.637  68.648  1.00  0.00    -0.345 C  
HETATM    5  C   UNL     1     -10.251  12.537  67.794  1.00  0.00    -0.217 C  
HETATM    6  C   UNL     1     -11.903  11.932  69.239  1.00  0.00    -0.318 C  
HETATM    7  O   UNL     1     -10.932  12.925  68.912  1.00  0.00    -0.243 OA 
HETATM    8  O   UNL     1      -9.438  13.246  67.226  1.00  0.00    -0.218 OA 
BRANCH   4   9
HETATM    9  C   UNL     1     -10.423   9.910  69.630  1.00  0.00    -0.273 C  
BRANCH   9  10
HETATM   10  C   UNL     1     -10.910   8.540  69.983  1.00  0.00    -0.223 A  
HETATM   11  C   UNL     1     -10.648   7.316  69.395  1.00  0.00    -0.229 A  
HETATM   12  N   UNL     1     -11.325   6.306  70.023  1.00  0.00    -0.410 NA 
HETATM   13  C   UNL     1     -11.976   6.887  71.003  1.00  0.00    -0.374 A  
HETATM   14  N   UNL     1     -11.747   8.231  71.030  1.00  0.00    -0.280 NA 
HETATM   15  C   UNL     1     -12.303   9.140  72.007  1.00  0.00    -0.377 C  
ENDBRANCH   9  10
ENDBRANCH   4   9
ENDBRANCH   2   3
TORSDOF 3
ENDMDL
MODEL       88
REMARK 921   NORMALIZED FREE ENERGY PREDICTED BY IDOCK:   -3.78 KCAL/MOL
REMARK 922        TOTAL FREE ENERGY PREDICTED BY IDOCK:   -4.77 KCAL/MOL
REMARK 923 INTER-LIGAND FREE ENERGY PREDICTED BY IDOCK:   -4.40 KCAL/MOL
REMARK 924 INTRA-LIGAND FREE ENERGY PREDICTED BY IDOCK:   -0.37 KCAL/MOL
REMARK 927      BINDING AFFINITY PREDICTED BY RF-SCORE:    0.00 PKD
ROOT
HETATM    1  C   UNL     1      -9.114  10.140  63.562  1.00  0.00    -0.302 C  
HETATM    2  C   UNL     1     -10.176  10.464  64.606  1.00  0.00    -0.305 C  
ENDROOT
BRANCH   2   3
HETATM    3  C   UNL     1      -9.629  10.580  66.031  1.00  0.00    -0.242 C  
HETATM    4  C   UNL     1      -9.880  11.927  66.727  1.00  0.00    -0.214 C  
HETATM    5  C   UNL     1     -10.237   9.608  67.018  1.00  0.00    -0.244 C  
HETATM    6  C   UNL     1      -9.805  11.513  68.188  1.00  0.00    -0.194 C  
HETATM    7  O   UNL     1     -10.371  10.205  68.239  1.00  0.00    -0.168 OA 
HETATM    8  O   UNL     1     -10.535   8.445  66.805  1.00  0.00    -0.314 OA 
BRANCH   4   9
HETATM    9  C   UNL     1     -11.232  12.595  66.393  1.00  0.00    -0.350 C  
BRANCH   9  10
HETATM   10  C   UNL     1     -11.063  13.950  65.781  1.00  0.00    -0.294 A  
HETATM   11  C   UNL     1     -10.433  15.081  66.266  1.00  0.00    -0.304 A  
HETATM   12  N   UNL     1     -10.533  16.125  65.386  1.00  0.00    -0.515 NA 
HETATM   13  C   UNL     1     -11.192  15.644  64.358  1.00  0.00    -0.236 A  
HETATM   14  N   UNL     1     -11.521  14.333  64.541  1.00  0.00    -0.371 NA 
HETATM   15  C   UNL     1     -12.226  13.520  63.576  1.00  0.00    -0.346 C  
ENDBRANCH   9  10
ENDBRANCH   4   9
ENDBRANCH   2   3
TORSDOF 3
ENDMDL
MODEL       89
REMARK 921   NORMALIZED FREE ENERGY PREDICTED BY IDOCK:   -3.76 KCAL/MOL
REMARK 922        TOTAL FREE ENERGY PREDICTED BY IDOCK:   -4.74 KCAL/MOL
REMARK 923 INTER-LIGAND FREE ENERGY PREDICTED BY IDOCK:   -4.42 KCAL/MOL
REMARK 924 INTRA-LIGAND FREE ENERGY PREDICTED BY IDOCK:   -0.31 KCAL/MOL
REMARK 927      BINDING AFFINITY PREDICTED BY RF-SCORE:    0.00 PKD
ROOT
HETATM    1  C   UNL     1     -10.440  13.492  65.314  1.00  0.00    -0.345 C  
HETATM    2  C   UNL     1     -10.873  14.660  66.192  1.00  0.00    -0.321 C  
ENDROOT
BRANCH   2   3
HETATM    3  C   UNL     1     -10.231  14.660  67.582  1.00  0.00    -0.232 C  
HETATM    4  C   UNL     1     -10.039  16.046  68.220  1.00  0.00    -0.229 C  
HETATM    5  C   UNL     1     -11.035  13.943  68.644  1.00  0.00    -0.261 C  
HETATM    6  C   UNL     1     -10.000  15.679  69.695  1.00  0.00    -0.289 C  
HETATM    7  O   UNL     1     -10.917  14.595  69.838  1.00  0.00    -0.236 OA 
HETATM    8  O   UNL     1     -11.669  12.911  68.505  1.00  0.00    -0.300 OA 
BRANCH   4   9
HETATM    9  C   UNL     1     -11.157  17.067  67.916  1.00  0.00    -0.125 C  
BRANCH   9  10
HETATM   10  C   UNL     1     -10.624  18.347  67.355  1.00  0.00    -0.413 A  
HETATM   11  C   UNL     1     -10.632  18.830  66.059  1.00  0.00    -0.386 A  
HETATM   12  N   UNL     1     -10.008  20.046  65.976  1.00  0.00    -0.470 NA 
HETATM   13  C   UNL     1      -9.642  20.328  67.204  1.00  0.00    -0.443 A  
HETATM   14  N   UNL     1     -10.004  19.342  68.074  1.00  0.00    -0.356 NA 
HETATM   15  C   UNL     1      -9.762  19.375  69.500  1.00  0.00    -0.018 C  
ENDBRANCH   9  10
ENDBRANCH   4   9
ENDBRANCH   2   3
TORSDOF 3
ENDMDL
MODEL       90
REMARK 921   NORMALIZED FREE ENERGY PREDICTED BY IDOCK:   -3.75 KCAL/MOL
REMARK 922        TOTAL FREE ENERGY PREDICTED BY IDOCK:   -4.73 KCAL/MOL
REMARK 923 INTER-LIGAND FREE ENERGY PREDICTED BY IDOCK:   -4.43 KCAL/MOL
REMARK 924 INTRA-LIGAND FREE ENERGY PREDICTED BY IDOCK:   -0.30 KCAL/MOL
REMARK 927      BINDING AFFINITY PREDICTED BY RF-SCORE:    0.00 PKD
ROOT
HETATM    1  C   UNL     1     -11.839  14.318  67.169  1.00  0.00    -0.454 C  
HETATM    2  C   UNL     1     -11.414  12.914  66.755  1.00  0.00    -0.391 C  
ENDROOT
BRANCH   2   3
HETATM    3  C   UNL     1     -10.983  12.805  65.290  1.00  0.00    -0.314 C  
HETATM    4  C   UNL     1      -9.820  11.838  65.014  1.00  0.00    -0.257 C  
HETATM    5  C   UNL     1     -12.051  12.271  64.360  1.00  0.00    -0.399 C  
HETATM    6  C   UNL     1     -10.065  11.506  63.550  1.00  0.00    -0.409 C  
HETATM    7  O   UNL     1     -11.484  11.482  63.401  1.00  0.00    -0.372 OA 
HETATM    8  O   UNL     1     -13.243  12.523  64.401  1.00  0.00    -0.782 OA 
BRANCH   4   9
HETATM    9  C   UNL     1      -9.804  10.567  65.891  1.00  0.00    -0.291 C  
BRANCH   9  10
HETATM   10  C   UNL     1      -8.758  10.625  66.960  1.00  0.00    -0.128 A  
HETATM   11  C   UNL     1      -7.409  10.918  66.879  1.00  0.00    -0.128 A  
HETATM   12  N   UNL     1      -6.807  10.834  68.106  1.00  0.00    -0.067 NA 
HETATM   13  C   UNL     1      -7.770  10.521  68.941  1.00  0.00    -0.117 A  
HETATM   14  N   UNL     1      -8.968  10.398  68.300  1.00  0.00    -0.132 NA 
HETATM   15  C   UNL     1     -10.220  10.086  68.953  1.00  0.00    -0.193 C  
ENDBRANCH   9  10
ENDBRANCH   4   9
ENDBRANCH   2   3
TORSDOF 3
ENDMDL
MODEL       91
REMARK 921   NORMALIZED FREE ENERGY PREDICTED BY IDOCK:   -3.74 KCAL/MOL
REMARK 922        TOTAL FREE ENERGY PREDICTED BY IDOCK:   -4.72 KCAL/MOL
REMARK 923 INTER-LIGAND FREE ENERGY PREDICTED BY IDOCK:   -4.39 KCAL/MOL
REMARK 924 INTRA-LIGAND FREE ENERGY PREDICTED BY IDOCK:   -0.33 KCAL/MOL
REMARK 927      BINDING AFFINITY PREDICTED BY RF-SCORE:    0.00 PKD
ROOT
HETATM    1  C   UNL     1     -10.184   5.503  68.792  1.00  0.00    -0.270 C  
HETATM    2  C   UNL     1     -11.115   6.158  69.806  1.00  0.00    -0.486 C  
ENDROOT
BRANCH   2   3
HETATM    3  C   UNL     1     -10.393   6.741  71.023  1.00  0.00    -0.228 C  
HETATM    4  C   UNL     1     -10.511   8.264  71.194  1.00  0.00    -0.254 C  
HETATM    5  C   UNL     1     -10.908   6.244  72.356  1.00  0.00    -0.243 C  
HETATM    6  C   UNL     1     -10.271   8.404  72.688  1.00  0.00    -0.249 C  
HETATM    7  O   UNL     1     -10.871   7.251  73.277  1.00  0.00    -0.350 OA 
HETATM    8  O   UNL     1     -11.269   5.109  72.619  1.00  0.00    -0.246 OA 
BRANCH   4   9
HETATM    9  C   UNL     1     -11.870   8.866  70.776  1.00  0.00    -0.230 C  
BRANCH   9  10
HETATM   10  C   UNL     1     -11.727  10.217  70.148  1.00  0.00    -0.284 A  
HETATM   11  C   UNL     1     -11.140  10.593  68.953  1.00  0.00    -0.261 A  
HETATM   12  N   UNL     1     -11.206  11.947  68.769  1.00  0.00    -0.238 NA 
HETATM   13  C   UNL     1     -11.847  12.406  69.819  1.00  0.00    -0.317 A  
HETATM   14  N   UNL     1     -12.195  11.400  70.672  1.00  0.00    -0.381 NA 
HETATM   15  C   UNL     1     -12.931  11.584  71.903  1.00  0.00    -0.348 C  
ENDBRANCH   9  10
ENDBRANCH   4   9
ENDBRANCH   2   3
TORSDOF 3
ENDMDL
MODEL       92
REMARK 921   NORMALIZED FREE ENERGY PREDICTED BY IDOCK:   -3.73 KCAL/MOL
REMARK 922        TOTAL FREE ENERGY PREDICTED BY IDOCK:   -4.71 KCAL/MOL
REMARK 923 INTER-LIGAND FREE ENERGY PREDICTED BY IDOCK:   -4.46 KCAL/MOL
REMARK 924 INTRA-LIGAND FREE ENERGY PREDICTED BY IDOCK:   -0.25 KCAL/MOL
REMARK 927      BINDING AFFINITY PREDICTED BY RF-SCORE:    0.00 PKD
ROOT
HETATM    1  C   UNL     1     -10.879  11.609  63.392  1.00  0.00    -0.453 C  
HETATM    2  C   UNL     1     -11.310  11.989  64.803  1.00  0.00    -0.369 C  
ENDROOT
BRANCH   2   3
HETATM    3  C   UNL     1     -10.172  11.959  65.827  1.00  0.00    -0.276 C  
HETATM    4  C   UNL     1      -9.990  13.245  66.649  1.00  0.00    -0.272 C  
HETATM    5  C   UNL     1     -10.335  10.921  66.916  1.00  0.00    -0.238 C  
HETATM    6  C   UNL     1      -9.293  12.699  67.885  1.00  0.00    -0.204 C  
HETATM    7  O   UNL     1      -9.863  11.409  68.101  1.00  0.00    -0.178 OA 
HETATM    8  O   UNL     1     -10.774   9.791  66.784  1.00  0.00    -0.170 OA 
BRANCH   4   9
HETATM    9  C   UNL     1     -11.299  13.981  67.013  1.00  0.00    -0.346 C  
BRANCH   9  10
HETATM   10  C   UNL     1     -11.066  15.141  67.928  1.00  0.00    -0.321 A  
HETATM   11  C   UNL     1     -11.271  15.265  69.290  1.00  0.00    -0.284 A  
HETATM   12  N   UNL     1     -10.947  16.519  69.731  1.00  0.00    -0.338 NA 
HETATM   13  C   UNL     1     -10.522  17.159  68.667  1.00  0.00    -0.366 A  
HETATM   14  N   UNL     1     -10.561  16.366  67.557  1.00  0.00    -0.312 NA 
HETATM   15  C   UNL     1     -10.133  16.777  66.239  1.00  0.00    -0.326 C  
ENDBRANCH   9  10
ENDBRANCH   4   9
ENDBRANCH   2   3
TORSDOF 3
ENDMDL
MODEL       93
REMARK 921   NORMALIZED FREE ENERGY PREDICTED BY IDOCK:   -3.71 KCAL/MOL
REMARK 922        TOTAL FREE ENERGY PREDICTED BY IDOCK:   -4.68 KCAL/MOL
REMARK 923 INTER-LIGAND FREE ENERGY PREDICTED BY IDOCK:   -4.72 KCAL/MOL
REMARK 924 INTRA-LIGAND FREE ENERGY PREDICTED BY IDOCK:    0.04 KCAL/MOL
REMARK 927      BINDING AFFINITY PREDICTED BY RF-SCORE:    0.00 PKD
ROOT
HETATM    1  C   UNL     1     -11.883  12.781  67.472  1.00  0.00    -0.402 C  
HETATM    2  C   UNL     1     -11.570  14.270  67.551  1.00  0.00    -0.390 C  
ENDROOT
BRANCH   2   3
HETATM    3  C   UNL     1     -10.474  14.724  66.584  1.00  0.00    -0.286 C  
HETATM    4  C   UNL     1     -10.317  16.246  66.431  1.00  0.00    -0.319 C  
HETATM    5  C   UNL     1      -9.074  14.311  66.982  1.00  0.00    -0.233 C  
HETATM    6  C   UNL     1      -8.872  16.340  65.967  1.00  0.00    -0.273 C  
HETATM    7  O   UNL     1      -8.186  15.296  66.657  1.00  0.00    -0.226 OA 
HETATM    8  O   UNL     1      -8.743  13.248  67.479  1.00  0.00    -0.178 OA 
BRANCH   4   9
HETATM    9  C   UNL     1     -10.554  17.061  67.722  1.00  0.00    -0.350 C  
BRANCH   9  10
HETATM   10  C   UNL     1      -9.619  18.223  67.843  1.00  0.00    -0.289 A  
HETATM   11  C   UNL     1      -8.515  18.404  68.657  1.00  0.00    -0.295 A  
HETATM   12  N   UNL     1      -7.953  19.637  68.466  1.00  0.00    -0.337 NA 
HETATM   13  C   UNL     1      -8.677  20.204  67.529  1.00  0.00    -0.336 A  
HETATM   14  N   UNL     1      -9.685  19.385  67.111  1.00  0.00    -0.319 NA 
HETATM   15  C   UNL     1     -10.635  19.717  66.073  1.00  0.00    -0.483 C  
ENDBRANCH   9  10
ENDBRANCH   4   9
ENDBRANCH   2   3
TORSDOF 3
ENDMDL
MODEL       94
REMARK 921   NORMALIZED FREE ENERGY PREDICTED BY IDOCK:   -3.71 KCAL/MOL
REMARK 922        TOTAL FREE ENERGY PREDICTED BY IDOCK:   -4.68 KCAL/MOL
REMARK 923 INTER-LIGAND FREE ENERGY PREDICTED BY IDOCK:   -4.56 KCAL/MOL
REMARK 924 INTRA-LIGAND FREE ENERGY PREDICTED BY IDOCK:   -0.12 KCAL/MOL
REMARK 927      BINDING AFFINITY PREDICTED BY RF-SCORE:    0.00 PKD
ROOT
HETATM    1  C   UNL     1      -8.827   8.798  66.102  1.00  0.00    -0.201 C  
HETATM    2  C   UNL     1      -8.639  10.001  65.186  1.00  0.00    -0.170 C  
ENDROOT
BRANCH   2   3
HETATM    3  C   UNL     1      -9.951  10.664  64.758  1.00  0.00    -0.391 C  
HETATM    4  C   UNL     1     -10.513  11.710  65.735  1.00  0.00    -0.308 C  
HETATM    5  C   UNL     1      -9.862  11.462  63.475  1.00  0.00    -0.375 C  
HETATM    6  C   UNL     1     -11.362  12.552  64.797  1.00  0.00    -0.313 C  
HETATM    7  O   UNL     1     -10.651  12.573  63.560  1.00  0.00    -0.432 OA 
HETATM    8  O   UNL     1      -9.227  11.166  62.477  1.00  0.00    -0.330 OA 
BRANCH   4   9
HETATM    9  C   UNL     1      -9.450  12.563  66.462  1.00  0.00    -0.240 C  
BRANCH   9  10
HETATM   10  C   UNL     1      -9.915  13.964  66.709  1.00  0.00    -0.269 A  
HETATM   11  C   UNL     1      -9.503  15.158  66.145  1.00  0.00    -0.319 A  
HETATM   12  N   UNL     1     -10.180  16.221  66.679  1.00  0.00    -0.276 NA 
HETATM   13  C   UNL     1     -11.020  15.696  67.541  1.00  0.00    -0.309 A  
HETATM   14  N   UNL     1     -10.908  14.337  67.584  1.00  0.00    -0.265 NA 
HETATM   15  C   UNL     1     -11.715  13.473  68.417  1.00  0.00    -0.358 C  
ENDBRANCH   9  10
ENDBRANCH   4   9
ENDBRANCH   2   3
TORSDOF 3
ENDMDL
MODEL       95
REMARK 921   NORMALIZED FREE ENERGY PREDICTED BY IDOCK:   -3.70 KCAL/MOL
REMARK 922        TOTAL FREE ENERGY PREDICTED BY IDOCK:   -4.67 KCAL/MOL
REMARK 923 INTER-LIGAND FREE ENERGY PREDICTED BY IDOCK:   -4.37 KCAL/MOL
REMARK 924 INTRA-LIGAND FREE ENERGY PREDICTED BY IDOCK:   -0.30 KCAL/MOL
REMARK 927      BINDING AFFINITY PREDICTED BY RF-SCORE:    0.00 PKD
ROOT
HETATM    1  C   UNL     1      -8.646  16.319  66.298  1.00  0.00    -0.374 C  
HETATM    2  C   UNL     1      -9.126  14.875  66.374  1.00  0.00    -0.293 C  
ENDROOT
BRANCH   2   3
HETATM    3  C   UNL     1     -10.516  14.651  65.771  1.00  0.00    -0.338 C  
HETATM    4  C   UNL     1     -10.738  13.279  65.115  1.00  0.00    -0.333 C  
HETATM    5  C   UNL     1     -11.649  14.698  66.773  1.00  0.00    -0.360 C  
HETATM    6  C   UNL     1     -12.251  13.161  65.205  1.00  0.00    -0.450 C  
HETATM    7  O   UNL     1     -12.606  13.783  66.438  1.00  0.00    -0.389 OA 
HETATM    8  O   UNL     1     -11.749  15.456  67.723  1.00  0.00    -0.297 OA 
BRANCH   4   9
HETATM    9  C   UNL     1     -10.032  12.097  65.814  1.00  0.00    -0.271 C  
BRANCH   9  10
HETATM   10  C   UNL     1      -9.474  11.108  64.838  1.00  0.00    -0.219 A  
HETATM   11  C   UNL     1      -9.878  10.789  63.555  1.00  0.00    -0.347 A  
HETATM   12  N   UNL     1      -9.099   9.801  63.017  1.00  0.00    -0.259 NA 
HETATM   13  C   UNL     1      -8.206   9.528  63.940  1.00  0.00    -0.161 A  
HETATM   14  N   UNL     1      -8.382  10.300  65.051  1.00  0.00    -0.164 NA 
HETATM   15  C   UNL     1      -7.542  10.250  66.227  1.00  0.00    -0.117 C  
ENDBRANCH   9  10
ENDBRANCH   4   9
ENDBRANCH   2   3
TORSDOF 3
ENDMDL
MODEL       96
REMARK 921   NORMALIZED FREE ENERGY PREDICTED BY IDOCK:   -3.69 KCAL/MOL
REMARK 922        TOTAL FREE ENERGY PREDICTED BY IDOCK:   -4.66 KCAL/MOL
REMARK 923 INTER-LIGAND FREE ENERGY PREDICTED BY IDOCK:   -4.29 KCAL/MOL
REMARK 924 INTRA-LIGAND FREE ENERGY PREDICTED BY IDOCK:   -0.36 KCAL/MOL
REMARK 927      BINDING AFFINITY PREDICTED BY RF-SCORE:    0.00 PKD
ROOT
HETATM    1  C   UNL     1     -10.613   4.494  72.687  1.00  0.00    -0.247 C  
HETATM    2  C   UNL     1      -9.895   5.370  71.668  1.00  0.00    -0.223 C  
ENDROOT
BRANCH   2   3
HETATM    3  C   UNL     1     -10.427   5.221  70.240  1.00  0.00    -0.332 C  
HETATM    4  C   UNL     1     -11.208   6.429  69.696  1.00  0.00    -0.483 C  
HETATM    5  C   UNL     1      -9.356   5.050  69.186  1.00  0.00    -0.122 C  
HETATM    6  C   UNL     1     -11.033   6.232  68.199  1.00  0.00    -0.323 C  
HETATM    7  O   UNL     1      -9.721   5.695  68.039  1.00  0.00    -0.117 OA 
HETATM    8  O   UNL     1      -8.327   4.403  69.291  1.00  0.00    -0.073 OA 
BRANCH   4   9
HETATM    9  C   UNL     1     -10.682   7.807  70.155  1.00  0.00    -0.242 C  
BRANCH   9  10
HETATM   10  C   UNL     1     -11.679   8.549  70.989  1.00  0.00    -0.275 A  
HETATM   11  C   UNL     1     -12.346   8.168  72.139  1.00  0.00    -0.338 A  
HETATM   12  N   UNL     1     -13.197   9.149  72.570  1.00  0.00    -0.441 NA 
HETATM   13  C   UNL     1     -13.044  10.136  71.718  1.00  0.00    -0.463 A  
HETATM   14  N   UNL     1     -12.128   9.828  70.755  1.00  0.00    -0.289 NA 
HETATM   15  C   UNL     1     -11.724  10.719  69.691  1.00  0.00    -0.323 C  
ENDBRANCH   9  10
ENDBRANCH   4   9
ENDBRANCH   2   3
TORSDOF 3
ENDMDL
MODEL       97
REMARK 921   NORMALIZED FREE ENERGY PREDICTED BY IDOCK:   -3.68 KCAL/MOL
REMARK 922        TOTAL FREE ENERGY PREDICTED BY IDOCK:   -4.65 KCAL/MOL
REMARK 923 INTER-LIGAND FREE ENERGY PREDICTED BY IDOCK:   -4.28 KCAL/MOL
REMARK 924 INTRA-LIGAND FREE ENERGY PREDICTED BY IDOCK:   -0.37 KCAL/MOL
REMARK 927      BINDING AFFINITY PREDICTED BY RF-SCORE:    0.00 PKD
ROOT
HETATM    1  C   UNL     1      -8.680  16.546  66.312  1.00  0.00    -0.369 C  
HETATM    2  C   UNL     1      -8.961  15.126  66.786  1.00  0.00    -0.293 C  
ENDROOT
BRANCH   2   3
HETATM    3  C   UNL     1     -10.287  14.554  66.277  1.00  0.00    -0.300 C  
HETATM    4  C   UNL     1     -10.290  13.043  65.994  1.00  0.00    -0.293 C  
HETATM    5  C   UNL     1     -11.441  14.686  67.246  1.00  0.00    -0.372 C  
HETATM    6  C   UNL     1     -11.771  12.729  66.130  1.00  0.00    -0.403 C  
HETATM    7  O   UNL     1     -12.245  13.585  67.168  1.00  0.00    -0.362 OA 
HETATM    8  O   UNL     1     -11.676  15.637  67.973  1.00  0.00    -0.306 OA 
BRANCH   4   9
HETATM    9  C   UNL     1      -9.437  12.195  66.964  1.00  0.00    -0.201 C  
BRANCH   9  10
HETATM   10  C   UNL     1      -9.701  10.729  66.821  1.00  0.00    -0.187 A  
HETATM   11  C   UNL     1      -9.294   9.835  65.847  1.00  0.00    -0.205 A  
HETATM   12  N   UNL     1      -9.782   8.579  66.087  1.00  0.00    -0.226 NA 
HETATM   13  C   UNL     1     -10.460   8.683  67.207  1.00  0.00    -0.289 A  
HETATM   14  N   UNL     1     -10.428   9.956  67.696  1.00  0.00    -0.227 NA 
HETATM   15  C   UNL     1     -11.059  10.379  68.926  1.00  0.00    -0.247 C  
ENDBRANCH   9  10
ENDBRANCH   4   9
ENDBRANCH   2   3
TORSDOF 3
ENDMDL
MODEL       98
REMARK 921   NORMALIZED FREE ENERGY PREDICTED BY IDOCK:   -3.68 KCAL/MOL
REMARK 922        TOTAL FREE ENERGY PREDICTED BY IDOCK:   -4.64 KCAL/MOL
REMARK 923 INTER-LIGAND FREE ENERGY PREDICTED BY IDOCK:   -4.28 KCAL/MOL
REMARK 924 INTRA-LIGAND FREE ENERGY PREDICTED BY IDOCK:   -0.36 KCAL/MOL
REMARK 927      BINDING AFFINITY PREDICTED BY RF-SCORE:    0.00 PKD
ROOT
HETATM    1  C   UNL     1     -11.436  11.586  68.406  1.00  0.00    -0.364 C  
HETATM    2  C   UNL     1     -11.440  11.460  69.925  1.00  0.00    -0.353 C  
ENDROOT
BRANCH   2   3
HETATM    3  C   UNL     1     -12.521  10.519  70.465  1.00  0.00    -0.433 C  
HETATM    4  C   UNL     1     -12.044   9.102  70.822  1.00  0.00    -0.200 C  
HETATM    5  C   UNL     1     -13.148  10.967  71.767  1.00  0.00    -0.449 C  
HETATM    6  C   UNL     1     -13.100   8.692  71.836  1.00  0.00    -0.373 C  
HETATM    7  O   UNL     1     -13.418   9.884  72.553  1.00  0.00    -0.316 OA 
HETATM    8  O   UNL     1     -13.428  12.111  72.084  1.00  0.00    -0.494 OA 
BRANCH   4   9
HETATM    9  C   UNL     1     -10.621   9.020  71.417  1.00  0.00    -0.393 C  
BRANCH   9  10
HETATM   10  C   UNL     1      -9.691   8.217  70.563  1.00  0.00    -0.171 A  
HETATM   11  C   UNL     1      -9.682   6.865  70.272  1.00  0.00    -0.172 A  
HETATM   12  N   UNL     1      -8.631   6.536  69.460  1.00  0.00    -0.134 NA 
HETATM   13  C   UNL     1      -8.010   7.669  69.226  1.00  0.00    -0.126 A  
HETATM   14  N   UNL     1      -8.620   8.714  69.857  1.00  0.00    -0.128 NA 
HETATM   15  C   UNL     1      -8.186  10.090  69.771  1.00  0.00    -0.178 C  
ENDBRANCH   9  10
ENDBRANCH   4   9
ENDBRANCH   2   3
TORSDOF 3
ENDMDL
MODEL       99
REMARK 921   NORMALIZED FREE ENERGY PREDICTED BY IDOCK:   -3.65 KCAL/MOL
REMARK 922        TOTAL FREE ENERGY PREDICTED BY IDOCK:   -4.61 KCAL/MOL
REMARK 923 INTER-LIGAND FREE ENERGY PREDICTED BY IDOCK:   -4.32 KCAL/MOL
REMARK 924 INTRA-LIGAND FREE ENERGY PREDICTED BY IDOCK:   -0.29 KCAL/MOL
REMARK 927      BINDING AFFINITY PREDICTED BY RF-SCORE:    0.00 PKD
ROOT
HETATM    1  C   UNL     1      -8.685   9.100  65.792  1.00  0.00    -0.192 C  
HETATM    2  C   UNL     1      -9.972   8.992  66.602  1.00  0.00    -0.349 C  
ENDROOT
BRANCH   2   3
HETATM    3  C   UNL     1      -9.767   9.139  68.112  1.00  0.00    -0.174 C  
HETATM    4  C   UNL     1     -10.271  10.458  68.721  1.00  0.00    -0.201 C  
HETATM    5  C   UNL     1     -10.504   8.116  68.947  1.00  0.00    -0.185 C  
HETATM    6  C   UNL     1     -10.493  10.039  70.166  1.00  0.00    -0.284 C  
HETATM    7  O   UNL     1     -10.954   8.690  70.101  1.00  0.00    -0.246 OA 
HETATM    8  O   UNL     1     -10.656   6.935  68.684  1.00  0.00    -0.205 OA 
BRANCH   4   9
HETATM    9  C   UNL     1     -11.562  11.021  68.086  1.00  0.00    -0.345 C  
BRANCH   9  10
HETATM   10  C   UNL     1     -11.588  12.517  68.078  1.00  0.00    -0.342 A  
HETATM   11  C   UNL     1     -11.429  13.422  69.112  1.00  0.00    -0.300 A  
HETATM   12  N   UNL     1     -11.550  14.711  68.669  1.00  0.00    -0.298 NA 
HETATM   13  C   UNL     1     -11.755  14.612  67.376  1.00  0.00    -0.390 A  
HETATM   14  N   UNL     1     -11.771  13.310  66.970  1.00  0.00    -0.368 NA 
HETATM   15  C   UNL     1     -11.949  12.879  65.601  1.00  0.00    -0.440 C  
ENDBRANCH   9  10
ENDBRANCH   4   9
ENDBRANCH   2   3
TORSDOF 3
ENDMDL
MODEL      100
REMARK 921   NORMALIZED FREE ENERGY PREDICTED BY IDOCK:   -3.64 KCAL/MOL
REMARK 922        TOTAL FREE ENERGY PREDICTED BY IDOCK:   -4.60 KCAL/MOL
REMARK 923 INTER-LIGAND FREE ENERGY PREDICTED BY IDOCK:   -4.33 KCAL/MOL
REMARK 924 INTRA-LIGAND FREE ENERGY PREDICTED BY IDOCK:   -0.27 KCAL/MOL
REMARK 927      BINDING AFFINITY PREDICTED BY RF-SCORE:    0.00 PKD
ROOT
HETATM    1  C   UNL     1      -6.303  15.574  68.377  1.00  0.00    -0.109 C  
HETATM    2  C   UNL     1      -7.473  16.474  67.997  1.00  0.00    -0.162 C  
ENDROOT
BRANCH   2   3
HETATM    3  C   UNL     1      -8.068  16.167  66.620  1.00  0.00    -0.323 C  
HETATM    4  C   UNL     1      -8.963  14.919  66.551  1.00  0.00    -0.288 C  
HETATM    5  C   UNL     1      -8.994  17.237  66.084  1.00  0.00    -0.154 C  
HETATM    6  C   UNL     1      -9.824  15.250  65.342  1.00  0.00    -0.283 C  
HETATM    7  O   UNL     1     -10.025  16.662  65.398  1.00  0.00    -0.565 OA 
HETATM    8  O   UNL     1      -8.851  18.443  66.190  1.00  0.00    -0.463 OA 
BRANCH   4   9
HETATM    9  C   UNL     1      -9.822  14.659  67.808  1.00  0.00    -0.216 C  
BRANCH   9  10
HETATM   10  C   UNL     1     -10.560  13.360  67.736  1.00  0.00    -0.245 A  
HETATM   11  C   UNL     1     -11.876  13.092  67.402  1.00  0.00    -0.361 A  
HETATM   12  N   UNL     1     -12.150  11.754  67.488  1.00  0.00    -0.550 NA 
HETATM   13  C   UNL     1     -11.017  11.194  67.843  1.00  0.00    -0.253 A  
HETATM   14  N   UNL     1     -10.025  12.118  67.991  1.00  0.00    -0.197 NA 
HETATM   15  C   UNL     1      -8.660  11.807  68.350  1.00  0.00    -0.156 C  
ENDBRANCH   9  10
ENDBRANCH   4   9
ENDBRANCH   2   3
TORSDOF 3
ENDMDL
MODEL      101
REMARK 921   NORMALIZED FREE ENERGY PREDICTED BY IDOCK:   -3.64 KCAL/MOL
REMARK 922        TOTAL FREE ENERGY PREDICTED BY IDOCK:   -4.59 KCAL/MOL
REMARK 923 INTER-LIGAND FREE ENERGY PREDICTED BY IDOCK:   -4.49 KCAL/MOL
REMARK 924 INTRA-LIGAND FREE ENERGY PREDICTED BY IDOCK:   -0.11 KCAL/MOL
REMARK 927      BINDING AFFINITY PREDICTED BY RF-SCORE:    0.00 PKD
ROOT
HETATM    1  C   UNL     1      -7.876   9.649  68.210  1.00  0.00    -0.085 C  
HETATM    2  C   UNL     1      -8.421  10.878  67.492  1.00  0.00    -0.123 C  
ENDROOT
BRANCH   2   3
HETATM    3  C   UNL     1      -9.742  11.396  68.066  1.00  0.00    -0.190 C  
HETATM    4  C   UNL     1     -10.160  12.800  67.598  1.00  0.00    -0.220 C  
HETATM    5  C   UNL     1     -10.955  10.575  67.690  1.00  0.00    -0.314 C  
HETATM    6  C   UNL     1     -11.664  12.735  67.808  1.00  0.00    -0.359 C  
HETATM    7  O   UNL     1     -12.032  11.392  67.497  1.00  0.00    -0.626 OA 
HETATM    8  O   UNL     1     -11.014   9.360  67.605  1.00  0.00    -0.223 OA 
BRANCH   4   9
HETATM    9  C   UNL     1      -9.804  13.134  66.132  1.00  0.00    -0.284 C  
BRANCH   9  10
HETATM   10  C   UNL     1     -10.089  14.562  65.787  1.00  0.00    -0.342 A  
HETATM   11  C   UNL     1     -11.099  15.115  65.021  1.00  0.00    -0.419 A  
HETATM   12  N   UNL     1     -10.975  16.475  64.939  1.00  0.00    -0.639 NA 
HETATM   13  C   UNL     1      -9.921  16.768  65.665  1.00  0.00    -0.134 A  
HETATM   14  N   UNL     1      -9.361  15.650  66.209  1.00  0.00    -0.295 NA 
HETATM   15  C   UNL     1      -8.205  15.650  67.077  1.00  0.00    -0.233 C  
ENDBRANCH   9  10
ENDBRANCH   4   9
ENDBRANCH   2   3
TORSDOF 3
ENDMDL
MODEL      102
REMARK 921   NORMALIZED FREE ENERGY PREDICTED BY IDOCK:   -3.61 KCAL/MOL
REMARK 922        TOTAL FREE ENERGY PREDICTED BY IDOCK:   -4.56 KCAL/MOL
REMARK 923 INTER-LIGAND FREE ENERGY PREDICTED BY IDOCK:   -4.23 KCAL/MOL
REMARK 924 INTRA-LIGAND FREE ENERGY PREDICTED BY IDOCK:   -0.34 KCAL/MOL
REMARK 927      BINDING AFFINITY PREDICTED BY RF-SCORE:    0.00 PKD
ROOT
HETATM    1  C   UNL     1     -12.201  14.244  71.067  1.00  0.00    -0.428 C  
HETATM    2  C   UNL     1     -12.082  13.789  69.618  1.00  0.00    -0.392 C  
ENDROOT
BRANCH   2   3
HETATM    3  C   UNL     1     -10.783  14.226  68.936  1.00  0.00    -0.268 C  
HETATM    4  C   UNL     1     -10.180  13.210  67.952  1.00  0.00    -0.233 C  
HETATM    5  C   UNL     1     -10.915  15.455  68.064  1.00  0.00    -0.307 C  
HETATM    6  C   UNL     1      -9.360  14.129  67.060  1.00  0.00    -0.246 C  
HETATM    7  O   UNL     1     -10.117  15.335  66.963  1.00  0.00    -0.243 OA 
HETATM    8  O   UNL     1     -11.587  16.445  68.299  1.00  0.00    -0.255 OA 
BRANCH   4   9
HETATM    9  C   UNL     1     -11.210  12.397  67.138  1.00  0.00    -0.353 C  
BRANCH   9  10
HETATM   10  C   UNL     1     -10.788  10.974  66.944  1.00  0.00    -0.269 A  
HETATM   11  C   UNL     1     -10.234  10.346  65.843  1.00  0.00    -0.234 A  
HETATM   12  N   UNL     1     -10.021   9.015  66.084  1.00  0.00    -0.284 NA 
HETATM   13  C   UNL     1     -10.410   8.824  67.323  1.00  0.00    -0.290 A  
HETATM   14  N   UNL     1     -10.867   9.978  67.889  1.00  0.00    -0.270 NA 
HETATM   15  C   UNL     1     -11.341  10.094  69.250  1.00  0.00    -0.156 C  
ENDBRANCH   9  10
ENDBRANCH   4   9
ENDBRANCH   2   3
TORSDOF 3
ENDMDL
MODEL      103
REMARK 921   NORMALIZED FREE ENERGY PREDICTED BY IDOCK:   -3.60 KCAL/MOL
REMARK 922        TOTAL FREE ENERGY PREDICTED BY IDOCK:   -4.56 KCAL/MOL
REMARK 923 INTER-LIGAND FREE ENERGY PREDICTED BY IDOCK:   -4.21 KCAL/MOL
REMARK 924 INTRA-LIGAND FREE ENERGY PREDICTED BY IDOCK:   -0.35 KCAL/MOL
REMARK 927      BINDING AFFINITY PREDICTED BY RF-SCORE:    0.00 PKD
ROOT
HETATM    1  C   UNL     1     -12.312  14.082  65.686  1.00  0.00    -0.502 C  
HETATM    2  C   UNL     1     -12.016  12.642  66.084  1.00  0.00    -0.458 C  
ENDROOT
BRANCH   2   3
HETATM    3  C   UNL     1     -10.683  12.112  65.547  1.00  0.00    -0.321 C  
HETATM    4  C   UNL     1     -10.013  11.023  66.400  1.00  0.00    -0.264 C  
HETATM    5  C   UNL     1     -10.776  11.430  64.200  1.00  0.00    -0.371 C  
HETATM    6  C   UNL     1      -9.152  10.331  65.356  1.00  0.00    -0.185 C  
HETATM    7  O   UNL     1      -9.913  10.373  64.150  1.00  0.00    -0.328 OA 
HETATM    8  O   UNL     1     -11.472  11.772  63.258  1.00  0.00    -0.359 OA 
BRANCH   4   9
HETATM    9  C   UNL     1     -10.985  10.036  67.082  1.00  0.00    -0.177 C  
BRANCH   9  10
HETATM   10  C   UNL     1     -10.532   9.645  68.454  1.00  0.00    -0.223 A  
HETATM   11  C   UNL     1     -10.689  10.290  69.668  1.00  0.00    -0.264 A  
HETATM   12  N   UNL     1     -10.093   9.593  70.684  1.00  0.00    -0.280 NA 
HETATM   13  C   UNL     1      -9.597   8.518  70.117  1.00  0.00    -0.169 A  
HETATM   14  N   UNL     1      -9.848   8.496  68.777  1.00  0.00    -0.168 NA 
HETATM   15  C   UNL     1      -9.451   7.431  67.884  1.00  0.00    -0.140 C  
ENDBRANCH   9  10
ENDBRANCH   4   9
ENDBRANCH   2   3
TORSDOF 3
ENDMDL
MODEL      104
REMARK 921   NORMALIZED FREE ENERGY PREDICTED BY IDOCK:   -3.59 KCAL/MOL
REMARK 922        TOTAL FREE ENERGY PREDICTED BY IDOCK:   -4.54 KCAL/MOL
REMARK 923 INTER-LIGAND FREE ENERGY PREDICTED BY IDOCK:   -4.17 KCAL/MOL
REMARK 924 INTRA-LIGAND FREE ENERGY PREDICTED BY IDOCK:   -0.37 KCAL/MOL
REMARK 927      BINDING AFFINITY PREDICTED BY RF-SCORE:    0.00 PKD
ROOT
HETATM    1  C   UNL     1     -10.466  10.218  66.714  1.00  0.00    -0.279 C  
HETATM    2  C   UNL     1     -10.325  11.288  67.788  1.00  0.00    -0.208 C  
ENDROOT
BRANCH   2   3
HETATM    3  C   UNL     1     -11.605  11.530  68.593  1.00  0.00    -0.375 C  
HETATM    4  C   UNL     1     -11.870  10.527  69.728  1.00  0.00    -0.329 C  
HETATM    5  C   UNL     1     -11.640  12.848  69.336  1.00  0.00    -0.302 C  
HETATM    6  C   UNL     1     -12.762  11.355  70.639  1.00  0.00    -0.195 C  
HETATM    7  O   UNL     1     -12.270  12.691  70.537  1.00  0.00    -0.365 OA 
HETATM    8  O   UNL     1     -11.220  13.920  68.935  1.00  0.00    -0.246 OA 
BRANCH   4   9
HETATM    9  C   UNL     1     -10.610  10.026  70.467  1.00  0.00    -0.313 C  
BRANCH   9  10
HETATM   10  C   UNL     1     -10.788   8.652  71.032  1.00  0.00    -0.247 A  
HETATM   11  C   UNL     1     -11.202   8.245  72.287  1.00  0.00    -0.374 A  
HETATM   12  N   UNL     1     -11.201   6.881  72.395  1.00  0.00    -0.258 NA 
HETATM   13  C   UNL     1     -10.819   6.444  71.217  1.00  0.00    -0.257 A  
HETATM   14  N   UNL     1     -10.572   7.473  70.357  1.00  0.00    -0.224 NA 
HETATM   15  C   UNL     1     -10.161   7.312  68.980  1.00  0.00    -0.197 C  
ENDBRANCH   9  10
ENDBRANCH   4   9
ENDBRANCH   2   3
TORSDOF 3
ENDMDL
MODEL      105
REMARK 921   NORMALIZED FREE ENERGY PREDICTED BY IDOCK:   -3.59 KCAL/MOL
REMARK 922        TOTAL FREE ENERGY PREDICTED BY IDOCK:   -4.54 KCAL/MOL
REMARK 923 INTER-LIGAND FREE ENERGY PREDICTED BY IDOCK:   -4.29 KCAL/MOL
REMARK 924 INTRA-LIGAND FREE ENERGY PREDICTED BY IDOCK:   -0.24 KCAL/MOL
REMARK 927      BINDING AFFINITY PREDICTED BY RF-SCORE:    0.00 PKD
ROOT
HETATM    1  C   UNL     1     -10.384  11.181  63.514  1.00  0.00    -0.446 C  
HETATM    2  C   UNL     1     -11.106  11.159  64.856  1.00  0.00    -0.118 C  
ENDROOT
BRANCH   2   3
HETATM    3  C   UNL     1     -10.167  11.202  66.065  1.00  0.00    -0.300 C  
HETATM    4  C   UNL     1     -10.314  12.434  66.972  1.00  0.00    -0.235 C  
HETATM    5  C   UNL     1     -10.363  10.072  67.051  1.00  0.00    -0.243 C  
HETATM    6  C   UNL     1      -9.766  11.892  68.283  1.00  0.00    -0.200 C  
HETATM    7  O   UNL     1     -10.175  10.525  68.325  1.00  0.00    -0.153 OA 
HETATM    8  O   UNL     1     -10.607   8.907  66.784  1.00  0.00    -0.243 OA 
BRANCH   4   9
HETATM    9  C   UNL     1     -11.757  12.961  67.132  1.00  0.00    -0.437 C  
BRANCH   9  10
HETATM   10  C   UNL     1     -11.873  13.983  68.219  1.00  0.00    -0.371 A  
HETATM   11  C   UNL     1     -12.401  13.880  69.493  1.00  0.00    -0.227 A  
HETATM   12  N   UNL     1     -12.331  15.074  70.160  1.00  0.00    -0.335 NA 
HETATM   13  C   UNL     1     -11.745  15.899  69.325  1.00  0.00    -0.353 A  
HETATM   14  N   UNL     1     -11.436  15.285  68.146  1.00  0.00    -0.340 NA 
HETATM   15  C   UNL     1     -10.763  15.925  67.039  1.00  0.00    -0.292 C  
ENDBRANCH   9  10
ENDBRANCH   4   9
ENDBRANCH   2   3
TORSDOF 3
ENDMDL
MODEL      106
REMARK 921   NORMALIZED FREE ENERGY PREDICTED BY IDOCK:   -3.57 KCAL/MOL
REMARK 922        TOTAL FREE ENERGY PREDICTED BY IDOCK:   -4.51 KCAL/MOL
REMARK 923 INTER-LIGAND FREE ENERGY PREDICTED BY IDOCK:   -4.16 KCAL/MOL
REMARK 924 INTRA-LIGAND FREE ENERGY PREDICTED BY IDOCK:   -0.35 KCAL/MOL
REMARK 927      BINDING AFFINITY PREDICTED BY RF-SCORE:    0.00 PKD
ROOT
HETATM    1  C   UNL     1     -11.307  11.200  68.793  1.00  0.00    -0.342 C  
HETATM    2  C   UNL     1     -10.910  10.450  70.058  1.00  0.00    -0.348 C  
ENDROOT
BRANCH   2   3
HETATM    3  C   UNL     1     -12.024   9.571  70.632  1.00  0.00    -0.266 C  
HETATM    4  C   UNL     1     -11.555   8.297  71.355  1.00  0.00    -0.322 C  
HETATM    5  C   UNL     1     -12.861  10.238  71.702  1.00  0.00    -0.463 C  
HETATM    6  C   UNL     1     -12.738   8.037  72.273  1.00  0.00    -0.207 C  
HETATM    7  O   UNL     1     -13.208   9.328  72.659  1.00  0.00    -0.414 OA 
HETATM    8  O   UNL     1     -13.229  11.400  71.718  1.00  0.00    -0.458 OA 
BRANCH   4   9
HETATM    9  C   UNL     1     -10.239   8.443  72.149  1.00  0.00    -0.390 C  
BRANCH   9  10
HETATM   10  C   UNL     1      -9.460   7.166  72.201  1.00  0.00    -0.135 A  
HETATM   11  C   UNL     1      -8.552   6.632  71.304  1.00  0.00    -0.126 A  
HETATM   12  N   UNL     1      -8.085   5.418  71.730  1.00  0.00    -0.116 NA 
HETATM   13  C   UNL     1      -8.672   5.211  72.886  1.00  0.00    -0.118 A  
HETATM   14  N   UNL     1      -9.499   6.243  73.220  1.00  0.00    -0.138 NA 
HETATM   15  C   UNL     1     -10.265   6.319  74.444  1.00  0.00    -0.321 C  
ENDBRANCH   9  10
ENDBRANCH   4   9
ENDBRANCH   2   3
TORSDOF 3
ENDMDL
MODEL      107
REMARK 921   NORMALIZED FREE ENERGY PREDICTED BY IDOCK:   -3.55 KCAL/MOL
REMARK 922        TOTAL FREE ENERGY PREDICTED BY IDOCK:   -4.49 KCAL/MOL
REMARK 923 INTER-LIGAND FREE ENERGY PREDICTED BY IDOCK:   -4.18 KCAL/MOL
REMARK 924 INTRA-LIGAND FREE ENERGY PREDICTED BY IDOCK:   -0.31 KCAL/MOL
REMARK 927      BINDING AFFINITY PREDICTED BY RF-SCORE:    0.00 PKD
ROOT
HETATM    1  C   UNL     1     -10.557  11.845  63.767  1.00  0.00    -0.475 C  
HETATM    2  C   UNL     1     -10.882  11.352  65.171  1.00  0.00    -0.302 C  
ENDROOT
BRANCH   2   3
HETATM    3  C   UNL     1      -9.650  11.158  66.060  1.00  0.00    -0.248 C  
HETATM    4  C   UNL     1      -9.864  11.438  67.556  1.00  0.00    -0.194 C  
HETATM    5  C   UNL     1      -9.112   9.744  66.088  1.00  0.00    -0.161 C  
HETATM    6  C   UNL     1      -8.751  10.601  68.167  1.00  0.00    -0.130 C  
HETATM    7  O   UNL     1      -8.652   9.444  67.337  1.00  0.00    -0.124 OA 
HETATM    8  O   UNL     1      -9.041   8.974  65.145  1.00  0.00    -0.207 OA 
BRANCH   4   9
HETATM    9  C   UNL     1     -11.249  11.032  68.106  1.00  0.00    -0.364 C  
BRANCH   9  10
HETATM   10  C   UNL     1     -11.718  11.940  69.199  1.00  0.00    -0.319 A  
HETATM   11  C   UNL     1     -11.869  13.315  69.219  1.00  0.00    -0.331 A  
HETATM   12  N   UNL     1     -12.305  13.751  70.441  1.00  0.00    -0.351 NA 
HETATM   13  C   UNL     1     -12.450  12.664  71.162  1.00  0.00    -0.228 A  
HETATM   14  N   UNL     1     -12.123  11.545  70.453  1.00  0.00    -0.372 NA 
HETATM   15  C   UNL     1     -12.204  10.196  70.965  1.00  0.00    -0.374 C  
ENDBRANCH   9  10
ENDBRANCH   4   9
ENDBRANCH   2   3
TORSDOF 3
ENDMDL
MODEL      108
REMARK 921   NORMALIZED FREE ENERGY PREDICTED BY IDOCK:   -3.54 KCAL/MOL
REMARK 922        TOTAL FREE ENERGY PREDICTED BY IDOCK:   -4.48 KCAL/MOL
REMARK 923 INTER-LIGAND FREE ENERGY PREDICTED BY IDOCK:   -4.20 KCAL/MOL
REMARK 924 INTRA-LIGAND FREE ENERGY PREDICTED BY IDOCK:   -0.28 KCAL/MOL
REMARK 927      BINDING AFFINITY PREDICTED BY RF-SCORE:    0.00 PKD
ROOT
HETATM    1  C   UNL     1      -9.565  15.774  65.928  1.00  0.00    -0.382 C  
HETATM    2  C   UNL     1     -10.544  14.623  66.126  1.00  0.00    -0.314 C  
ENDROOT
BRANCH   2   3
HETATM    3  C   UNL     1     -10.677  13.707  64.906  1.00  0.00    -0.400 C  
HETATM    4  C   UNL     1     -10.116  12.287  65.081  1.00  0.00    -0.284 C  
HETATM    5  C   UNL     1     -12.103  13.423  64.488  1.00  0.00    -0.409 C  
HETATM    6  C   UNL     1     -10.921  11.530  64.037  1.00  0.00    -0.383 C  
HETATM    7  O   UNL     1     -12.212  12.137  64.042  1.00  0.00    -0.427 OA 
HETATM    8  O   UNL     1     -13.033  14.212  64.491  1.00  0.00    -0.579 OA 
BRANCH   4   9
HETATM    9  C   UNL     1     -10.299  11.681  66.490  1.00  0.00    -0.259 C  
BRANCH   9  10
HETATM   10  C   UNL     1      -9.023  11.657  67.271  1.00  0.00    -0.169 A  
HETATM   11  C   UNL     1      -8.526  12.550  68.204  1.00  0.00    -0.180 A  
HETATM   12  N   UNL     1      -7.298  12.159  68.663  1.00  0.00    -0.109 NA 
HETATM   13  C   UNL     1      -7.045  11.027  68.048  1.00  0.00    -0.077 A  
HETATM   14  N   UNL     1      -8.062  10.675  67.209  1.00  0.00    -0.115 NA 
HETATM   15  C   UNL     1      -8.090   9.469  66.412  1.00  0.00    -0.111 C  
ENDBRANCH   9  10
ENDBRANCH   4   9
ENDBRANCH   2   3
TORSDOF 3
ENDMDL
MODEL      109
REMARK 921   NORMALIZED FREE ENERGY PREDICTED BY IDOCK:   -3.53 KCAL/MOL
REMARK 922        TOTAL FREE ENERGY PREDICTED BY IDOCK:   -4.47 KCAL/MOL
REMARK 923 INTER-LIGAND FREE ENERGY PREDICTED BY IDOCK:   -4.09 KCAL/MOL
REMARK 924 INTRA-LIGAND FREE ENERGY PREDICTED BY IDOCK:   -0.38 KCAL/MOL
REMARK 927      BINDING AFFINITY PREDICTED BY RF-SCORE:    0.00 PKD
ROOT
HETATM    1  C   UNL     1     -11.277   6.235  69.100  1.00  0.00    -0.439 C  
HETATM    2  C   UNL     1     -10.043   7.088  68.829  1.00  0.00    -0.170 C  
ENDROOT
BRANCH   2   3
HETATM    3  C   UNL     1     -10.252   8.154  67.750  1.00  0.00    -0.288 C  
HETATM    4  C   UNL     1     -10.865   9.477  68.237  1.00  0.00    -0.194 C  
HETATM    5  C   UNL     1      -8.980   8.632  67.086  1.00  0.00    -0.132 C  
HETATM    6  C   UNL     1     -10.371  10.434  67.164  1.00  0.00    -0.238 C  
HETATM    7  O   UNL     1      -9.069   9.967  66.813  1.00  0.00    -0.138 OA 
HETATM    8  O   UNL     1      -8.016   7.950  66.783  1.00  0.00    -0.104 OA 
BRANCH   4   9
HETATM    9  C   UNL     1     -10.419   9.924  69.647  1.00  0.00    -0.273 C  
BRANCH   9  10
HETATM   10  C   UNL     1     -11.546  10.499  70.446  1.00  0.00    -0.342 A  
HETATM   11  C   UNL     1     -12.119  11.758  70.411  1.00  0.00    -0.352 A  
HETATM   12  N   UNL     1     -13.120  11.876  71.336  1.00  0.00    -0.299 NA 
HETATM   13  C   UNL     1     -13.189  10.703  71.920  1.00  0.00    -0.423 A  
HETATM   14  N   UNL     1     -12.270   9.834  71.408  1.00  0.00    -0.369 NA 
HETATM   15  C   UNL     1     -12.117   8.459  71.827  1.00  0.00    -0.328 C  
ENDBRANCH   9  10
ENDBRANCH   4   9
ENDBRANCH   2   3
TORSDOF 3
ENDMDL
MODEL      110
REMARK 921   NORMALIZED FREE ENERGY PREDICTED BY IDOCK:   -3.52 KCAL/MOL
REMARK 922        TOTAL FREE ENERGY PREDICTED BY IDOCK:   -4.46 KCAL/MOL
REMARK 923 INTER-LIGAND FREE ENERGY PREDICTED BY IDOCK:   -4.36 KCAL/MOL
REMARK 924 INTRA-LIGAND FREE ENERGY PREDICTED BY IDOCK:   -0.11 KCAL/MOL
REMARK 927      BINDING AFFINITY PREDICTED BY RF-SCORE:    0.00 PKD
ROOT
HETATM    1  C   UNL     1     -11.024  15.370  64.898  1.00  0.00    -0.453 C  
HETATM    2  C   UNL     1     -10.524  14.685  66.164  1.00  0.00    -0.308 C  
ENDROOT
BRANCH   2   3
HETATM    3  C   UNL     1     -11.559  14.634  67.291  1.00  0.00    -0.404 C  
HETATM    4  C   UNL     1     -11.621  13.312  68.072  1.00  0.00    -0.371 C  
HETATM    5  C   UNL     1     -11.327  15.635  68.402  1.00  0.00    -0.364 C  
HETATM    6  C   UNL     1     -12.214  13.784  69.389  1.00  0.00    -0.278 C  
HETATM    7  O   UNL     1     -11.668  15.085  69.604  1.00  0.00    -0.284 OA 
HETATM    8  O   UNL     1     -10.939  16.784  68.277  1.00  0.00    -0.361 OA 
BRANCH   4   9
HETATM    9  C   UNL     1     -10.260  12.610  68.279  1.00  0.00    -0.240 C  
BRANCH   9  10
HETATM   10  C   UNL     1     -10.076  11.441  67.363  1.00  0.00    -0.184 A  
HETATM   11  C   UNL     1      -9.840  11.398  66.001  1.00  0.00    -0.223 A  
HETATM   12  N   UNL     1      -9.759  10.109  65.550  1.00  0.00    -0.260 NA 
HETATM   13  C   UNL     1      -9.915   9.361  66.617  1.00  0.00    -0.258 A  
HETATM   14  N   UNL     1     -10.095  10.118  67.737  1.00  0.00    -0.171 NA 
HETATM   15  C   UNL     1     -10.268   9.585  69.070  1.00  0.00    -0.200 C  
ENDBRANCH   9  10
ENDBRANCH   4   9
ENDBRANCH   2   3
TORSDOF 3
ENDMDL
MODEL      111
REMARK 921   NORMALIZED FREE ENERGY PREDICTED BY IDOCK:   -3.52 KCAL/MOL
REMARK 922        TOTAL FREE ENERGY PREDICTED BY IDOCK:   -4.46 KCAL/MOL
REMARK 923 INTER-LIGAND FREE ENERGY PREDICTED BY IDOCK:   -4.14 KCAL/MOL
REMARK 924 INTRA-LIGAND FREE ENERGY PREDICTED BY IDOCK:   -0.32 KCAL/MOL
REMARK 927      BINDING AFFINITY PREDICTED BY RF-SCORE:    0.00 PKD
ROOT
HETATM    1  C   UNL     1      -9.677  15.713  65.671  1.00  0.00    -0.348 C  
HETATM    2  C   UNL     1      -9.947  14.642  66.720  1.00  0.00    -0.265 C  
ENDROOT
BRANCH   2   3
HETATM    3  C   UNL     1     -10.346  13.286  66.132  1.00  0.00    -0.290 C  
HETATM    4  C   UNL     1      -9.700  12.060  66.797  1.00  0.00    -0.218 C  
HETATM    5  C   UNL     1     -11.818  12.958  66.253  1.00  0.00    -0.416 C  
HETATM    6  C   UNL     1     -10.710  10.979  66.449  1.00  0.00    -0.227 C  
HETATM    7  O   UNL     1     -11.982  11.623  66.490  1.00  0.00    -0.474 OA 
HETATM    8  O   UNL     1     -12.750  13.734  66.121  1.00  0.00    -0.407 OA 
BRANCH   4   9
HETATM    9  C   UNL     1      -9.494  12.177  68.324  1.00  0.00    -0.204 C  
BRANCH   9  10
HETATM   10  C   UNL     1      -9.595  10.854  69.016  1.00  0.00    -0.156 A  
HETATM   11  C   UNL     1      -8.722   9.781  69.030  1.00  0.00    -0.148 A  
HETATM   12  N   UNL     1      -9.217   8.746  69.778  1.00  0.00    -0.152 NA 
HETATM   13  C   UNL     1     -10.366   9.178  70.243  1.00  0.00    -0.214 A  
HETATM   14  N   UNL     1     -10.631  10.448  69.824  1.00  0.00    -0.260 NA 
HETATM   15  C   UNL     1     -11.808  11.205  70.190  1.00  0.00    -0.365 C  
ENDBRANCH   9  10
ENDBRANCH   4   9
ENDBRANCH   2   3
TORSDOF 3
ENDMDL
MODEL      112
REMARK 921   NORMALIZED FREE ENERGY PREDICTED BY IDOCK:   -3.50 KCAL/MOL
REMARK 922        TOTAL FREE ENERGY PREDICTED BY IDOCK:   -4.43 KCAL/MOL
REMARK 923 INTER-LIGAND FREE ENERGY PREDICTED BY IDOCK:   -4.21 KCAL/MOL
REMARK 924 INTRA-LIGAND FREE ENERGY PREDICTED BY IDOCK:   -0.23 KCAL/MOL
REMARK 927      BINDING AFFINITY PREDICTED BY RF-SCORE:    0.00 PKD
ROOT
HETATM    1  C   UNL     1      -9.553  20.006  68.688  1.00  0.00    -0.257 C  
HETATM    2  C   UNL     1     -10.379  19.071  67.814  1.00  0.00    -0.498 C  
ENDROOT
BRANCH   2   3
HETATM    3  C   UNL     1      -9.542  18.207  66.867  1.00  0.00    -0.299 C  
HETATM    4  C   UNL     1      -8.983  16.911  67.476  1.00  0.00    -0.208 C  
HETATM    5  C   UNL     1     -10.296  17.680  65.666  1.00  0.00    -0.111 C  
HETATM    6  C   UNL     1      -8.788  16.068  66.226  1.00  0.00    -0.344 C  
HETATM    7  O   UNL     1      -9.867  16.420  65.362  1.00  0.00    -0.515 OA 
HETATM    8  O   UNL     1     -11.134  18.278  65.014  1.00  0.00    -0.614 OA 
BRANCH   4   9
HETATM    9  C   UNL     1      -9.911  16.213  68.495  1.00  0.00    -0.226 C  
BRANCH   9  10
HETATM   10  C   UNL     1      -9.953  14.730  68.305  1.00  0.00    -0.222 A  
HETATM   11  C   UNL     1      -9.053  13.751  68.685  1.00  0.00    -0.063 A  
HETATM   12  N   UNL     1      -9.469  12.509  68.289  1.00  0.00    -0.212 NA 
HETATM   13  C   UNL     1     -10.623  12.707  67.695  1.00  0.00    -0.218 A  
HETATM   14  N   UNL     1     -10.965  14.028  67.693  1.00  0.00    -0.265 NA 
HETATM   15  C   UNL     1     -12.190  14.558  67.136  1.00  0.00    -0.152 C  
ENDBRANCH   9  10
ENDBRANCH   4   9
ENDBRANCH   2   3
TORSDOF 3
ENDMDL
MODEL      113
REMARK 921   NORMALIZED FREE ENERGY PREDICTED BY IDOCK:   -3.50 KCAL/MOL
REMARK 922        TOTAL FREE ENERGY PREDICTED BY IDOCK:   -4.43 KCAL/MOL
REMARK 923 INTER-LIGAND FREE ENERGY PREDICTED BY IDOCK:   -4.96 KCAL/MOL
REMARK 924 INTRA-LIGAND FREE ENERGY PREDICTED BY IDOCK:    0.54 KCAL/MOL
REMARK 927      BINDING AFFINITY PREDICTED BY RF-SCORE:    0.00 PKD
ROOT
HETATM    1  C   UNL     1      -6.605  18.299  67.576  1.00  0.00    -0.200 C  
HETATM    2  C   UNL     1      -7.487  18.057  66.357  1.00  0.00    -0.297 C  
ENDROOT
BRANCH   2   3
HETATM    3  C   UNL     1      -8.764  18.902  66.339  1.00  0.00    -0.308 C  
HETATM    4  C   UNL     1     -10.019  18.217  66.903  1.00  0.00    -0.345 C  
HETATM    5  C   UNL     1      -8.697  20.158  67.180  1.00  0.00    -0.344 C  
HETATM    6  C   UNL     1     -10.849  19.425  67.304  1.00  0.00    -0.448 C  
HETATM    7  O   UNL     1      -9.908  20.394  67.764  1.00  0.00    -0.403 OA 
HETATM    8  O   UNL     1      -7.737  20.899  67.307  1.00  0.00    -0.344 OA 
BRANCH   4   9
HETATM    9  C   UNL     1      -9.767  17.276  68.102  1.00  0.00    -0.284 C  
BRANCH   9  10
HETATM   10  C   UNL     1     -10.585  16.026  68.028  1.00  0.00    -0.295 A  
HETATM   11  C   UNL     1     -11.494  15.494  68.925  1.00  0.00    -0.354 A  
HETATM   12  N   UNL     1     -12.006  14.308  68.473  1.00  0.00    -0.338 NA 
HETATM   13  C   UNL     1     -11.446  14.117  67.301  1.00  0.00    -0.350 A  
HETATM   14  N   UNL     1     -10.593  15.132  66.982  1.00  0.00    -0.293 NA 
HETATM   15  C   UNL     1      -9.847  15.221  65.746  1.00  0.00    -0.361 C  
ENDBRANCH   9  10
ENDBRANCH   4   9
ENDBRANCH   2   3
TORSDOF 3
ENDMDL
MODEL      114
REMARK 921   NORMALIZED FREE ENERGY PREDICTED BY IDOCK:   -3.45 KCAL/MOL
REMARK 922        TOTAL FREE ENERGY PREDICTED BY IDOCK:   -4.37 KCAL/MOL
REMARK 923 INTER-LIGAND FREE ENERGY PREDICTED BY IDOCK:   -4.07 KCAL/MOL
REMARK 924 INTRA-LIGAND FREE ENERGY PREDICTED BY IDOCK:   -0.30 KCAL/MOL
REMARK 927      BINDING AFFINITY PREDICTED BY RF-SCORE:    0.00 PKD
ROOT
HETATM    1  C   UNL     1     -10.768   5.284  73.791  1.00  0.00    -0.343 C  
HETATM    2  C   UNL     1     -10.545   6.281  72.660  1.00  0.00    -0.243 C  
ENDROOT
BRANCH   2   3
HETATM    3  C   UNL     1     -11.040   5.791  71.296  1.00  0.00    -0.267 C  
HETATM    4  C   UNL     1     -11.324   6.892  70.262  1.00  0.00    -0.373 C  
HETATM    5  C   UNL     1     -10.058   4.916  70.549  1.00  0.00    -0.242 C  
HETATM    6  C   UNL     1     -11.173   6.113  68.965  1.00  0.00    -0.304 C  
HETATM    7  O   UNL     1     -10.129   5.172  69.210  1.00  0.00    -0.193 OA 
HETATM    8  O   UNL     1      -9.328   4.066  71.030  1.00  0.00    -0.124 OA 
BRANCH   4   9
HETATM    9  C   UNL     1     -10.365   8.102  70.314  1.00  0.00    -0.209 C  
BRANCH   9  10
HETATM   10  C   UNL     1     -11.076   9.402  70.104  1.00  0.00    -0.242 A  
HETATM   11  C   UNL     1     -11.759  10.206  70.999  1.00  0.00    -0.382 A  
HETATM   12  N   UNL     1     -12.286  11.306  70.379  1.00  0.00    -0.351 NA 
HETATM   13  C   UNL     1     -11.914  11.204  69.124  1.00  0.00    -0.343 A  
HETATM   14  N   UNL     1     -11.170  10.081  68.911  1.00  0.00    -0.177 NA 
HETATM   15  C   UNL     1     -10.595   9.705  67.639  1.00  0.00    -0.275 C  
ENDBRANCH   9  10
ENDBRANCH   4   9
ENDBRANCH   2   3
TORSDOF 3
ENDMDL
MODEL      115
REMARK 921   NORMALIZED FREE ENERGY PREDICTED BY IDOCK:   -3.44 KCAL/MOL
REMARK 922        TOTAL FREE ENERGY PREDICTED BY IDOCK:   -4.37 KCAL/MOL
REMARK 923 INTER-LIGAND FREE ENERGY PREDICTED BY IDOCK:   -4.00 KCAL/MOL
REMARK 924 INTRA-LIGAND FREE ENERGY PREDICTED BY IDOCK:   -0.37 KCAL/MOL
REMARK 927      BINDING AFFINITY PREDICTED BY RF-SCORE:    0.00 PKD
ROOT
HETATM    1  C   UNL     1      -9.392   7.925  71.920  1.00  0.00    -0.204 C  
HETATM    2  C   UNL     1     -10.147   8.543  70.750  1.00  0.00    -0.237 C  
ENDROOT
BRANCH   2   3
HETATM    3  C   UNL     1     -11.145   9.629  71.161  1.00  0.00    -0.444 C  
HETATM    4  C   UNL     1     -11.369  10.746  70.129  1.00  0.00    -0.390 C  
HETATM    5  C   UNL     1     -12.557   9.132  71.384  1.00  0.00    -0.323 C  
HETATM    6  C   UNL     1     -12.752  11.234  70.530  1.00  0.00    -0.174 C  
HETATM    7  O   UNL     1     -13.454  10.068  70.956  1.00  0.00    -0.367 OA 
HETATM    8  O   UNL     1     -12.884   8.080  71.905  1.00  0.00    -0.316 OA 
BRANCH   4   9
HETATM    9  C   UNL     1     -11.331  10.291  68.653  1.00  0.00    -0.226 C  
BRANCH   9  10
HETATM   10  C   UNL     1     -10.304  11.030  67.855  1.00  0.00    -0.186 A  
HETATM   11  C   UNL     1      -8.938  10.836  67.753  1.00  0.00    -0.137 A  
HETATM   12  N   UNL     1      -8.364  11.761  66.923  1.00  0.00    -0.168 NA 
HETATM   13  C   UNL     1      -9.359  12.501  66.493  1.00  0.00    -0.233 A  
HETATM   14  N   UNL     1     -10.550  12.091  67.015  1.00  0.00    -0.221 NA 
HETATM   15  C   UNL     1     -11.830  12.691  66.711  1.00  0.00    -0.370 C  
ENDBRANCH   9  10
ENDBRANCH   4   9
ENDBRANCH   2   3
TORSDOF 3
ENDMDL
MODEL      116
REMARK 921   NORMALIZED FREE ENERGY PREDICTED BY IDOCK:   -3.43 KCAL/MOL
REMARK 922        TOTAL FREE ENERGY PREDICTED BY IDOCK:   -4.35 KCAL/MOL
REMARK 923 INTER-LIGAND FREE ENERGY PREDICTED BY IDOCK:   -4.06 KCAL/MOL
REMARK 924 INTRA-LIGAND FREE ENERGY PREDICTED BY IDOCK:   -0.29 KCAL/MOL
REMARK 927      BINDING AFFINITY PREDICTED BY RF-SCORE:    0.00 PKD
ROOT
HETATM    1  C   UNL     1     -10.202  20.156  66.760  1.00  0.00    -0.562 C  
HETATM    2  C   UNL     1     -10.046  18.658  66.527  1.00  0.00    -0.426 C  
ENDROOT
BRANCH   2   3
HETATM    3  C   UNL     1      -8.798  18.057  67.179  1.00  0.00    -0.249 C  
HETATM    4  C   UNL     1      -8.963  16.632  67.732  1.00  0.00    -0.211 C  
HETATM    5  C   UNL     1      -7.621  17.887  66.244  1.00  0.00    -0.280 C  
HETATM    6  C   UNL     1      -7.523  16.147  67.710  1.00  0.00    -0.133 C  
HETATM    7  O   UNL     1      -6.942  16.743  66.551  1.00  0.00    -0.223 OA 
HETATM    8  O   UNL     1      -7.273  18.657  65.365  1.00  0.00    -0.520 OA 
BRANCH   4   9
HETATM    9  C   UNL     1      -9.887  15.712  66.904  1.00  0.00    -0.245 C  
BRANCH   9  10
HETATM   10  C   UNL     1     -10.513  14.635  67.734  1.00  0.00    -0.246 A  
HETATM   11  C   UNL     1     -10.223  13.285  67.819  1.00  0.00    -0.228 A  
HETATM   12  N   UNL     1     -11.063  12.649  68.693  1.00  0.00    -0.252 NA 
HETATM   13  C   UNL     1     -11.845  13.592  69.165  1.00  0.00    -0.340 A  
HETATM   14  N   UNL     1     -11.543  14.809  68.629  1.00  0.00    -0.304 NA 
HETATM   15  C   UNL     1     -12.211  16.045  68.969  1.00  0.00     0.155 C  
ENDBRANCH   9  10
ENDBRANCH   4   9
ENDBRANCH   2   3
TORSDOF 3
ENDMDL
MODEL      117
REMARK 921   NORMALIZED FREE ENERGY PREDICTED BY IDOCK:   -3.42 KCAL/MOL
REMARK 922        TOTAL FREE ENERGY PREDICTED BY IDOCK:   -4.34 KCAL/MOL
REMARK 923 INTER-LIGAND FREE ENERGY PREDICTED BY IDOCK:   -4.22 KCAL/MOL
REMARK 924 INTRA-LIGAND FREE ENERGY PREDICTED BY IDOCK:   -0.11 KCAL/MOL
REMARK 927      BINDING AFFINITY PREDICTED BY RF-SCORE:    0.00 PKD
ROOT
HETATM    1  C   UNL     1     -10.703   5.507  71.948  1.00  0.00    -0.292 C  
HETATM    2  C   UNL     1     -11.036   6.657  71.005  1.00  0.00    -0.305 C  
ENDROOT
BRANCH   2   3
HETATM    3  C   UNL     1     -11.616   7.887  71.709  1.00  0.00    -0.321 C  
HETATM    4  C   UNL     1     -11.143   9.245  71.164  1.00  0.00    -0.411 C  
HETATM    5  C   UNL     1     -13.119   8.021  71.602  1.00  0.00    -0.329 C  
HETATM    6  C   UNL     1     -12.291  10.142  71.597  1.00  0.00    -0.377 C  
HETATM    7  O   UNL     1     -13.464   9.337  71.485  1.00  0.00    -0.368 OA 
HETATM    8  O   UNL     1     -13.935   7.117  71.654  1.00  0.00    -0.380 OA 
BRANCH   4   9
HETATM    9  C   UNL     1     -10.926   9.296  69.635  1.00  0.00    -0.192 C  
BRANCH   9  10
HETATM   10  C   UNL     1     -10.707  10.690  69.137  1.00  0.00    -0.228 A  
HETATM   11  C   UNL     1     -11.617  11.676  68.802  1.00  0.00    -0.313 A  
HETATM   12  N   UNL     1     -10.986  12.808  68.362  1.00  0.00    -0.242 NA 
HETATM   13  C   UNL     1      -9.703  12.541  68.448  1.00  0.00    -0.189 A  
HETATM   14  N   UNL     1      -9.484  11.282  68.923  1.00  0.00    -0.140 NA 
HETATM   15  C   UNL     1      -8.178  10.707  69.153  1.00  0.00    -0.139 C  
ENDBRANCH   9  10
ENDBRANCH   4   9
ENDBRANCH   2   3
TORSDOF 3
ENDMDL
MODEL      118
REMARK 921   NORMALIZED FREE ENERGY PREDICTED BY IDOCK:   -3.41 KCAL/MOL
REMARK 922        TOTAL FREE ENERGY PREDICTED BY IDOCK:   -4.33 KCAL/MOL
REMARK 923 INTER-LIGAND FREE ENERGY PREDICTED BY IDOCK:   -4.01 KCAL/MOL
REMARK 924 INTRA-LIGAND FREE ENERGY PREDICTED BY IDOCK:   -0.32 KCAL/MOL
REMARK 927      BINDING AFFINITY PREDICTED BY RF-SCORE:    0.00 PKD
ROOT
HETATM    1  C   UNL     1      -8.129   9.132  69.655  1.00  0.00    -0.106 C  
HETATM    2  C   UNL     1      -9.491   9.456  69.055  1.00  0.00    -0.160 C  
ENDROOT
BRANCH   2   3
HETATM    3  C   UNL     1     -10.359  10.355  69.939  1.00  0.00    -0.231 C  
HETATM    4  C   UNL     1     -10.918  11.614  69.256  1.00  0.00    -0.246 C  
HETATM    5  C   UNL     1     -11.623   9.699  70.451  1.00  0.00    -0.236 C  
HETATM    6  C   UNL     1     -12.136  11.893  70.121  1.00  0.00    -0.302 C  
HETATM    7  O   UNL     1     -12.639  10.610  70.490  1.00  0.00    -0.332 OA 
HETATM    8  O   UNL     1     -11.743   8.545  70.826  1.00  0.00    -0.277 OA 
BRANCH   4   9
HETATM    9  C   UNL     1     -11.304  11.435  67.771  1.00  0.00    -0.354 C  
BRANCH   9  10
HETATM   10  C   UNL     1     -10.823  12.566  66.916  1.00  0.00    -0.248 A  
HETATM   11  C   UNL     1      -9.755  13.428  67.088  1.00  0.00    -0.237 A  
HETATM   12  N   UNL     1      -9.686  14.344  66.073  1.00  0.00    -0.306 NA 
HETATM   13  C   UNL     1     -10.677  14.040  65.268  1.00  0.00    -0.358 A  
HETATM   14  N   UNL     1     -11.383  12.966  65.725  1.00  0.00    -0.304 NA 
HETATM   15  C   UNL     1     -12.515  12.377  65.046  1.00  0.00    -0.316 C  
ENDBRANCH   9  10
ENDBRANCH   4   9
ENDBRANCH   2   3
TORSDOF 3
ENDMDL
MODEL      119
REMARK 921   NORMALIZED FREE ENERGY PREDICTED BY IDOCK:   -3.41 KCAL/MOL
REMARK 922        TOTAL FREE ENERGY PREDICTED BY IDOCK:   -4.33 KCAL/MOL
REMARK 923 INTER-LIGAND FREE ENERGY PREDICTED BY IDOCK:   -3.94 KCAL/MOL
REMARK 924 INTRA-LIGAND FREE ENERGY PREDICTED BY IDOCK:   -0.39 KCAL/MOL
REMARK 927      BINDING AFFINITY PREDICTED BY RF-SCORE:    0.00 PKD
ROOT
HETATM    1  C   UNL     1      -6.507  14.729  69.261  1.00  0.00    -0.121 C  
HETATM    2  C   UNL     1      -7.415  15.952  69.284  1.00  0.00    -0.219 C  
ENDROOT
BRANCH   2   3
HETATM    3  C   UNL     1      -7.079  16.993  68.213  1.00  0.00    -0.190 C  
HETATM    4  C   UNL     1      -8.106  17.127  67.076  1.00  0.00    -0.228 C  
HETATM    5  C   UNL     1      -7.001  18.415  68.722  1.00  0.00    -0.277 C  
HETATM    6  C   UNL     1      -7.828  18.545  66.605  1.00  0.00    -0.252 C  
HETATM    7  O   UNL     1      -7.493  19.276  67.784  1.00  0.00    -0.248 OA 
HETATM    8  O   UNL     1      -6.533  18.782  69.787  1.00  0.00    -0.228 OA 
BRANCH   4   9
HETATM    9  C   UNL     1      -9.580  16.946  67.502  1.00  0.00    -0.245 C  
BRANCH   9  10
HETATM   10  C   UNL     1     -10.306  15.962  66.638  1.00  0.00    -0.300 A  
HETATM   11  C   UNL     1     -10.771  16.080  65.341  1.00  0.00    -0.383 A  
HETATM   12  N   UNL     1     -11.409  14.939  64.935  1.00  0.00    -0.400 NA 
HETATM   13  C   UNL     1     -11.318  14.114  65.952  1.00  0.00    -0.323 A  
HETATM   14  N   UNL     1     -10.649  14.680  66.997  1.00  0.00    -0.277 NA 
HETATM   15  C   UNL     1     -10.366  14.012  68.248  1.00  0.00    -0.247 C  
ENDBRANCH   9  10
ENDBRANCH   4   9
ENDBRANCH   2   3
TORSDOF 3
ENDMDL
MODEL      120
REMARK 921   NORMALIZED FREE ENERGY PREDICTED BY IDOCK:   -3.40 KCAL/MOL
REMARK 922        TOTAL FREE ENERGY PREDICTED BY IDOCK:   -4.32 KCAL/MOL
REMARK 923 INTER-LIGAND FREE ENERGY PREDICTED BY IDOCK:   -4.62 KCAL/MOL
REMARK 924 INTRA-LIGAND FREE ENERGY PREDICTED BY IDOCK:    0.30 KCAL/MOL
REMARK 927      BINDING AFFINITY PREDICTED BY RF-SCORE:    0.00 PKD
ROOT
HETATM    1  C   UNL     1     -11.533  15.394  64.809  1.00  0.00    -0.337 C  
HETATM    2  C   UNL     1     -10.467  14.309  64.718  1.00  0.00    -0.421 C  
ENDROOT
BRANCH   2   3
HETATM    3  C   UNL     1     -10.624  13.198  65.760  1.00  0.00    -0.293 C  
HETATM    4  C   UNL     1     -10.210  13.572  67.192  1.00  0.00    -0.247 C  
HETATM    5  C   UNL     1     -12.047  12.728  65.966  1.00  0.00    -0.395 C  
HETATM    6  C   UNL     1     -11.028  12.574  67.996  1.00  0.00    -0.232 C  
HETATM    7  O   UNL     1     -12.254  12.429  67.282  1.00  0.00    -0.478 OA 
HETATM    8  O   UNL     1     -12.897  12.582  65.104  1.00  0.00    -0.685 OA 
BRANCH   4   9
HETATM    9  C   UNL     1     -10.521  15.028  67.605  1.00  0.00    -0.247 C  
BRANCH   9  10
HETATM   10  C   UNL     1      -9.332  15.720  68.192  1.00  0.00    -0.194 A  
HETATM   11  C   UNL     1      -8.565  15.402  69.299  1.00  0.00    -0.252 A  
HETATM   12  N   UNL     1      -7.576  16.326  69.502  1.00  0.00    -0.115 NA 
HETATM   13  C   UNL     1      -7.708  17.191  68.523  1.00  0.00    -0.248 A  
HETATM   14  N   UNL     1      -8.743  16.861  67.699  1.00  0.00    -0.208 NA 
HETATM   15  C   UNL     1      -9.122  17.605  66.518  1.00  0.00    -0.265 C  
ENDBRANCH   9  10
ENDBRANCH   4   9
ENDBRANCH   2   3
TORSDOF 3
ENDMDL
MODEL      121
REMARK 921   NORMALIZED FREE ENERGY PREDICTED BY IDOCK:   -3.40 KCAL/MOL
REMARK 922        TOTAL FREE ENERGY PREDICTED BY IDOCK:   -4.32 KCAL/MOL
REMARK 923 INTER-LIGAND FREE ENERGY PREDICTED BY IDOCK:   -3.91 KCAL/MOL
REMARK 924 INTRA-LIGAND FREE ENERGY PREDICTED BY IDOCK:   -0.41 KCAL/MOL
REMARK 927      BINDING AFFINITY PREDICTED BY RF-SCORE:    0.00 PKD
ROOT
HETATM    1  C   UNL     1      -7.503  12.369  67.603  1.00  0.00    -0.138 C  
HETATM    2  C   UNL     1      -8.903  12.537  67.026  1.00  0.00    -0.212 C  
ENDROOT
BRANCH   2   3
HETATM    3  C   UNL     1      -9.968  12.870  68.075  1.00  0.00    -0.236 C  
HETATM    4  C   UNL     1     -10.197  14.369  68.331  1.00  0.00    -0.243 C  
HETATM    5  C   UNL     1     -11.363  12.404  67.722  1.00  0.00    -0.299 C  
HETATM    6  C   UNL     1     -11.618  14.353  68.871  1.00  0.00    -0.306 C  
HETATM    7  O   UNL     1     -12.284  13.316  68.152  1.00  0.00    -0.266 OA 
HETATM    8  O   UNL     1     -11.664  11.356  67.175  1.00  0.00    -0.556 OA 
BRANCH   4   9
HETATM    9  C   UNL     1     -10.072  15.272  67.084  1.00  0.00    -0.240 C  
BRANCH   9  10
HETATM   10  C   UNL     1      -8.924  16.227  67.185  1.00  0.00    -0.195 A  
HETATM   11  C   UNL     1      -7.573  16.031  66.964  1.00  0.00    -0.230 A  
HETATM   12  N   UNL     1      -6.859  17.176  67.195  1.00  0.00    -0.162 NA 
HETATM   13  C   UNL     1      -7.753  18.077  67.528  1.00  0.00    -0.213 A  
HETATM   14  N   UNL     1      -9.015  17.558  67.522  1.00  0.00    -0.229 NA 
HETATM   15  C   UNL     1     -10.213  18.308  67.820  1.00  0.00    -0.385 C  
ENDBRANCH   9  10
ENDBRANCH   4   9
ENDBRANCH   2   3
TORSDOF 3
ENDMDL
MODEL      122
REMARK 921   NORMALIZED FREE ENERGY PREDICTED BY IDOCK:   -3.40 KCAL/MOL
REMARK 922        TOTAL FREE ENERGY PREDICTED BY IDOCK:   -4.31 KCAL/MOL
REMARK 923 INTER-LIGAND FREE ENERGY PREDICTED BY IDOCK:   -4.07 KCAL/MOL
REMARK 924 INTRA-LIGAND FREE ENERGY PREDICTED BY IDOCK:   -0.24 KCAL/MOL
REMARK 927      BINDING AFFINITY PREDICTED BY RF-SCORE:    0.00 PKD
ROOT
HETATM    1  C   UNL     1     -11.507  15.748  69.002  1.00  0.00    -0.394 C  
HETATM    2  C   UNL     1     -10.097  16.316  68.906  1.00  0.00    -0.251 C  
ENDROOT
BRANCH   2   3
HETATM    3  C   UNL     1      -8.996  15.252  68.948  1.00  0.00    -0.209 C  
HETATM    4  C   UNL     1      -8.999  14.253  67.780  1.00  0.00    -0.188 C  
HETATM    5  C   UNL     1      -7.589  15.802  68.877  1.00  0.00    -0.181 C  
HETATM    6  C   UNL     1      -7.546  13.805  67.783  1.00  0.00    -0.169 C  
HETATM    7  O   UNL     1      -6.795  14.962  68.149  1.00  0.00    -0.107 OA 
HETATM    8  O   UNL     1      -7.176  16.816  69.413  1.00  0.00    -0.221 OA 
BRANCH   4   9
HETATM    9  C   UNL     1      -9.409  14.844  66.413  1.00  0.00    -0.327 C  
BRANCH   9  10
HETATM   10  C   UNL     1     -10.467  14.032  65.735  1.00  0.00    -0.309 A  
HETATM   11  C   UNL     1     -10.785  12.691  65.859  1.00  0.00    -0.266 A  
HETATM   12  N   UNL     1     -11.816  12.345  65.028  1.00  0.00    -0.382 NA 
HETATM   13  C   UNL     1     -12.153  13.457  64.417  1.00  0.00    -0.416 A  
HETATM   14  N   UNL     1     -11.379  14.505  64.820  1.00  0.00    -0.390 NA 
HETATM   15  C   UNL     1     -11.524  15.863  64.346  1.00  0.00    -0.264 C  
ENDBRANCH   9  10
ENDBRANCH   4   9
ENDBRANCH   2   3
TORSDOF 3
ENDMDL
MODEL      123
REMARK 921   NORMALIZED FREE ENERGY PREDICTED BY IDOCK:   -3.37 KCAL/MOL
REMARK 922        TOTAL FREE ENERGY PREDICTED BY IDOCK:   -4.29 KCAL/MOL
REMARK 923 INTER-LIGAND FREE ENERGY PREDICTED BY IDOCK:   -3.97 KCAL/MOL
REMARK 924 INTRA-LIGAND FREE ENERGY PREDICTED BY IDOCK:   -0.32 KCAL/MOL
REMARK 927      BINDING AFFINITY PREDICTED BY RF-SCORE:    0.00 PKD
ROOT
HETATM    1  C   UNL     1     -12.032  15.053  69.486  1.00  0.00    -0.346 C  
HETATM    2  C   UNL     1     -12.229  14.115  68.302  1.00  0.00    -0.196 C  
ENDROOT
BRANCH   2   3
HETATM    3  C   UNL     1     -11.607  14.623  66.999  1.00  0.00    -0.385 C  
HETATM    4  C   UNL     1     -10.134  14.241  66.778  1.00  0.00    -0.264 C  
HETATM    5  C   UNL     1     -12.254  14.083  65.742  1.00  0.00    -0.453 C  
HETATM    6  C   UNL     1     -10.041  14.324  65.263  1.00  0.00    -0.349 C  
HETATM    7  O   UNL     1     -11.306  13.874  64.782  1.00  0.00    -0.336 OA 
HETATM    8  O   UNL     1     -13.444  13.893  65.561  1.00  0.00    -0.657 OA 
BRANCH   4   9
HETATM    9  C   UNL     1      -9.735  12.842  67.297  1.00  0.00    -0.220 C  
BRANCH   9  10
HETATM   10  C   UNL     1      -8.408  12.848  67.989  1.00  0.00    -0.169 A  
HETATM   11  C   UNL     1      -7.493  13.870  68.166  1.00  0.00    -0.126 A  
HETATM   12  N   UNL     1      -6.386  13.436  68.843  1.00  0.00    -0.092 NA 
HETATM   13  C   UNL     1      -6.618  12.172  69.107  1.00  0.00    -0.106 A  
HETATM   14  N   UNL     1      -7.831  11.774  68.626  1.00  0.00    -0.134 NA 
HETATM   15  C   UNL     1      -8.381  10.446  68.781  1.00  0.00    -0.134 C  
ENDBRANCH   9  10
ENDBRANCH   4   9
ENDBRANCH   2   3
TORSDOF 3
ENDMDL
MODEL      124
REMARK 921   NORMALIZED FREE ENERGY PREDICTED BY IDOCK:   -3.37 KCAL/MOL
REMARK 922        TOTAL FREE ENERGY PREDICTED BY IDOCK:   -4.28 KCAL/MOL
REMARK 923 INTER-LIGAND FREE ENERGY PREDICTED BY IDOCK:   -3.94 KCAL/MOL
REMARK 924 INTRA-LIGAND FREE ENERGY PREDICTED BY IDOCK:   -0.34 KCAL/MOL
REMARK 927      BINDING AFFINITY PREDICTED BY RF-SCORE:    0.00 PKD
ROOT
HETATM    1  C   UNL     1     -12.041  11.061  69.778  1.00  0.00    -0.424 C  
HETATM    2  C   UNL     1     -11.432  10.201  70.879  1.00  0.00    -0.444 C  
ENDROOT
BRANCH   2   3
HETATM    3  C   UNL     1     -11.719   8.705  70.726  1.00  0.00    -0.239 C  
HETATM    4  C   UNL     1     -10.599   7.765  71.201  1.00  0.00    -0.235 C  
HETATM    5  C   UNL     1     -12.898   8.206  71.532  1.00  0.00    -0.301 C  
HETATM    6  C   UNL     1     -11.390   6.501  71.493  1.00  0.00    -0.291 C  
HETATM    7  O   UNL     1     -12.645   6.950  72.003  1.00  0.00    -0.302 OA 
HETATM    8  O   UNL     1     -13.951   8.791  71.719  1.00  0.00    -0.397 OA 
BRANCH   4   9
HETATM    9  C   UNL     1      -9.821   8.251  72.444  1.00  0.00    -0.375 C  
BRANCH   9  10
HETATM   10  C   UNL     1      -8.363   8.441  72.167  1.00  0.00    -0.164 A  
HETATM   11  C   UNL     1      -7.695   8.626  70.970  1.00  0.00    -0.108 A  
HETATM   12  N   UNL     1      -6.344   8.735  71.165  1.00  0.00    -0.048 NA 
HETATM   13  C   UNL     1      -6.176   8.645  72.464  1.00  0.00    -0.072 A  
HETATM   14  N   UNL     1      -7.365   8.482  73.113  1.00  0.00    -0.325 NA 
HETATM   15  C   UNL     1      -7.510   8.378  74.547  1.00  0.00    -0.214 C  
ENDBRANCH   9  10
ENDBRANCH   4   9
ENDBRANCH   2   3
TORSDOF 3
ENDMDL
MODEL      125
REMARK 921   NORMALIZED FREE ENERGY PREDICTED BY IDOCK:   -3.33 KCAL/MOL
REMARK 922        TOTAL FREE ENERGY PREDICTED BY IDOCK:   -4.24 KCAL/MOL
REMARK 923 INTER-LIGAND FREE ENERGY PREDICTED BY IDOCK:   -3.83 KCAL/MOL
REMARK 924 INTRA-LIGAND FREE ENERGY PREDICTED BY IDOCK:   -0.40 KCAL/MOL
REMARK 927      BINDING AFFINITY PREDICTED BY RF-SCORE:    0.00 PKD
ROOT
HETATM    1  C   UNL     1     -10.067  16.734  66.610  1.00  0.00    -0.304 C  
HETATM    2  C   UNL     1     -11.091  15.624  66.809  1.00  0.00    -0.169 C  
ENDROOT
BRANCH   2   3
HETATM    3  C   UNL     1     -10.995  14.501  65.772  1.00  0.00    -0.319 C  
HETATM    4  C   UNL     1     -10.041  13.350  66.131  1.00  0.00    -0.304 C  
HETATM    5  C   UNL     1     -12.291  13.758  65.530  1.00  0.00    -0.475 C  
HETATM    6  C   UNL     1     -10.627  12.222  65.298  1.00  0.00    -0.287 C  
HETATM    7  O   UNL     1     -12.038  12.434  65.314  1.00  0.00    -0.429 OA 
HETATM    8  O   UNL     1     -13.409  14.242  65.484  1.00  0.00    -0.608 OA 
BRANCH   4   9
HETATM    9  C   UNL     1      -9.991  12.984  67.631  1.00  0.00    -0.215 C  
BRANCH   9  10
HETATM   10  C   UNL     1      -8.602  12.683  68.098  1.00  0.00    -0.188 A  
HETATM   11  C   UNL     1      -7.833  11.542  67.950  1.00  0.00    -0.123 A  
HETATM   12  N   UNL     1      -6.615  11.680  68.558  1.00  0.00    -0.057 NA 
HETATM   13  C   UNL     1      -6.613  12.895  69.053  1.00  0.00    -0.102 A  
HETATM   14  N   UNL     1      -7.783  13.545  68.790  1.00  0.00    -0.090 NA 
HETATM   15  C   UNL     1      -8.073  14.906  69.182  1.00  0.00    -0.160 C  
ENDBRANCH   9  10
ENDBRANCH   4   9
ENDBRANCH   2   3
TORSDOF 3
ENDMDL
MODEL      126
REMARK 921   NORMALIZED FREE ENERGY PREDICTED BY IDOCK:   -3.33 KCAL/MOL
REMARK 922        TOTAL FREE ENERGY PREDICTED BY IDOCK:   -4.23 KCAL/MOL
REMARK 923 INTER-LIGAND FREE ENERGY PREDICTED BY IDOCK:   -3.88 KCAL/MOL
REMARK 924 INTRA-LIGAND FREE ENERGY PREDICTED BY IDOCK:   -0.36 KCAL/MOL
REMARK 927      BINDING AFFINITY PREDICTED BY RF-SCORE:    0.00 PKD
ROOT
HETATM    1  C   UNL     1     -10.134   5.292  68.990  1.00  0.00    -0.272 C  
HETATM    2  C   UNL     1     -11.203   6.289  69.421  1.00  0.00    -0.489 C  
ENDROOT
BRANCH   2   3
HETATM    3  C   UNL     1     -10.649   7.506  70.167  1.00  0.00    -0.241 C  
HETATM    4  C   UNL     1     -10.057   8.612  69.278  1.00  0.00    -0.203 C  
HETATM    5  C   UNL     1     -11.679   8.275  70.965  1.00  0.00    -0.270 C  
HETATM    6  C   UNL     1     -10.194   9.819  70.193  1.00  0.00    -0.275 C  
HETATM    7  O   UNL     1     -11.410   9.612  70.910  1.00  0.00    -0.300 OA 
HETATM    8  O   UNL     1     -12.599   7.803  71.612  1.00  0.00    -0.314 OA 
BRANCH   4   9
HETATM    9  C   UNL     1     -10.785   8.831  67.934  1.00  0.00    -0.171 C  
BRANCH   9  10
HETATM   10  C   UNL     1     -10.044   9.766  67.030  1.00  0.00    -0.218 A  
HETATM   11  C   UNL     1      -8.952   9.543  66.210  1.00  0.00    -0.157 A  
HETATM   12  N   UNL     1      -8.571  10.689  65.566  1.00  0.00    -0.183 NA 
HETATM   13  C   UNL     1      -9.427  11.604  65.957  1.00  0.00    -0.229 A  
HETATM   14  N   UNL     1     -10.344  11.093  66.828  1.00  0.00    -0.232 NA 
HETATM   15  C   UNL     1     -11.430  11.847  67.414  1.00  0.00    -0.323 C  
ENDBRANCH   9  10
ENDBRANCH   4   9
ENDBRANCH   2   3
TORSDOF 3
ENDMDL
MODEL      127
REMARK 921   NORMALIZED FREE ENERGY PREDICTED BY IDOCK:   -3.32 KCAL/MOL
REMARK 922        TOTAL FREE ENERGY PREDICTED BY IDOCK:   -4.23 KCAL/MOL
REMARK 923 INTER-LIGAND FREE ENERGY PREDICTED BY IDOCK:   -3.96 KCAL/MOL
REMARK 924 INTRA-LIGAND FREE ENERGY PREDICTED BY IDOCK:   -0.27 KCAL/MOL
REMARK 927      BINDING AFFINITY PREDICTED BY RF-SCORE:    0.00 PKD
ROOT
HETATM    1  C   UNL     1     -10.918  15.262  64.875  1.00  0.00    -0.445 C  
HETATM    2  C   UNL     1     -10.376  14.301  65.926  1.00  0.00    -0.325 C  
ENDROOT
BRANCH   2   3
HETATM    3  C   UNL     1     -11.458  13.684  66.817  1.00  0.00    -0.370 C  
HETATM    4  C   UNL     1     -11.180  12.250  67.296  1.00  0.00    -0.358 C  
HETATM    5  C   UNL     1     -11.678  14.406  68.128  1.00  0.00    -0.342 C  
HETATM    6  C   UNL     1     -12.033  12.197  68.553  1.00  0.00    -0.217 C  
HETATM    7  O   UNL     1     -11.955  13.506  69.116  1.00  0.00    -0.322 OA 
HETATM    8  O   UNL     1     -11.664  15.612  68.305  1.00  0.00    -0.349 OA 
BRANCH   4   9
HETATM    9  C   UNL     1      -9.698  11.936  67.599  1.00  0.00    -0.186 C  
BRANCH   9  10
HETATM   10  C   UNL     1      -9.478  10.495  67.936  1.00  0.00    -0.147 A  
HETATM   11  C   UNL     1      -9.322   9.875  69.163  1.00  0.00    -0.193 A  
HETATM   12  N   UNL     1      -9.115   8.530  69.018  1.00  0.00    -0.146 NA 
HETATM   13  C   UNL     1      -9.169   8.311  67.725  1.00  0.00    -0.134 A  
HETATM   14  N   UNL     1      -9.400   9.462  67.031  1.00  0.00    -0.144 NA 
HETATM   15  C   UNL     1      -9.537   9.542  65.594  1.00  0.00    -0.277 C  
ENDBRANCH   9  10
ENDBRANCH   4   9
ENDBRANCH   2   3
TORSDOF 3
ENDMDL
MODEL      128
REMARK 921   NORMALIZED FREE ENERGY PREDICTED BY IDOCK:   -3.32 KCAL/MOL
REMARK 922        TOTAL FREE ENERGY PREDICTED BY IDOCK:   -4.22 KCAL/MOL
REMARK 923 INTER-LIGAND FREE ENERGY PREDICTED BY IDOCK:   -3.89 KCAL/MOL
REMARK 924 INTRA-LIGAND FREE ENERGY PREDICTED BY IDOCK:   -0.34 KCAL/MOL
REMARK 927      BINDING AFFINITY PREDICTED BY RF-SCORE:    0.00 PKD
ROOT
HETATM    1  C   UNL     1      -6.808  19.538  68.886  1.00  0.00    -0.376 C  
HETATM    2  C   UNL     1      -7.727  18.336  68.702  1.00  0.00    -0.318 C  
ENDROOT
BRANCH   2   3
HETATM    3  C   UNL     1      -8.646  18.441  67.482  1.00  0.00    -0.264 C  
HETATM    4  C   UNL     1      -9.042  17.103  66.836  1.00  0.00    -0.254 C  
HETATM    5  C   UNL     1      -9.999  19.055  67.766  1.00  0.00    -0.357 C  
HETATM    6  C   UNL     1     -10.340  17.491  66.147  1.00  0.00    -0.329 C  
HETATM    7  O   UNL     1     -10.959  18.441  67.013  1.00  0.00    -0.271 OA 
HETATM    8  O   UNL     1     -10.232  19.989  68.514  1.00  0.00    -0.442 OA 
BRANCH   4   9
HETATM    9  C   UNL     1      -9.249  15.935  67.825  1.00  0.00    -0.201 C  
BRANCH   9  10
HETATM   10  C   UNL     1      -8.306  14.800  67.573  1.00  0.00    -0.183 A  
HETATM   11  C   UNL     1      -6.924  14.763  67.590  1.00  0.00    -0.182 A  
HETATM   12  N   UNL     1      -6.455  13.516  67.275  1.00  0.00    -0.231 NA 
HETATM   13  C   UNL     1      -7.528  12.782  67.093  1.00  0.00    -0.029 A  
HETATM   14  N   UNL     1      -8.669  13.507  67.275  1.00  0.00    -0.216 NA 
HETATM   15  C   UNL     1     -10.008  12.973  67.169  1.00  0.00    -0.235 C  
ENDBRANCH   9  10
ENDBRANCH   4   9
ENDBRANCH   2   3
TORSDOF 3
ENDMDL
MODEL      129
REMARK 921   NORMALIZED FREE ENERGY PREDICTED BY IDOCK:   -3.29 KCAL/MOL
REMARK 922        TOTAL FREE ENERGY PREDICTED BY IDOCK:   -4.19 KCAL/MOL
REMARK 923 INTER-LIGAND FREE ENERGY PREDICTED BY IDOCK:   -3.82 KCAL/MOL
REMARK 924 INTRA-LIGAND FREE ENERGY PREDICTED BY IDOCK:   -0.37 KCAL/MOL
REMARK 927      BINDING AFFINITY PREDICTED BY RF-SCORE:    0.00 PKD
ROOT
HETATM    1  C   UNL     1     -11.820  12.755  69.076  1.00  0.00    -0.344 C  
HETATM    2  C   UNL     1     -11.884  11.676  68.002  1.00  0.00    -0.295 C  
ENDROOT
BRANCH   2   3
HETATM    3  C   UNL     1     -10.877  11.873  66.865  1.00  0.00    -0.305 C  
HETATM    4  C   UNL     1      -9.826  10.762  66.714  1.00  0.00    -0.233 C  
HETATM    5  C   UNL     1     -11.490  11.905  65.482  1.00  0.00    -0.252 C  
HETATM    6  C   UNL     1      -9.449  10.921  65.250  1.00  0.00    -0.217 C  
HETATM    7  O   UNL     1     -10.657  11.297  64.588  1.00  0.00    -0.311 OA 
HETATM    8  O   UNL     1     -12.546  12.426  65.167  1.00  0.00    -0.622 OA 
BRANCH   4   9
HETATM    9  C   UNL     1     -10.334   9.335  67.019  1.00  0.00    -0.325 C  
BRANCH   9  10
HETATM   10  C   UNL     1      -9.423   8.591  67.944  1.00  0.00    -0.139 A  
HETATM   11  C   UNL     1      -8.269   7.874  67.681  1.00  0.00    -0.124 A  
HETATM   12  N   UNL     1      -7.753   7.324  68.823  1.00  0.00    -0.117 NA 
HETATM   13  C   UNL     1      -8.557   7.714  69.786  1.00  0.00    -0.135 A  
HETATM   14  N   UNL     1      -9.570   8.492  69.308  1.00  0.00    -0.168 NA 
HETATM   15  C   UNL     1     -10.600   9.093  70.125  1.00  0.00    -0.228 C  
ENDBRANCH   9  10
ENDBRANCH   4   9
ENDBRANCH   2   3
TORSDOF 3
ENDMDL
MODEL      130
REMARK 921   NORMALIZED FREE ENERGY PREDICTED BY IDOCK:   -3.28 KCAL/MOL
REMARK 922        TOTAL FREE ENERGY PREDICTED BY IDOCK:   -4.18 KCAL/MOL
REMARK 923 INTER-LIGAND FREE ENERGY PREDICTED BY IDOCK:   -3.77 KCAL/MOL
REMARK 924 INTRA-LIGAND FREE ENERGY PREDICTED BY IDOCK:   -0.41 KCAL/MOL
REMARK 927      BINDING AFFINITY PREDICTED BY RF-SCORE:    0.00 PKD
ROOT
HETATM    1  C   UNL     1      -9.417  14.410  68.064  1.00  0.00    -0.209 C  
HETATM    2  C   UNL     1     -10.640  13.607  67.637  1.00  0.00    -0.245 C  
ENDROOT
BRANCH   2   3
HETATM    3  C   UNL     1     -10.582  13.115  66.188  1.00  0.00    -0.288 C  
HETATM    4  C   UNL     1     -10.192  11.640  66.006  1.00  0.00    -0.270 C  
HETATM    5  C   UNL     1     -11.903  13.175  65.452  1.00  0.00    -0.372 C  
HETATM    6  C   UNL     1     -10.811  11.344  64.650  1.00  0.00    -0.292 C  
HETATM    7  O   UNL     1     -12.019  12.104  64.613  1.00  0.00    -0.366 OA 
HETATM    8  O   UNL     1     -12.743  14.054  65.536  1.00  0.00    -0.520 OA 
BRANCH   4   9
HETATM    9  C   UNL     1     -10.724  10.683  67.096  1.00  0.00    -0.327 C  
BRANCH   9  10
HETATM   10  C   UNL     1      -9.622  10.000  67.842  1.00  0.00    -0.145 A  
HETATM   11  C   UNL     1      -8.912  10.402  68.960  1.00  0.00    -0.179 A  
HETATM   12  N   UNL     1      -7.963   9.478  69.306  1.00  0.00    -0.088 NA 
HETATM   13  C   UNL     1      -8.097   8.505  68.435  1.00  0.00    -0.122 A  
HETATM   14  N   UNL     1      -9.093   8.766  67.542  1.00  0.00    -0.133 NA 
HETATM   15  C   UNL     1      -9.497   7.873  66.478  1.00  0.00    -0.214 C  
ENDBRANCH   9  10
ENDBRANCH   4   9
ENDBRANCH   2   3
TORSDOF 3
ENDMDL
MODEL      131
REMARK 921   NORMALIZED FREE ENERGY PREDICTED BY IDOCK:   -3.27 KCAL/MOL
REMARK 922        TOTAL FREE ENERGY PREDICTED BY IDOCK:   -4.17 KCAL/MOL
REMARK 923 INTER-LIGAND FREE ENERGY PREDICTED BY IDOCK:   -4.16 KCAL/MOL
REMARK 924 INTRA-LIGAND FREE ENERGY PREDICTED BY IDOCK:   -0.01 KCAL/MOL
REMARK 927      BINDING AFFINITY PREDICTED BY RF-SCORE:    0.00 PKD
ROOT
HETATM    1  C   UNL     1      -7.055  19.031  68.432  1.00  0.00    -0.304 C  
HETATM    2  C   UNL     1      -8.319  18.185  68.512  1.00  0.00    -0.314 C  
ENDROOT
BRANCH   2   3
HETATM    3  C   UNL     1      -8.126  16.737  68.054  1.00  0.00    -0.187 C  
HETATM    4  C   UNL     1      -9.088  15.712  68.677  1.00  0.00    -0.205 C  
HETATM    5  C   UNL     1      -8.354  16.510  66.575  1.00  0.00    -0.292 C  
HETATM    6  C   UNL     1      -9.061  14.616  67.624  1.00  0.00    -0.193 C  
HETATM    7  O   UNL     1      -8.945  15.296  66.375  1.00  0.00    -0.286 OA 
HETATM    8  O   UNL     1      -8.031  17.257  65.667  1.00  0.00    -0.437 OA 
BRANCH   4   9
HETATM    9  C   UNL     1     -10.522  16.229  68.925  1.00  0.00    -0.273 C  
BRANCH   9  10
HETATM   10  C   UNL     1     -11.372  15.229  69.646  1.00  0.00    -0.290 A  
HETATM   11  C   UNL     1     -11.786  13.965  69.267  1.00  0.00    -0.334 A  
HETATM   12  N   UNL     1     -12.581  13.394  70.223  1.00  0.00    -0.180 NA 
HETATM   13  C   UNL     1     -12.639  14.276  71.193  1.00  0.00    -0.362 A  
HETATM   14  N   UNL     1     -11.914  15.393  70.899  1.00  0.00    -0.323 NA 
HETATM   15  C   UNL     1     -11.764  16.530  71.779  1.00  0.00    -0.176 C  
ENDBRANCH   9  10
ENDBRANCH   4   9
ENDBRANCH   2   3
TORSDOF 3
ENDMDL
MODEL      132
REMARK 921   NORMALIZED FREE ENERGY PREDICTED BY IDOCK:   -3.25 KCAL/MOL
REMARK 922        TOTAL FREE ENERGY PREDICTED BY IDOCK:   -4.14 KCAL/MOL
REMARK 923 INTER-LIGAND FREE ENERGY PREDICTED BY IDOCK:   -3.95 KCAL/MOL
REMARK 924 INTRA-LIGAND FREE ENERGY PREDICTED BY IDOCK:   -0.19 KCAL/MOL
REMARK 927      BINDING AFFINITY PREDICTED BY RF-SCORE:    0.00 PKD
ROOT
HETATM    1  C   UNL     1     -11.214   9.535  70.655  1.00  0.00    -0.364 C  
HETATM    2  C   UNL     1     -10.530  10.496  69.690  1.00  0.00    -0.257 C  
ENDROOT
BRANCH   2   3
HETATM    3  C   UNL     1     -11.315  10.740  68.399  1.00  0.00    -0.367 C  
HETATM    4  C   UNL     1     -11.576  12.215  68.053  1.00  0.00    -0.411 C  
HETATM    5  C   UNL     1     -10.627  10.249  67.144  1.00  0.00    -0.260 C  
HETATM    6  C   UNL     1     -11.770  12.126  66.548  1.00  0.00    -0.321 C  
HETATM    7  O   UNL     1     -10.871  11.108  66.111  1.00  0.00    -0.253 OA 
HETATM    8  O   UNL     1      -9.980   9.223  67.022  1.00  0.00    -0.190 OA 
BRANCH   4   9
HETATM    9  C   UNL     1     -10.434  13.186  68.424  1.00  0.00    -0.261 C  
BRANCH   9  10
HETATM   10  C   UNL     1     -10.927  14.575  68.681  1.00  0.00    -0.251 A  
HETATM   11  C   UNL     1     -10.703  15.750  67.986  1.00  0.00    -0.296 A  
HETATM   12  N   UNL     1     -11.329  16.810  68.583  1.00  0.00    -0.176 NA 
HETATM   13  C   UNL     1     -11.955  16.300  69.619  1.00  0.00     0.111 A  
HETATM   14  N   UNL     1     -11.755  14.954  69.712  1.00  0.00    -0.287 NA 
HETATM   15  C   UNL     1     -12.334  14.107  70.731  1.00  0.00    -0.369 C  
ENDBRANCH   9  10
ENDBRANCH   4   9
ENDBRANCH   2   3
TORSDOF 3
ENDMDL
MODEL      133
REMARK 921   NORMALIZED FREE ENERGY PREDICTED BY IDOCK:   -3.25 KCAL/MOL
REMARK 922        TOTAL FREE ENERGY PREDICTED BY IDOCK:   -4.14 KCAL/MOL
REMARK 923 INTER-LIGAND FREE ENERGY PREDICTED BY IDOCK:   -3.71 KCAL/MOL
REMARK 924 INTRA-LIGAND FREE ENERGY PREDICTED BY IDOCK:   -0.43 KCAL/MOL
REMARK 927      BINDING AFFINITY PREDICTED BY RF-SCORE:    0.00 PKD
ROOT
HETATM    1  C   UNL     1     -11.775  10.865  70.282  1.00  0.00    -0.437 C  
HETATM    2  C   UNL     1     -11.041   9.794  71.079  1.00  0.00    -0.431 C  
ENDROOT
BRANCH   2   3
HETATM    3  C   UNL     1     -11.559   8.375  70.831  1.00  0.00    -0.288 C  
HETATM    4  C   UNL     1     -10.983   7.669  69.592  1.00  0.00    -0.145 C  
HETATM    5  C   UNL     1     -11.228   7.386  71.927  1.00  0.00    -0.247 C  
HETATM    6  C   UNL     1     -11.178   6.211  69.977  1.00  0.00    -0.401 C  
HETATM    7  O   UNL     1     -10.962   6.161  71.387  1.00  0.00    -0.257 OA 
HETATM    8  O   UNL     1     -11.232   7.602  73.127  1.00  0.00    -0.391 OA 
BRANCH   4   9
HETATM    9  C   UNL     1      -9.502   7.984  69.288  1.00  0.00    -0.155 C  
BRANCH   9  10
HETATM   10  C   UNL     1      -9.326   8.685  67.978  1.00  0.00    -0.136 A  
HETATM   11  C   UNL     1      -9.208  10.033  67.691  1.00  0.00    -0.137 A  
HETATM   12  N   UNL     1      -9.086  10.247  66.344  1.00  0.00    -0.151 NA 
HETATM   13  C   UNL     1      -9.101   9.051  65.804  1.00  0.00    -0.219 A  
HETATM   14  N   UNL     1      -9.228   8.075  66.749  1.00  0.00    -0.155 NA 
HETATM   15  C   UNL     1      -9.250   6.657  66.468  1.00  0.00    -0.158 C  
ENDBRANCH   9  10
ENDBRANCH   4   9
ENDBRANCH   2   3
TORSDOF 3
ENDMDL
MODEL      134
REMARK 921   NORMALIZED FREE ENERGY PREDICTED BY IDOCK:   -3.24 KCAL/MOL
REMARK 922        TOTAL FREE ENERGY PREDICTED BY IDOCK:   -4.13 KCAL/MOL
REMARK 923 INTER-LIGAND FREE ENERGY PREDICTED BY IDOCK:   -4.56 KCAL/MOL
REMARK 924 INTRA-LIGAND FREE ENERGY PREDICTED BY IDOCK:    0.43 KCAL/MOL
REMARK 927      BINDING AFFINITY PREDICTED BY RF-SCORE:    0.00 PKD
ROOT
HETATM    1  C   UNL     1     -10.212  12.226  67.335  1.00  0.00    -0.213 C  
HETATM    2  C   UNL     1     -11.672  12.654  67.265  1.00  0.00    -0.435 C  
ENDROOT
BRANCH   2   3
HETATM    3  C   UNL     1     -12.118  13.529  68.439  1.00  0.00    -0.293 C  
HETATM    4  C   UNL     1     -12.393  12.780  69.754  1.00  0.00    -0.096 C  
HETATM    5  C   UNL     1     -11.098  14.555  68.880  1.00  0.00    -0.256 C  
HETATM    6  C   UNL     1     -12.189  13.895  70.767  1.00  0.00    -0.369 C  
HETATM    7  O   UNL     1     -11.135  14.697  70.238  1.00  0.00    -0.200 OA 
HETATM    8  O   UNL     1     -10.366  15.211  68.158  1.00  0.00    -0.234 OA 
BRANCH   4   9
HETATM    9  C   UNL     1     -11.459  11.581  70.031  1.00  0.00    -0.304 C  
BRANCH   9  10
HETATM   10  C   UNL     1     -12.116  10.527  70.866  1.00  0.00    -0.383 A  
HETATM   11  C   UNL     1     -13.148  10.624  71.783  1.00  0.00    -0.466 A  
HETATM   12  N   UNL     1     -13.428   9.409  72.348  1.00  0.00    -0.462 NA 
HETATM   13  C   UNL     1     -12.603   8.565  71.773  1.00  0.00    -0.346 A  
HETATM   14  N   UNL     1     -11.802   9.188  70.862  1.00  0.00    -0.286 NA 
HETATM   15  C   UNL     1     -10.810   8.522  70.049  1.00  0.00    -0.223 C  
ENDBRANCH   9  10
ENDBRANCH   4   9
ENDBRANCH   2   3
TORSDOF 3
ENDMDL
MODEL      135
REMARK 921   NORMALIZED FREE ENERGY PREDICTED BY IDOCK:   -3.24 KCAL/MOL
REMARK 922        TOTAL FREE ENERGY PREDICTED BY IDOCK:   -4.13 KCAL/MOL
REMARK 923 INTER-LIGAND FREE ENERGY PREDICTED BY IDOCK:   -3.96 KCAL/MOL
REMARK 924 INTRA-LIGAND FREE ENERGY PREDICTED BY IDOCK:   -0.17 KCAL/MOL
REMARK 927      BINDING AFFINITY PREDICTED BY RF-SCORE:    0.00 PKD
ROOT
HETATM    1  C   UNL     1      -6.260  14.626  69.092  1.00  0.00    -0.105 C  
HETATM    2  C   UNL     1      -6.944  15.961  69.361  1.00  0.00    -0.211 C  
ENDROOT
BRANCH   2   3
HETATM    3  C   UNL     1      -6.090  17.178  68.996  1.00  0.00    -0.185 C  
HETATM    4  C   UNL     1      -6.813  18.277  68.201  1.00  0.00    -0.218 C  
HETATM    5  C   UNL     1      -5.565  17.955  70.184  1.00  0.00    -0.243 C  
HETATM    6  C   UNL     1      -5.962  19.488  68.548  1.00  0.00    -0.225 C  
HETATM    7  O   UNL     1      -5.558  19.291  69.902  1.00  0.00    -0.217 OA 
HETATM    8  O   UNL     1      -5.158  17.490  71.235  1.00  0.00    -0.425 OA 
BRANCH   4   9
HETATM    9  C   UNL     1      -8.294  18.494  68.583  1.00  0.00    -0.330 C  
BRANCH   9  10
HETATM   10  C   UNL     1      -9.234  17.915  67.573  1.00  0.00    -0.249 A  
HETATM   11  C   UNL     1      -9.665  16.613  67.392  1.00  0.00    -0.251 A  
HETATM   12  N   UNL     1     -10.514  16.513  66.323  1.00  0.00    -0.303 NA 
HETATM   13  C   UNL     1     -10.631  17.737  65.862  1.00  0.00    -0.205 A  
HETATM   14  N   UNL     1      -9.891  18.620  66.591  1.00  0.00    -0.334 NA 
HETATM   15  C   UNL     1      -9.835  20.044  66.346  1.00  0.00    -0.459 C  
ENDBRANCH   9  10
ENDBRANCH   4   9
ENDBRANCH   2   3
TORSDOF 3
ENDMDL
MODEL      136
REMARK 921   NORMALIZED FREE ENERGY PREDICTED BY IDOCK:   -3.20 KCAL/MOL
REMARK 922        TOTAL FREE ENERGY PREDICTED BY IDOCK:   -4.08 KCAL/MOL
REMARK 923 INTER-LIGAND FREE ENERGY PREDICTED BY IDOCK:   -3.76 KCAL/MOL
REMARK 924 INTRA-LIGAND FREE ENERGY PREDICTED BY IDOCK:   -0.33 KCAL/MOL
REMARK 927      BINDING AFFINITY PREDICTED BY RF-SCORE:    0.00 PKD
ROOT
HETATM    1  C   UNL     1      -9.459   7.354  66.485  1.00  0.00    -0.229 C  
HETATM    2  C   UNL     1     -10.387   7.446  67.690  1.00  0.00    -0.297 C  
ENDROOT
BRANCH   2   3
HETATM    3  C   UNL     1      -9.709   7.981  68.954  1.00  0.00    -0.159 C  
HETATM    4  C   UNL     1     -10.041   9.439  69.315  1.00  0.00    -0.200 C  
HETATM    5  C   UNL     1     -10.093   7.257  70.226  1.00  0.00    -0.192 C  
HETATM    6  C   UNL     1      -9.764   9.434  70.810  1.00  0.00    -0.264 C  
HETATM    7  O   UNL     1     -10.166   8.142  71.264  1.00  0.00    -0.189 OA 
HETATM    8  O   UNL     1     -10.273   6.058  70.355  1.00  0.00    -0.185 OA 
BRANCH   4   9
HETATM    9  C   UNL     1     -11.489   9.876  69.005  1.00  0.00     0.003 C  
BRANCH   9  10
HETATM   10  C   UNL     1     -11.969  10.953  69.927  1.00  0.00    -0.353 A  
HETATM   11  C   UNL     1     -11.728  12.315  69.918  1.00  0.00    -0.273 A  
HETATM   12  N   UNL     1     -12.346  12.938  70.968  1.00  0.00    -0.312 NA 
HETATM   13  C   UNL     1     -12.984  11.985  71.605  1.00  0.00    -0.334 A  
HETATM   14  N   UNL     1     -12.800  10.772  71.008  1.00  0.00    -0.380 NA 
HETATM   15  C   UNL     1     -13.395   9.535  71.461  1.00  0.00    -0.393 C  
ENDBRANCH   9  10
ENDBRANCH   4   9
ENDBRANCH   2   3
TORSDOF 3
ENDMDL
MODEL      137
REMARK 921   NORMALIZED FREE ENERGY PREDICTED BY IDOCK:   -3.20 KCAL/MOL
REMARK 922        TOTAL FREE ENERGY PREDICTED BY IDOCK:   -4.08 KCAL/MOL
REMARK 923 INTER-LIGAND FREE ENERGY PREDICTED BY IDOCK:   -4.01 KCAL/MOL
REMARK 924 INTRA-LIGAND FREE ENERGY PREDICTED BY IDOCK:   -0.07 KCAL/MOL
REMARK 927      BINDING AFFINITY PREDICTED BY RF-SCORE:    0.00 PKD
ROOT
HETATM    1  C   UNL     1     -10.678   5.840  71.832  1.00  0.00    -0.297 C  
HETATM    2  C   UNL     1     -11.417   6.833  70.943  1.00  0.00    -0.384 C  
ENDROOT
BRANCH   2   3
HETATM    3  C   UNL     1     -12.140   7.938  71.718  1.00  0.00    -0.340 C  
HETATM    4  C   UNL     1     -11.653   9.369  71.436  1.00  0.00    -0.451 C  
HETATM    5  C   UNL     1     -13.618   8.054  71.414  1.00  0.00    -0.232 C  
HETATM    6  C   UNL     1     -12.886  10.172  71.818  1.00  0.00    -0.452 C  
HETATM    7  O   UNL     1     -13.997   9.366  71.429  1.00  0.00    -0.284 OA 
HETATM    8  O   UNL     1     -14.396   7.134  71.224  1.00  0.00    -0.361 OA 
BRANCH   4   9
HETATM    9  C   UNL     1     -11.226   9.640  69.977  1.00  0.00    -0.271 C  
BRANCH   9  10
HETATM   10  C   UNL     1      -9.739   9.643  69.808  1.00  0.00    -0.224 A  
HETATM   11  C   UNL     1      -8.785   8.746  70.252  1.00  0.00    -0.161 A  
HETATM   12  N   UNL     1      -7.524   9.144  69.897  1.00  0.00    -0.063 NA 
HETATM   13  C   UNL     1      -7.692  10.256  69.221  1.00  0.00    -0.130 A  
HETATM   14  N   UNL     1      -9.011  10.591  69.127  1.00  0.00    -0.176 NA 
HETATM   15  C   UNL     1      -9.517  11.747  68.422  1.00  0.00    -0.188 C  
ENDBRANCH   9  10
ENDBRANCH   4   9
ENDBRANCH   2   3
TORSDOF 3
ENDMDL
MODEL      138
REMARK 921   NORMALIZED FREE ENERGY PREDICTED BY IDOCK:   -3.20 KCAL/MOL
REMARK 922        TOTAL FREE ENERGY PREDICTED BY IDOCK:   -4.08 KCAL/MOL
REMARK 923 INTER-LIGAND FREE ENERGY PREDICTED BY IDOCK:   -4.46 KCAL/MOL
REMARK 924 INTRA-LIGAND FREE ENERGY PREDICTED BY IDOCK:    0.38 KCAL/MOL
REMARK 927      BINDING AFFINITY PREDICTED BY RF-SCORE:    0.00 PKD
ROOT
HETATM    1  C   UNL     1     -12.832  13.423  65.276  1.00  0.00    -0.398 C  
HETATM    2  C   UNL     1     -12.267  14.298  66.388  1.00  0.00    -0.426 C  
ENDROOT
BRANCH   2   3
HETATM    3  C   UNL     1     -10.826  13.953  66.776  1.00  0.00    -0.286 C  
HETATM    4  C   UNL     1     -10.675  12.988  67.962  1.00  0.00    -0.248 C  
HETATM    5  C   UNL     1     -10.041  13.239  65.698  1.00  0.00    -0.272 C  
HETATM    6  C   UNL     1      -9.299  12.405  67.683  1.00  0.00    -0.188 C  
HETATM    7  O   UNL     1      -9.209  12.314  66.262  1.00  0.00    -0.225 OA 
HETATM    8  O   UNL     1     -10.084  13.459  64.500  1.00  0.00    -0.341 OA 
BRANCH   4   9
HETATM    9  C   UNL     1     -11.753  11.886  68.051  1.00  0.00    -0.382 C  
BRANCH   9  10
HETATM   10  C   UNL     1     -11.530  10.961  69.207  1.00  0.00    -0.302 A  
HETATM   11  C   UNL     1     -10.852   9.757  69.274  1.00  0.00    -0.216 A  
HETATM   12  N   UNL     1     -10.911   9.221  70.532  1.00  0.00    -0.243 NA 
HETATM   13  C   UNL     1     -11.591  10.089  71.243  1.00  0.00    -0.350 A  
HETATM   14  N   UNL     1     -11.974  11.162  70.493  1.00  0.00    -0.361 NA 
HETATM   15  C   UNL     1     -12.713  12.297  70.999  1.00  0.00    -0.225 C  
ENDBRANCH   9  10
ENDBRANCH   4   9
ENDBRANCH   2   3
TORSDOF 3
ENDMDL
MODEL      139
REMARK 921   NORMALIZED FREE ENERGY PREDICTED BY IDOCK:   -3.18 KCAL/MOL
REMARK 922        TOTAL FREE ENERGY PREDICTED BY IDOCK:   -4.06 KCAL/MOL
REMARK 923 INTER-LIGAND FREE ENERGY PREDICTED BY IDOCK:   -3.69 KCAL/MOL
REMARK 924 INTRA-LIGAND FREE ENERGY PREDICTED BY IDOCK:   -0.37 KCAL/MOL
REMARK 927      BINDING AFFINITY PREDICTED BY RF-SCORE:    0.00 PKD
ROOT
HETATM    1  C   UNL     1     -10.314   8.400  66.781  1.00  0.00    -0.357 C  
HETATM    2  C   UNL     1     -10.317   9.242  68.050  1.00  0.00    -0.270 C  
ENDROOT
BRANCH   2   3
HETATM    3  C   UNL     1     -11.001  10.603  67.889  1.00  0.00    -0.351 C  
HETATM    4  C   UNL     1     -11.948  11.006  69.031  1.00  0.00    -0.364 C  
HETATM    5  C   UNL     1     -10.052  11.781  67.849  1.00  0.00    -0.186 C  
HETATM    6  C   UNL     1     -11.937  12.519  68.891  1.00  0.00    -0.236 C  
HETATM    7  O   UNL     1     -10.610  12.852  68.486  1.00  0.00    -0.245 OA 
HETATM    8  O   UNL     1      -8.964  11.820  67.301  1.00  0.00    -0.163 OA 
BRANCH   4   9
HETATM    9  C   UNL     1     -11.500  10.560  70.441  1.00  0.00    -0.427 C  
BRANCH   9  10
HETATM   10  C   UNL     1     -12.625   9.982  71.241  1.00  0.00    -0.393 A  
HETATM   11  C   UNL     1     -13.506  10.590  72.117  1.00  0.00    -0.160 A  
HETATM   12  N   UNL     1     -14.374   9.681  72.660  1.00  0.00    -0.071 NA 
HETATM   13  C   UNL     1     -14.057   8.532  72.110  1.00  0.00    -0.421 A  
HETATM   14  N   UNL     1     -13.018   8.664  71.237  1.00  0.00    -0.240 NA 
HETATM   15  C   UNL     1     -12.457   7.583  70.457  1.00  0.00     0.192 C  
ENDBRANCH   9  10
ENDBRANCH   4   9
ENDBRANCH   2   3
TORSDOF 3
ENDMDL
MODEL      140
REMARK 921   NORMALIZED FREE ENERGY PREDICTED BY IDOCK:   -3.18 KCAL/MOL
REMARK 922        TOTAL FREE ENERGY PREDICTED BY IDOCK:   -4.06 KCAL/MOL
REMARK 923 INTER-LIGAND FREE ENERGY PREDICTED BY IDOCK:   -3.85 KCAL/MOL
REMARK 924 INTRA-LIGAND FREE ENERGY PREDICTED BY IDOCK:   -0.20 KCAL/MOL
REMARK 927      BINDING AFFINITY PREDICTED BY RF-SCORE:    0.00 PKD
ROOT
HETATM    1  C   UNL     1     -11.796  10.490  69.963  1.00  0.00    -0.388 C  
HETATM    2  C   UNL     1     -10.526  10.377  69.128  1.00  0.00    -0.248 C  
ENDROOT
BRANCH   2   3
HETATM    3  C   UNL     1     -10.759   9.823  67.720  1.00  0.00    -0.329 C  
HETATM    4  C   UNL     1     -10.596  10.837  66.576  1.00  0.00    -0.279 C  
HETATM    5  C   UNL     1      -9.791   8.737  67.304  1.00  0.00    -0.201 C  
HETATM    6  C   UNL     1     -10.276   9.910  65.414  1.00  0.00    -0.078 C  
HETATM    7  O   UNL     1      -9.496   8.856  65.976  1.00  0.00    -0.228 OA 
HETATM    8  O   UNL     1      -9.352   7.845  68.010  1.00  0.00    -0.144 OA 
BRANCH   4   9
HETATM    9  C   UNL     1      -9.486  11.890  66.787  1.00  0.00    -0.207 C  
BRANCH   9  10
HETATM   10  C   UNL     1      -9.989  13.290  66.628  1.00  0.00    -0.272 A  
HETATM   11  C   UNL     1     -10.127  14.305  67.558  1.00  0.00    -0.236 A  
HETATM   12  N   UNL     1     -10.656  15.432  66.990  1.00  0.00    -0.303 NA 
HETATM   13  C   UNL     1     -10.819  15.135  65.722  1.00  0.00    -0.353 A  
HETATM   14  N   UNL     1     -10.418  13.859  65.451  1.00  0.00    -0.327 NA 
HETATM   15  C   UNL     1     -10.450  13.249  64.141  1.00  0.00    -0.260 C  
ENDBRANCH   9  10
ENDBRANCH   4   9
ENDBRANCH   2   3
TORSDOF 3
ENDMDL
MODEL      141
REMARK 921   NORMALIZED FREE ENERGY PREDICTED BY IDOCK:   -3.16 KCAL/MOL
REMARK 922        TOTAL FREE ENERGY PREDICTED BY IDOCK:   -4.03 KCAL/MOL
REMARK 923 INTER-LIGAND FREE ENERGY PREDICTED BY IDOCK:   -3.65 KCAL/MOL
REMARK 924 INTRA-LIGAND FREE ENERGY PREDICTED BY IDOCK:   -0.38 KCAL/MOL
REMARK 927      BINDING AFFINITY PREDICTED BY RF-SCORE:    0.00 PKD
ROOT
HETATM    1  C   UNL     1     -10.826   6.687  68.610  1.00  0.00    -0.319 C  
HETATM    2  C   UNL     1      -9.791   7.714  68.166  1.00  0.00    -0.186 C  
ENDROOT
BRANCH   2   3
HETATM    3  C   UNL     1     -10.056   8.298  66.775  1.00  0.00    -0.373 C  
HETATM    4  C   UNL     1     -10.483   9.774  66.749  1.00  0.00    -0.259 C  
HETATM    5  C   UNL     1      -8.850   8.312  65.861  1.00  0.00    -0.160 C  
HETATM    6  C   UNL     1     -10.062  10.169  65.343  1.00  0.00    -0.272 C  
HETATM    7  O   UNL     1      -8.864   9.437  65.088  1.00  0.00    -0.171 OA 
HETATM    8  O   UNL     1      -7.998   7.446  65.767  1.00  0.00    -0.104 OA 
BRANCH   4   9
HETATM    9  C   UNL     1      -9.813  10.668  67.816  1.00  0.00    -0.187 C  
BRANCH   9  10
HETATM   10  C   UNL     1     -10.774  11.632  68.438  1.00  0.00    -0.217 A  
HETATM   11  C   UNL     1     -11.289  12.822  67.955  1.00  0.00    -0.293 A  
HETATM   12  N   UNL     1     -12.126  13.409  68.865  1.00  0.00    -0.309 NA 
HETATM   13  C   UNL     1     -12.154  12.585  69.887  1.00  0.00    -0.252 A  
HETATM   14  N   UNL     1     -11.367  11.492  69.671  1.00  0.00    -0.269 NA 
HETATM   15  C   UNL     1     -11.211  10.396  70.601  1.00  0.00    -0.275 C  
ENDBRANCH   9  10
ENDBRANCH   4   9
ENDBRANCH   2   3
TORSDOF 3
ENDMDL
MODEL      142
REMARK 921   NORMALIZED FREE ENERGY PREDICTED BY IDOCK:   -3.15 KCAL/MOL
REMARK 922        TOTAL FREE ENERGY PREDICTED BY IDOCK:   -4.02 KCAL/MOL
REMARK 923 INTER-LIGAND FREE ENERGY PREDICTED BY IDOCK:   -3.82 KCAL/MOL
REMARK 924 INTRA-LIGAND FREE ENERGY PREDICTED BY IDOCK:   -0.20 KCAL/MOL
REMARK 927      BINDING AFFINITY PREDICTED BY RF-SCORE:    0.00 PKD
ROOT
HETATM    1  C   UNL     1     -11.642  16.015  68.981  1.00  0.00    -0.350 C  
HETATM    2  C   UNL     1     -10.716  16.976  68.247  1.00  0.00    -0.372 C  
ENDROOT
BRANCH   2   3
HETATM    3  C   UNL     1      -9.235  16.794  68.591  1.00  0.00    -0.257 C  
HETATM    4  C   UNL     1      -8.574  15.530  68.020  1.00  0.00    -0.155 C  
HETATM    5  C   UNL     1      -8.328  17.881  68.057  1.00  0.00    -0.258 C  
HETATM    6  C   UNL     1      -7.115  15.955  67.995  1.00  0.00    -0.130 C  
HETATM    7  O   UNL     1      -7.133  17.345  67.673  1.00  0.00    -0.158 OA 
HETATM    8  O   UNL     1      -8.576  19.074  68.002  1.00  0.00    -0.285 OA 
BRANCH   4   9
HETATM    9  C   UNL     1      -9.068  15.109  66.618  1.00  0.00    -0.310 C  
BRANCH   9  10
HETATM   10  C   UNL     1      -9.858  13.838  66.649  1.00  0.00    -0.284 A  
HETATM   11  C   UNL     1     -11.209  13.617  66.456  1.00  0.00    -0.310 A  
HETATM   12  N   UNL     1     -11.523  12.292  66.598  1.00  0.00    -0.357 NA 
HETATM   13  C   UNL     1     -10.382  11.694  66.849  1.00  0.00    -0.220 A  
HETATM   14  N   UNL     1      -9.346  12.581  66.875  1.00  0.00    -0.213 NA 
HETATM   15  C   UNL     1      -7.964  12.224  67.101  1.00  0.00    -0.161 C  
ENDBRANCH   9  10
ENDBRANCH   4   9
ENDBRANCH   2   3
TORSDOF 3
ENDMDL
MODEL      143
REMARK 921   NORMALIZED FREE ENERGY PREDICTED BY IDOCK:   -3.13 KCAL/MOL
REMARK 922        TOTAL FREE ENERGY PREDICTED BY IDOCK:   -4.00 KCAL/MOL
REMARK 923 INTER-LIGAND FREE ENERGY PREDICTED BY IDOCK:   -3.65 KCAL/MOL
REMARK 924 INTRA-LIGAND FREE ENERGY PREDICTED BY IDOCK:   -0.35 KCAL/MOL
REMARK 927      BINDING AFFINITY PREDICTED BY RF-SCORE:    0.00 PKD
ROOT
HETATM    1  C   UNL     1     -12.443  10.238  71.693  1.00  0.00    -0.491 C  
HETATM    2  C   UNL     1     -12.657  11.247  70.572  1.00  0.00    -0.331 C  
ENDROOT
BRANCH   2   3
HETATM    3  C   UNL     1     -11.390  12.013  70.179  1.00  0.00     0.057 C  
HETATM    4  C   UNL     1     -10.483  11.310  69.156  1.00  0.00    -0.191 C  
HETATM    5  C   UNL     1     -11.645  13.341  69.500  1.00  0.00    -0.286 C  
HETATM    6  C   UNL     1      -9.750  12.500  68.559  1.00  0.00    -0.129 C  
HETATM    7  O   UNL     1     -10.706  13.559  68.533  1.00  0.00    -0.243 OA 
HETATM    8  O   UNL     1     -12.521  14.143  69.777  1.00  0.00    -0.332 OA 
BRANCH   4   9
HETATM    9  C   UNL     1     -11.226  10.497  68.074  1.00  0.00    -0.361 C  
BRANCH   9  10
HETATM   10  C   UNL     1     -10.426   9.328  67.590  1.00  0.00    -0.264 A  
HETATM   11  C   UNL     1     -10.087   8.148  68.228  1.00  0.00    -0.197 A  
HETATM   12  N   UNL     1      -9.315   7.352  67.425  1.00  0.00    -0.130 NA 
HETATM   13  C   UNL     1      -9.198   8.013  66.297  1.00  0.00    -0.184 A  
HETATM   14  N   UNL     1      -9.862   9.203  66.342  1.00  0.00    -0.260 NA 
HETATM   15  C   UNL     1      -9.941  10.141  65.245  1.00  0.00    -0.311 C  
ENDBRANCH   9  10
ENDBRANCH   4   9
ENDBRANCH   2   3
TORSDOF 3
ENDMDL
MODEL      144
REMARK 921   NORMALIZED FREE ENERGY PREDICTED BY IDOCK:   -3.13 KCAL/MOL
REMARK 922        TOTAL FREE ENERGY PREDICTED BY IDOCK:   -4.00 KCAL/MOL
REMARK 923 INTER-LIGAND FREE ENERGY PREDICTED BY IDOCK:   -3.67 KCAL/MOL
REMARK 924 INTRA-LIGAND FREE ENERGY PREDICTED BY IDOCK:   -0.34 KCAL/MOL
REMARK 927      BINDING AFFINITY PREDICTED BY RF-SCORE:    0.00 PKD
ROOT
HETATM    1  C   UNL     1      -7.539   8.509  70.203  1.00  0.00    -0.068 C  
HETATM    2  C   UNL     1      -8.158   8.594  68.813  1.00  0.00    -0.116 C  
ENDROOT
BRANCH   2   3
HETATM    3  C   UNL     1      -9.221   7.525  68.542  1.00  0.00    -0.143 C  
HETATM    4  C   UNL     1     -10.369   7.956  67.615  1.00  0.00    -0.307 C  
HETATM    5  C   UNL     1      -8.705   6.291  67.836  1.00  0.00    -0.114 C  
HETATM    6  C   UNL     1     -10.831   6.608  67.086  1.00  0.00    -0.401 C  
HETATM    7  O   UNL     1      -9.646   5.824  66.964  1.00  0.00    -0.125 OA 
HETATM    8  O   UNL     1      -7.633   5.740  68.023  1.00  0.00    -0.083 OA 
BRANCH   4   9
HETATM    9  C   UNL     1      -9.962   8.908  66.469  1.00  0.00    -0.358 C  
BRANCH   9  10
HETATM   10  C   UNL     1     -10.651  10.234  66.557  1.00  0.00    -0.132 A  
HETATM   11  C   UNL     1     -11.289  10.844  67.622  1.00  0.00    -0.270 A  
HETATM   12  N   UNL     1     -11.812  12.056  67.261  1.00  0.00    -0.598 NA 
HETATM   13  C   UNL     1     -11.481  12.212  66.001  1.00  0.00    -0.370 A  
HETATM   14  N   UNL     1     -10.768  11.146  65.534  1.00  0.00    -0.224 NA 
HETATM   15  C   UNL     1     -10.241  11.035  64.193  1.00  0.00    -0.357 C  
ENDBRANCH   9  10
ENDBRANCH   4   9
ENDBRANCH   2   3
TORSDOF 3
ENDMDL
MODEL      145
REMARK 921   NORMALIZED FREE ENERGY PREDICTED BY IDOCK:   -3.12 KCAL/MOL
REMARK 922        TOTAL FREE ENERGY PREDICTED BY IDOCK:   -3.99 KCAL/MOL
REMARK 923 INTER-LIGAND FREE ENERGY PREDICTED BY IDOCK:   -3.59 KCAL/MOL
REMARK 924 INTRA-LIGAND FREE ENERGY PREDICTED BY IDOCK:   -0.40 KCAL/MOL
REMARK 927      BINDING AFFINITY PREDICTED BY RF-SCORE:    0.00 PKD
ROOT
HETATM    1  C   UNL     1     -10.521  19.253  67.243  1.00  0.00    -0.566 C  
HETATM    2  C   UNL     1      -9.342  18.919  66.338  1.00  0.00    -0.343 C  
ENDROOT
BRANCH   2   3
HETATM    3  C   UNL     1      -7.986  18.960  67.047  1.00  0.00    -0.262 C  
HETATM    4  C   UNL     1      -7.426  17.596  67.481  1.00  0.00    -0.206 C  
HETATM    5  C   UNL     1      -6.853  19.502  66.203  1.00  0.00    -0.235 C  
HETATM    6  C   UNL     1      -5.938  17.904  67.544  1.00  0.00    -0.155 C  
HETATM    7  O   UNL     1      -5.699  18.827  66.483  1.00  0.00    -0.149 OA 
HETATM    8  O   UNL     1      -6.912  20.429  65.414  1.00  0.00    -0.280 OA 
BRANCH   4   9
HETATM    9  C   UNL     1      -7.725  16.429  66.515  1.00  0.00    -0.295 C  
BRANCH   9  10
HETATM   10  C   UNL     1      -8.585  15.377  67.141  1.00  0.00    -0.210 A  
HETATM   11  C   UNL     1      -9.950  15.168  67.058  1.00  0.00    -0.241 A  
HETATM   12  N   UNL     1     -10.337  14.095  67.814  1.00  0.00    -0.240 NA 
HETATM   13  C   UNL     1      -9.229  13.626  68.339  1.00  0.00    -0.169 A  
HETATM   14  N   UNL     1      -8.144  14.356  67.951  1.00  0.00    -0.138 NA 
HETATM   15  C   UNL     1      -6.781  14.072  68.342  1.00  0.00    -0.099 C  
ENDBRANCH   9  10
ENDBRANCH   4   9
ENDBRANCH   2   3
TORSDOF 3
ENDMDL
MODEL      146
REMARK 921   NORMALIZED FREE ENERGY PREDICTED BY IDOCK:   -3.10 KCAL/MOL
REMARK 922        TOTAL FREE ENERGY PREDICTED BY IDOCK:   -3.97 KCAL/MOL
REMARK 923 INTER-LIGAND FREE ENERGY PREDICTED BY IDOCK:   -3.80 KCAL/MOL
REMARK 924 INTRA-LIGAND FREE ENERGY PREDICTED BY IDOCK:   -0.17 KCAL/MOL
REMARK 927      BINDING AFFINITY PREDICTED BY RF-SCORE:    0.00 PKD
ROOT
HETATM    1  C   UNL     1     -12.227  13.667  66.311  1.00  0.00    -0.484 C  
HETATM    2  C   UNL     1     -11.106  14.036  67.275  1.00  0.00    -0.314 C  
ENDROOT
BRANCH   2   3
HETATM    3  C   UNL     1      -9.816  13.242  67.057  1.00  0.00    -0.242 C  
HETATM    4  C   UNL     1      -8.524  14.075  67.025  1.00  0.00    -0.168 C  
HETATM    5  C   UNL     1      -9.505  12.238  68.146  1.00  0.00    -0.213 C  
HETATM    6  C   UNL     1      -7.496  13.026  67.418  1.00  0.00    -0.131 C  
HETATM    7  O   UNL     1      -8.158  12.184  68.361  1.00  0.00    -0.151 OA 
HETATM    8  O   UNL     1     -10.306  11.533  68.735  1.00  0.00    -0.203 OA 
BRANCH   4   9
HETATM    9  C   UNL     1      -8.501  15.283  67.988  1.00  0.00    -0.147 C  
BRANCH   9  10
HETATM   10  C   UNL     1      -8.967  16.545  67.332  1.00  0.00    -0.199 A  
HETATM   11  C   UNL     1      -8.679  17.065  66.083  1.00  0.00    -0.219 A  
HETATM   12  N   UNL     1      -9.302  18.268  65.888  1.00  0.00    -0.474 NA 
HETATM   13  C   UNL     1      -9.988  18.481  66.987  1.00  0.00    -0.344 A  
HETATM   14  N   UNL     1      -9.831  17.463  67.881  1.00  0.00    -0.276 NA 
HETATM   15  C   UNL     1     -10.479  17.396  69.172  1.00  0.00    -0.231 C  
ENDBRANCH   9  10
ENDBRANCH   4   9
ENDBRANCH   2   3
TORSDOF 3
ENDMDL
MODEL      147
REMARK 921   NORMALIZED FREE ENERGY PREDICTED BY IDOCK:   -3.10 KCAL/MOL
REMARK 922        TOTAL FREE ENERGY PREDICTED BY IDOCK:   -3.97 KCAL/MOL
REMARK 923 INTER-LIGAND FREE ENERGY PREDICTED BY IDOCK:   -3.73 KCAL/MOL
REMARK 924 INTRA-LIGAND FREE ENERGY PREDICTED BY IDOCK:   -0.24 KCAL/MOL
REMARK 927      BINDING AFFINITY PREDICTED BY RF-SCORE:    0.00 PKD
ROOT
HETATM    1  C   UNL     1     -11.838  12.599  66.059  1.00  0.00    -0.492 C  
HETATM    2  C   UNL     1     -10.786  11.500  65.967  1.00  0.00    -0.330 C  
ENDROOT
BRANCH   2   3
HETATM    3  C   UNL     1      -9.627  11.669  66.953  1.00  0.00    -0.199 C  
HETATM    4  C   UNL     1      -9.874  11.112  68.364  1.00  0.00    -0.188 C  
HETATM    5  C   UNL     1      -8.357  10.947  66.557  1.00  0.00    -0.155 C  
HETATM    6  C   UNL     1      -8.447  10.873  68.831  1.00  0.00    -0.141 C  
HETATM    7  O   UNL     1      -7.733  10.456  67.668  1.00  0.00    -0.093 OA 
HETATM    8  O   UNL     1      -7.903  10.838  65.431  1.00  0.00    -0.111 OA 
BRANCH   4   9
HETATM    9  C   UNL     1     -10.715   9.818  68.419  1.00  0.00    -0.262 C  
BRANCH   9  10
HETATM   10  C   UNL     1     -10.866   9.295  69.813  1.00  0.00    -0.224 A  
HETATM   11  C   UNL     1     -10.316   8.178  70.416  1.00  0.00    -0.206 A  
HETATM   12  N   UNL     1     -10.739   8.052  71.712  1.00  0.00    -0.230 NA 
HETATM   13  C   UNL     1     -11.518   9.088  71.921  1.00  0.00    -0.370 A  
HETATM   14  N   UNL     1     -11.614   9.875  70.811  1.00  0.00    -0.321 NA 
HETATM   15  C   UNL     1     -12.377  11.100  70.737  1.00  0.00    -0.406 C  
ENDBRANCH   9  10
ENDBRANCH   4   9
ENDBRANCH   2   3
TORSDOF 3
ENDMDL
MODEL      148
REMARK 921   NORMALIZED FREE ENERGY PREDICTED BY IDOCK:   -3.07 KCAL/MOL
REMARK 922        TOTAL FREE ENERGY PREDICTED BY IDOCK:   -3.93 KCAL/MOL
REMARK 923 INTER-LIGAND FREE ENERGY PREDICTED BY IDOCK:   -4.05 KCAL/MOL
REMARK 924 INTRA-LIGAND FREE ENERGY PREDICTED BY IDOCK:    0.13 KCAL/MOL
REMARK 927      BINDING AFFINITY PREDICTED BY RF-SCORE:    0.00 PKD
ROOT
HETATM    1  C   UNL     1     -11.054  14.333  65.405  1.00  0.00    -0.327 C  
HETATM    2  C   UNL     1      -9.792  15.161  65.613  1.00  0.00    -0.378 C  
ENDROOT
BRANCH   2   3
HETATM    3  C   UNL     1      -9.076  14.878  66.936  1.00  0.00    -0.271 C  
HETATM    4  C   UNL     1      -7.819  15.721  67.201  1.00  0.00    -0.247 C  
HETATM    5  C   UNL     1      -9.903  15.167  68.170  1.00  0.00    -0.218 C  
HETATM    6  C   UNL     1      -7.749  15.664  68.718  1.00  0.00    -0.165 C  
HETATM    7  O   UNL     1      -9.106  15.670  69.159  1.00  0.00    -0.220 OA 
HETATM    8  O   UNL     1     -11.094  14.954  68.314  1.00  0.00    -0.260 OA 
BRANCH   4   9
HETATM    9  C   UNL     1      -7.887  17.177  66.688  1.00  0.00    -0.297 C  
BRANCH   9  10
HETATM   10  C   UNL     1      -7.320  18.154  67.669  1.00  0.00    -0.213 A  
HETATM   11  C   UNL     1      -6.006  18.477  67.957  1.00  0.00    -0.188 A  
HETATM   12  N   UNL     1      -5.929  19.415  68.951  1.00  0.00    -0.225 NA 
HETATM   13  C   UNL     1      -7.174  19.692  69.259  1.00  0.00    -0.299 A  
HETATM   14  N   UNL     1      -8.050  18.969  68.503  1.00  0.00    -0.339 NA 
HETATM   15  C   UNL     1      -9.490  19.072  68.591  1.00  0.00    -0.405 C  
ENDBRANCH   9  10
ENDBRANCH   4   9
ENDBRANCH   2   3
TORSDOF 3
ENDMDL
MODEL      149
REMARK 921   NORMALIZED FREE ENERGY PREDICTED BY IDOCK:   -3.05 KCAL/MOL
REMARK 922        TOTAL FREE ENERGY PREDICTED BY IDOCK:   -3.91 KCAL/MOL
REMARK 923 INTER-LIGAND FREE ENERGY PREDICTED BY IDOCK:   -3.59 KCAL/MOL
REMARK 924 INTRA-LIGAND FREE ENERGY PREDICTED BY IDOCK:   -0.32 KCAL/MOL
REMARK 927      BINDING AFFINITY PREDICTED BY RF-SCORE:    0.00 PKD
ROOT
HETATM    1  C   UNL     1      -8.557  14.713  67.692  1.00  0.00    -0.182 C  
HETATM    2  C   UNL     1      -9.519  13.534  67.622  1.00  0.00    -0.222 C  
ENDROOT
BRANCH   2   3
HETATM    3  C   UNL     1     -10.485  13.593  66.436  1.00  0.00    -0.288 C  
HETATM    4  C   UNL     1     -10.806  12.241  65.777  1.00  0.00    -0.313 C  
HETATM    5  C   UNL     1     -11.868  14.102  66.777  1.00  0.00    -0.425 C  
HETATM    6  C   UNL     1     -12.153  12.545  65.140  1.00  0.00    -0.446 C  
HETATM    7  O   UNL     1     -12.807  13.433  66.046  1.00  0.00    -0.299 OA 
HETATM    8  O   UNL     1     -12.141  15.004  67.552  1.00  0.00    -0.186 OA 
BRANCH   4   9
HETATM    9  C   UNL     1     -10.894  11.044  66.750  1.00  0.00    -0.307 C  
BRANCH   9  10
HETATM   10  C   UNL     1      -9.734  10.109  66.609  1.00  0.00    -0.192 A  
HETATM   11  C   UNL     1      -9.207   9.497  65.486  1.00  0.00    -0.234 A  
HETATM   12  N   UNL     1      -8.149   8.690  65.808  1.00  0.00    -0.109 NA 
HETATM   13  C   UNL     1      -8.003   8.818  67.106  1.00  0.00    -0.096 A  
HETATM   14  N   UNL     1      -8.926   9.674  67.633  1.00  0.00    -0.125 NA 
HETATM   15  C   UNL     1      -9.005  10.038  69.030  1.00  0.00    -0.163 C  
ENDBRANCH   9  10
ENDBRANCH   4   9
ENDBRANCH   2   3
TORSDOF 3
ENDMDL
MODEL      150
REMARK 921   NORMALIZED FREE ENERGY PREDICTED BY IDOCK:   -3.03 KCAL/MOL
REMARK 922        TOTAL FREE ENERGY PREDICTED BY IDOCK:   -3.88 KCAL/MOL
REMARK 923 INTER-LIGAND FREE ENERGY PREDICTED BY IDOCK:   -4.38 KCAL/MOL
REMARK 924 INTRA-LIGAND FREE ENERGY PREDICTED BY IDOCK:    0.49 KCAL/MOL
REMARK 927      BINDING AFFINITY PREDICTED BY RF-SCORE:    0.00 PKD
ROOT
HETATM    1  C   UNL     1      -8.027  12.966  68.226  1.00  0.00    -0.151 C  
HETATM    2  C   UNL     1      -8.918  14.200  68.158  1.00  0.00    -0.188 C  
ENDROOT
BRANCH   2   3
HETATM    3  C   UNL     1     -10.080  14.072  67.169  1.00  0.00    -0.259 C  
HETATM    4  C   UNL     1     -10.436  15.354  66.399  1.00  0.00    -0.307 C  
HETATM    5  C   UNL     1      -9.837  13.094  66.040  1.00  0.00    -0.260 C  
HETATM    6  C   UNL     1     -11.109  14.770  65.167  1.00  0.00    -0.384 C  
HETATM    7  O   UNL     1     -10.402  13.562  64.888  1.00  0.00    -0.366 OA 
HETATM    8  O   UNL     1      -9.267  12.020  66.118  1.00  0.00    -0.224 OA 
BRANCH   4   9
HETATM    9  C   UNL     1      -9.233  16.246  66.022  1.00  0.00    -0.351 C  
BRANCH   9  10
HETATM   10  C   UNL     1      -9.544  17.705  66.146  1.00  0.00    -0.188 A  
HETATM   11  C   UNL     1     -10.740  18.347  66.410  1.00  0.00    -0.178 A  
HETATM   12  N   UNL     1     -10.586  19.707  66.412  1.00  0.00    -0.485 NA 
HETATM   13  C   UNL     1      -9.309  19.908  66.181  1.00  0.00    -0.358 A  
HETATM   14  N   UNL     1      -8.636  18.732  66.029  1.00  0.00    -0.484 NA 
HETATM   15  C   UNL     1      -7.215  18.624  65.789  1.00  0.00    -0.193 C  
ENDBRANCH   9  10
ENDBRANCH   4   9
ENDBRANCH   2   3
TORSDOF 3
ENDMDL
MODEL      151
REMARK 921   NORMALIZED FREE ENERGY PREDICTED BY IDOCK:   -3.02 KCAL/MOL
REMARK 922        TOTAL FREE ENERGY PREDICTED BY IDOCK:   -3.87 KCAL/MOL
REMARK 923 INTER-LIGAND FREE ENERGY PREDICTED BY IDOCK:   -3.68 KCAL/MOL
REMARK 924 INTRA-LIGAND FREE ENERGY PREDICTED BY IDOCK:   -0.19 KCAL/MOL
REMARK 927      BINDING AFFINITY PREDICTED BY RF-SCORE:    0.00 PKD
ROOT
HETATM    1  C   UNL     1     -12.467   8.162  71.473  1.00  0.00    -0.333 C  
HETATM    2  C   UNL     1     -11.467   9.277  71.194  1.00  0.00    -0.403 C  
ENDROOT
BRANCH   2   3
HETATM    3  C   UNL     1     -11.685   9.983  69.853  1.00  0.00    -0.190 C  
HETATM    4  C   UNL     1     -12.409  11.337  69.930  1.00  0.00    -0.301 C  
HETATM    5  C   UNL     1     -10.412  10.357  69.126  1.00  0.00    -0.227 C  
HETATM    6  C   UNL     1     -11.920  11.996  68.650  1.00  0.00    -0.235 C  
HETATM    7  O   UNL     1     -10.573  11.554  68.488  1.00  0.00    -0.193 OA 
HETATM    8  O   UNL     1      -9.391   9.695  69.060  1.00  0.00    -0.148 OA 
BRANCH   4   9
HETATM    9  C   UNL     1     -12.072  12.189  71.173  1.00  0.00     0.085 C  
BRANCH   9  10
HETATM   10  C   UNL     1     -12.695  13.549  71.119  1.00  0.00    -0.344 A  
HETATM   11  C   UNL     1     -13.949  13.977  71.514  1.00  0.00    -0.238 A  
HETATM   12  N   UNL     1     -14.123  15.311  71.261  1.00  0.00    -0.478 NA 
HETATM   13  C   UNL     1     -12.986  15.713  70.743  1.00  0.00    -0.359 A  
HETATM   14  N   UNL     1     -12.088  14.691  70.650  1.00  0.00    -0.295 NA 
HETATM   15  C   UNL     1     -10.740  14.825  70.144  1.00  0.00    -0.018 C  
ENDBRANCH   9  10
ENDBRANCH   4   9
ENDBRANCH   2   3
TORSDOF 3
ENDMDL
MODEL      152
REMARK 921   NORMALIZED FREE ENERGY PREDICTED BY IDOCK:   -2.97 KCAL/MOL
REMARK 922        TOTAL FREE ENERGY PREDICTED BY IDOCK:   -3.82 KCAL/MOL
REMARK 923 INTER-LIGAND FREE ENERGY PREDICTED BY IDOCK:   -4.16 KCAL/MOL
REMARK 924 INTRA-LIGAND FREE ENERGY PREDICTED BY IDOCK:    0.34 KCAL/MOL
REMARK 927      BINDING AFFINITY PREDICTED BY RF-SCORE:    0.00 PKD
ROOT
HETATM    1  C   UNL     1     -10.019  15.699  68.564  1.00  0.00    -0.211 C  
HETATM    2  C   UNL     1     -11.414  15.453  68.005  1.00  0.00    -0.333 C  
ENDROOT
BRANCH   2   3
HETATM    3  C   UNL     1     -12.019  14.109  68.419  1.00  0.00    -0.366 C  
HETATM    4  C   UNL     1     -11.674  12.920  67.507  1.00  0.00    -0.422 C  
HETATM    5  C   UNL     1     -11.558  13.602  69.768  1.00  0.00    -0.254 C  
HETATM    6  C   UNL     1     -11.862  11.758  68.468  1.00  0.00    -0.303 C  
HETATM    7  O   UNL     1     -11.429  12.244  69.737  1.00  0.00    -0.247 OA 
HETATM    8  O   UNL     1     -11.365  14.271  70.769  1.00  0.00    -0.116 OA 
BRANCH   4   9
HETATM    9  C   UNL     1     -10.248  12.944  66.913  1.00  0.00    -0.243 C  
BRANCH   9  10
HETATM   10  C   UNL     1     -10.037  11.867  65.896  1.00  0.00    -0.234 A  
HETATM   11  C   UNL     1      -9.501  10.599  66.030  1.00  0.00    -0.193 A  
HETATM   12  N   UNL     1      -9.468   9.941  64.830  1.00  0.00    -0.278 NA 
HETATM   13  C   UNL     1      -9.999  10.775  63.967  1.00  0.00    -0.342 A  
HETATM   14  N   UNL     1     -10.372  11.944  64.564  1.00  0.00    -0.277 NA 
HETATM   15  C   UNL     1     -11.009  13.048  63.881  1.00  0.00    -0.339 C  
ENDBRANCH   9  10
ENDBRANCH   4   9
ENDBRANCH   2   3
TORSDOF 3
ENDMDL
MODEL      153
REMARK 921   NORMALIZED FREE ENERGY PREDICTED BY IDOCK:   -2.97 KCAL/MOL
REMARK 922        TOTAL FREE ENERGY PREDICTED BY IDOCK:   -3.81 KCAL/MOL
REMARK 923 INTER-LIGAND FREE ENERGY PREDICTED BY IDOCK:   -3.43 KCAL/MOL
REMARK 924 INTRA-LIGAND FREE ENERGY PREDICTED BY IDOCK:   -0.38 KCAL/MOL
REMARK 927      BINDING AFFINITY PREDICTED BY RF-SCORE:    0.00 PKD
ROOT
HETATM    1  C   UNL     1      -8.631  12.231  67.682  1.00  0.00    -0.169 C  
HETATM    2  C   UNL     1      -9.477  11.328  68.571  1.00  0.00    -0.191 C  
ENDROOT
BRANCH   2   3
HETATM    3  C   UNL     1      -9.081   9.850  68.507  1.00  0.00    -0.125 C  
HETATM    4  C   UNL     1      -9.015   9.125  69.861  1.00  0.00    -0.183 C  
HETATM    5  C   UNL     1     -10.047   8.975  67.739  1.00  0.00    -0.208 C  
HETATM    6  C   UNL     1      -9.225   7.684  69.424  1.00  0.00    -0.149 C  
HETATM    7  O   UNL     1     -10.142   7.749  68.333  1.00  0.00    -0.180 OA 
HETATM    8  O   UNL     1     -10.637   9.269  66.713  1.00  0.00    -0.221 OA 
BRANCH   4   9
HETATM    9  C   UNL     1     -10.076   9.567  70.893  1.00  0.00    -0.330 C  
BRANCH   9  10
HETATM   10  C   UNL     1     -10.239   8.578  72.003  1.00  0.00    -0.321 A  
HETATM   11  C   UNL     1      -9.407   8.277  73.066  1.00  0.00    -0.240 A  
HETATM   12  N   UNL     1      -9.930   7.280  73.843  1.00  0.00    -0.313 NA 
HETATM   13  C   UNL     1     -11.082   6.981  73.289  1.00  0.00    -0.182 A  
HETATM   14  N   UNL     1     -11.320   7.747  72.185  1.00  0.00    -0.282 NA 
HETATM   15  C   UNL     1     -12.516   7.671  71.376  1.00  0.00    -0.333 C  
ENDBRANCH   9  10
ENDBRANCH   4   9
ENDBRANCH   2   3
TORSDOF 3
ENDMDL
MODEL      154
REMARK 921   NORMALIZED FREE ENERGY PREDICTED BY IDOCK:   -2.95 KCAL/MOL
REMARK 922        TOTAL FREE ENERGY PREDICTED BY IDOCK:   -3.79 KCAL/MOL
REMARK 923 INTER-LIGAND FREE ENERGY PREDICTED BY IDOCK:   -3.43 KCAL/MOL
REMARK 924 INTRA-LIGAND FREE ENERGY PREDICTED BY IDOCK:   -0.35 KCAL/MOL
REMARK 927      BINDING AFFINITY PREDICTED BY RF-SCORE:    0.00 PKD
ROOT
HETATM    1  C   UNL     1      -8.611  16.371  66.382  1.00  0.00    -0.358 C  
HETATM    2  C   UNL     1      -8.887  14.953  66.867  1.00  0.00    -0.284 C  
ENDROOT
BRANCH   2   3
HETATM    3  C   UNL     1     -10.161  14.336  66.283  1.00  0.00    -0.308 C  
HETATM    4  C   UNL     1     -10.168  12.801  66.189  1.00  0.00    -0.286 C  
HETATM    5  C   UNL     1     -11.412  14.598  67.093  1.00  0.00    -0.368 C  
HETATM    6  C   UNL     1     -11.662  12.521  66.192  1.00  0.00    -0.409 C  
HETATM    7  O   UNL     1     -12.229  13.504  67.058  1.00  0.00    -0.372 OA 
HETATM    8  O   UNL     1     -11.704  15.633  67.666  1.00  0.00    -0.182 OA 
BRANCH   4   9
HETATM    9  C   UNL     1      -9.449  12.071  67.345  1.00  0.00    -0.177 C  
BRANCH   9  10
HETATM   10  C   UNL     1      -8.280  11.267  66.871  1.00  0.00    -0.153 A  
HETATM   11  C   UNL     1      -6.964  11.637  66.658  1.00  0.00    -0.026 A  
HETATM   12  N   UNL     1      -6.219  10.587  66.194  1.00  0.00    -0.100 NA 
HETATM   13  C   UNL     1      -7.050   9.572  66.145  1.00  0.00    -0.092 A  
HETATM   14  N   UNL     1      -8.301   9.928  66.557  1.00  0.00    -0.124 NA 
HETATM   15  C   UNL     1      -9.427   9.024  66.639  1.00  0.00    -0.194 C  
ENDBRANCH   9  10
ENDBRANCH   4   9
ENDBRANCH   2   3
TORSDOF 3
ENDMDL
MODEL      155
REMARK 921   NORMALIZED FREE ENERGY PREDICTED BY IDOCK:   -2.92 KCAL/MOL
REMARK 922        TOTAL FREE ENERGY PREDICTED BY IDOCK:   -3.76 KCAL/MOL
REMARK 923 INTER-LIGAND FREE ENERGY PREDICTED BY IDOCK:   -4.10 KCAL/MOL
REMARK 924 INTRA-LIGAND FREE ENERGY PREDICTED BY IDOCK:    0.34 KCAL/MOL
REMARK 927      BINDING AFFINITY PREDICTED BY RF-SCORE:    0.00 PKD
ROOT
HETATM    1  C   UNL     1      -9.237  15.542  69.236  1.00  0.00    -0.268 C  
HETATM    2  C   UNL     1     -10.081  16.798  69.410  1.00  0.00    -0.177 C  
ENDROOT
BRANCH   2   3
HETATM    3  C   UNL     1     -10.377  17.532  68.099  1.00  0.00    -0.375 C  
HETATM    4  C   UNL     1      -9.253  18.446  67.585  1.00  0.00    -0.274 C  
HETATM    5  C   UNL     1     -10.602  16.625  66.909  1.00  0.00    -0.229 C  
HETATM    6  C   UNL     1      -9.577  18.490  66.100  1.00  0.00    -0.194 C  
HETATM    7  O   UNL     1     -10.076  17.192  65.784  1.00  0.00    -0.529 OA 
HETATM    8  O   UNL     1     -11.197  15.561  66.908  1.00  0.00    -0.276 OA 
BRANCH   4   9
HETATM    9  C   UNL     1      -7.821  17.928  67.840  1.00  0.00    -0.230 C  
BRANCH   9  10
HETATM   10  C   UNL     1      -7.005  18.885  68.652  1.00  0.00    -0.285 A  
HETATM   11  C   UNL     1      -6.534  18.785  69.949  1.00  0.00    -0.057 A  
HETATM   12  N   UNL     1      -5.844  19.908  70.317  1.00  0.00    -0.290 NA 
HETATM   13  C   UNL     1      -5.860  20.683  69.258  1.00  0.00    -0.356 A  
HETATM   14  N   UNL     1      -6.536  20.104  68.224  1.00  0.00    -0.278 NA 
HETATM   15  C   UNL     1      -6.705  20.700  66.917  1.00  0.00    -0.279 C  
ENDBRANCH   9  10
ENDBRANCH   4   9
ENDBRANCH   2   3
TORSDOF 3
ENDMDL
MODEL      156
REMARK 921   NORMALIZED FREE ENERGY PREDICTED BY IDOCK:   -2.92 KCAL/MOL
REMARK 922        TOTAL FREE ENERGY PREDICTED BY IDOCK:   -3.76 KCAL/MOL
REMARK 923 INTER-LIGAND FREE ENERGY PREDICTED BY IDOCK:   -3.39 KCAL/MOL
REMARK 924 INTRA-LIGAND FREE ENERGY PREDICTED BY IDOCK:   -0.36 KCAL/MOL
REMARK 927      BINDING AFFINITY PREDICTED BY RF-SCORE:    0.00 PKD
ROOT
HETATM    1  C   UNL     1      -7.188   6.089  66.661  1.00  0.00    -0.074 C  
HETATM    2  C   UNL     1      -8.451   6.827  67.087  1.00  0.00    -0.120 C  
ENDROOT
BRANCH   2   3
HETATM    3  C   UNL     1      -8.181   8.117  67.866  1.00  0.00    -0.129 C  
HETATM    4  C   UNL     1      -8.644   9.413  67.181  1.00  0.00    -0.130 C  
HETATM    5  C   UNL     1      -8.892   8.205  69.199  1.00  0.00    -0.144 C  
HETATM    6  C   UNL     1      -8.809  10.329  68.383  1.00  0.00    -0.129 C  
HETATM    7  O   UNL     1      -9.286   9.491  69.434  1.00  0.00    -0.156 OA 
HETATM    8  O   UNL     1      -9.067   7.296  69.992  1.00  0.00    -0.148 OA 
BRANCH   4   9
HETATM    9  C   UNL     1      -9.955   9.293  66.373  1.00  0.00    -0.356 C  
BRANCH   9  10
HETATM   10  C   UNL     1     -10.025  10.279  65.249  1.00  0.00    -0.317 A  
HETATM   11  C   UNL     1      -9.482  10.229  63.978  1.00  0.00    -0.300 A  
HETATM   12  N   UNL     1      -9.768  11.365  63.269  1.00  0.00    -0.365 NA 
HETATM   13  C   UNL     1     -10.500  12.098  64.076  1.00  0.00    -0.386 A  
HETATM   14  N   UNL     1     -10.694  11.480  65.276  1.00  0.00    -0.286 NA 
HETATM   15  C   UNL     1     -11.478  12.024  66.363  1.00  0.00    -0.353 C  
ENDBRANCH   9  10
ENDBRANCH   4   9
ENDBRANCH   2   3
TORSDOF 3
ENDMDL
MODEL      157
REMARK 921   NORMALIZED FREE ENERGY PREDICTED BY IDOCK:   -2.92 KCAL/MOL
REMARK 922        TOTAL FREE ENERGY PREDICTED BY IDOCK:   -3.75 KCAL/MOL
REMARK 923 INTER-LIGAND FREE ENERGY PREDICTED BY IDOCK:   -4.02 KCAL/MOL
REMARK 924 INTRA-LIGAND FREE ENERGY PREDICTED BY IDOCK:    0.26 KCAL/MOL
REMARK 927      BINDING AFFINITY PREDICTED BY RF-SCORE:    0.00 PKD
ROOT
HETATM    1  C   UNL     1     -10.548  15.459  69.930  1.00  0.00    -0.315 C  
HETATM    2  C   UNL     1     -11.181  16.395  68.908  1.00  0.00    -0.304 C  
ENDROOT
BRANCH   2   3
HETATM    3  C   UNL     1     -10.998  15.941  67.457  1.00  0.00    -0.280 C  
HETATM    4  C   UNL     1      -9.900  16.674  66.669  1.00  0.00    -0.285 C  
HETATM    5  C   UNL     1     -10.575  14.497  67.299  1.00  0.00    -0.280 C  
HETATM    6  C   UNL     1      -9.574  15.640  65.603  1.00  0.00    -0.284 C  
HETATM    7  O   UNL     1      -9.710  14.375  66.250  1.00  0.00    -0.286 OA 
HETATM    8  O   UNL     1     -10.962  13.549  67.962  1.00  0.00    -0.239 OA 
BRANCH   4   9
HETATM    9  C   UNL     1      -8.650  17.058  67.491  1.00  0.00    -0.212 C  
BRANCH   9  10
HETATM   10  C   UNL     1      -8.183  18.450  67.201  1.00  0.00    -0.245 A  
HETATM   11  C   UNL     1      -7.375  18.931  66.186  1.00  0.00    -0.266 A  
HETATM   12  N   UNL     1      -7.174  20.279  66.306  1.00  0.00    -0.276 NA 
HETATM   13  C   UNL     1      -7.865  20.637  67.363  1.00  0.00    -0.283 A  
HETATM   14  N   UNL     1      -8.503  19.572  67.928  1.00  0.00    -0.309 NA 
HETATM   15  C   UNL     1      -9.362  19.651  69.089  1.00  0.00    -0.153 C  
ENDBRANCH   9  10
ENDBRANCH   4   9
ENDBRANCH   2   3
TORSDOF 3
ENDMDL
MODEL      158
REMARK 921   NORMALIZED FREE ENERGY PREDICTED BY IDOCK:   -2.91 KCAL/MOL
REMARK 922        TOTAL FREE ENERGY PREDICTED BY IDOCK:   -3.74 KCAL/MOL
REMARK 923 INTER-LIGAND FREE ENERGY PREDICTED BY IDOCK:   -4.05 KCAL/MOL
REMARK 924 INTRA-LIGAND FREE ENERGY PREDICTED BY IDOCK:    0.31 KCAL/MOL
REMARK 927      BINDING AFFINITY PREDICTED BY RF-SCORE:    0.00 PKD
ROOT
HETATM    1  C   UNL     1      -8.846   6.696  71.441  1.00  0.00    -0.139 C  
HETATM    2  C   UNL     1      -8.730   8.208  71.589  1.00  0.00    -0.188 C  
ENDROOT
BRANCH   2   3
HETATM    3  C   UNL     1     -10.056   8.903  71.909  1.00  0.00    -0.393 C  
HETATM    4  C   UNL     1     -10.843   9.417  70.693  1.00  0.00    -0.346 C  
HETATM    5  C   UNL     1     -11.080   8.019  72.585  1.00  0.00    -0.387 C  
HETATM    6  C   UNL     1     -12.254   9.449  71.258  1.00  0.00    -0.345 C  
HETATM    7  O   UNL     1     -12.333   8.330  72.140  1.00  0.00    -0.328 OA 
HETATM    8  O   UNL     1     -10.863   7.174  73.437  1.00  0.00    -0.351 OA 
BRANCH   4   9
HETATM    9  C   UNL     1     -10.754   8.527  69.433  1.00  0.00    -0.166 C  
BRANCH   9  10
HETATM   10  C   UNL     1     -10.611   9.329  68.178  1.00  0.00    -0.198 A  
HETATM   11  C   UNL     1     -10.804  10.680  67.950  1.00  0.00    -0.277 A  
HETATM   12  N   UNL     1     -10.586  10.999  66.637  1.00  0.00    -0.257 NA 
HETATM   13  C   UNL     1     -10.237   9.872  66.062  1.00  0.00    -0.198 A  
HETATM   14  N   UNL     1     -10.222   8.839  66.953  1.00  0.00    -0.275 NA 
HETATM   15  C   UNL     1      -9.853   7.480  66.628  1.00  0.00    -0.204 C  
ENDBRANCH   9  10
ENDBRANCH   4   9
ENDBRANCH   2   3
TORSDOF 3
ENDMDL
MODEL      159
REMARK 921   NORMALIZED FREE ENERGY PREDICTED BY IDOCK:   -2.91 KCAL/MOL
REMARK 922        TOTAL FREE ENERGY PREDICTED BY IDOCK:   -3.74 KCAL/MOL
REMARK 923 INTER-LIGAND FREE ENERGY PREDICTED BY IDOCK:   -3.73 KCAL/MOL
REMARK 924 INTRA-LIGAND FREE ENERGY PREDICTED BY IDOCK:   -0.01 KCAL/MOL
REMARK 927      BINDING AFFINITY PREDICTED BY RF-SCORE:    0.00 PKD
ROOT
HETATM    1  C   UNL     1      -6.018  17.708  66.237  1.00  0.00    -0.255 C  
HETATM    2  C   UNL     1      -6.127  16.517  67.182  1.00  0.00    -0.196 C  
ENDROOT
BRANCH   2   3
HETATM    3  C   UNL     1      -7.184  16.690  68.276  1.00  0.00    -0.169 C  
HETATM    4  C   UNL     1      -8.619  16.316  67.872  1.00  0.00    -0.173 C  
HETATM    5  C   UNL     1      -6.973  15.819  69.495  1.00  0.00    -0.191 C  
HETATM    6  C   UNL     1      -9.227  16.004  69.231  1.00  0.00    -0.243 C  
HETATM    7  O   UNL     1      -8.176  15.400  69.984  1.00  0.00    -0.018 OA 
HETATM    8  O   UNL     1      -5.906  15.547  70.019  1.00  0.00    -0.134 OA 
BRANCH   4   9
HETATM    9  C   UNL     1      -8.736  15.115  66.908  1.00  0.00    -0.289 C  
BRANCH   9  10
HETATM   10  C   UNL     1     -10.115  14.535  66.883  1.00  0.00    -0.257 A  
HETATM   11  C   UNL     1     -10.748  13.688  67.774  1.00  0.00    -0.246 A  
HETATM   12  N   UNL     1     -12.014  13.379  67.355  1.00  0.00    -0.364 NA 
HETATM   13  C   UNL     1     -12.177  14.043  66.235  1.00  0.00    -0.462 A  
HETATM   14  N   UNL     1     -11.065  14.767  65.915  1.00  0.00    -0.335 NA 
HETATM   15  C   UNL     1     -10.947  15.621  64.755  1.00  0.00    -0.400 C  
ENDBRANCH   9  10
ENDBRANCH   4   9
ENDBRANCH   2   3
TORSDOF 3
ENDMDL
MODEL      160
REMARK 921   NORMALIZED FREE ENERGY PREDICTED BY IDOCK:   -2.90 KCAL/MOL
REMARK 922        TOTAL FREE ENERGY PREDICTED BY IDOCK:   -3.73 KCAL/MOL
REMARK 923 INTER-LIGAND FREE ENERGY PREDICTED BY IDOCK:   -3.35 KCAL/MOL
REMARK 924 INTRA-LIGAND FREE ENERGY PREDICTED BY IDOCK:   -0.38 KCAL/MOL
REMARK 927      BINDING AFFINITY PREDICTED BY RF-SCORE:    0.00 PKD
ROOT
HETATM    1  C   UNL     1     -10.076   8.996  67.249  1.00  0.00    -0.297 C  
HETATM    2  C   UNL     1     -10.580   7.616  67.653  1.00  0.00    -0.294 C  
ENDROOT
BRANCH   2   3
HETATM    3  C   UNL     1      -9.464   6.594  67.891  1.00  0.00    -0.117 C  
HETATM    4  C   UNL     1      -9.406   5.998  69.306  1.00  0.00    -0.146 C  
HETATM    5  C   UNL     1      -9.562   5.348  67.038  1.00  0.00    -0.139 C  
HETATM    6  C   UNL     1      -8.691   4.684  69.034  1.00  0.00    -0.085 C  
HETATM    7  O   UNL     1      -9.156   4.259  67.754  1.00  0.00    -0.116 OA 
HETATM    8  O   UNL     1      -9.904   5.292  65.869  1.00  0.00    -0.152 OA 
BRANCH   4   9
HETATM    9  C   UNL     1     -10.778   5.770  69.978  1.00  0.00    -0.400 C  
BRANCH   9  10
HETATM   10  C   UNL     1     -10.807   6.254  71.394  1.00  0.00    -0.261 A  
HETATM   11  C   UNL     1     -10.451   5.614  72.567  1.00  0.00    -0.213 A  
HETATM   12  N   UNL     1     -10.658   6.417  73.656  1.00  0.00    -0.280 NA 
HETATM   13  C   UNL     1     -11.111   7.548  73.167  1.00  0.00    -0.326 A  
HETATM   14  N   UNL     1     -11.204   7.504  71.807  1.00  0.00    -0.241 NA 
HETATM   15  C   UNL     1     -11.645   8.604  70.978  1.00  0.00    -0.281 C  
ENDBRANCH   9  10
ENDBRANCH   4   9
ENDBRANCH   2   3
TORSDOF 3
ENDMDL
MODEL      161
REMARK 921   NORMALIZED FREE ENERGY PREDICTED BY IDOCK:   -2.89 KCAL/MOL
REMARK 922        TOTAL FREE ENERGY PREDICTED BY IDOCK:   -3.72 KCAL/MOL
REMARK 923 INTER-LIGAND FREE ENERGY PREDICTED BY IDOCK:   -3.41 KCAL/MOL
REMARK 924 INTRA-LIGAND FREE ENERGY PREDICTED BY IDOCK:   -0.30 KCAL/MOL
REMARK 927      BINDING AFFINITY PREDICTED BY RF-SCORE:    0.00 PKD
ROOT
HETATM    1  C   UNL     1      -7.674   8.390  68.055  1.00  0.00    -0.103 C  
HETATM    2  C   UNL     1      -9.164   8.108  68.206  1.00  0.00    -0.134 C  
ENDROOT
BRANCH   2   3
HETATM    3  C   UNL     1      -9.745   8.550  69.552  1.00  0.00    -0.176 C  
HETATM    4  C   UNL     1     -10.514   9.881  69.535  1.00  0.00    -0.261 C  
HETATM    5  C   UNL     1     -10.778   7.607  70.129  1.00  0.00    -0.240 C  
HETATM    6  C   UNL     1     -11.419   9.704  70.744  1.00  0.00    -0.328 C  
HETATM    7  O   UNL     1     -11.756   8.318  70.763  1.00  0.00    -0.277 OA 
HETATM    8  O   UNL     1     -10.752   6.389  70.093  1.00  0.00    -0.228 OA 
BRANCH   4   9
HETATM    9  C   UNL     1     -11.327  10.150  68.249  1.00  0.00    -0.183 C  
BRANCH   9  10
HETATM   10  C   UNL     1     -10.771  11.287  67.451  1.00  0.00    -0.242 A  
HETATM   11  C   UNL     1     -10.109  11.290  66.236  1.00  0.00    -0.230 A  
HETATM   12  N   UNL     1      -9.745  12.558  65.870  1.00  0.00    -0.247 NA 
HETATM   13  C   UNL     1     -10.196  13.334  66.827  1.00  0.00    -0.254 A  
HETATM   14  N   UNL     1     -10.835  12.617  67.796  1.00  0.00    -0.216 NA 
HETATM   15  C   UNL     1     -11.461  13.191  68.965  1.00  0.00    -0.296 C  
ENDBRANCH   9  10
ENDBRANCH   4   9
ENDBRANCH   2   3
TORSDOF 3
ENDMDL
MODEL      162
REMARK 921   NORMALIZED FREE ENERGY PREDICTED BY IDOCK:   -2.86 KCAL/MOL
REMARK 922        TOTAL FREE ENERGY PREDICTED BY IDOCK:   -3.68 KCAL/MOL
REMARK 923 INTER-LIGAND FREE ENERGY PREDICTED BY IDOCK:   -3.33 KCAL/MOL
REMARK 924 INTRA-LIGAND FREE ENERGY PREDICTED BY IDOCK:   -0.35 KCAL/MOL
REMARK 927      BINDING AFFINITY PREDICTED BY RF-SCORE:    0.00 PKD
ROOT
HETATM    1  C   UNL     1     -12.699  14.885  70.242  1.00  0.00    -0.317 C  
HETATM    2  C   UNL     1     -11.562  14.005  69.737  1.00  0.00    -0.344 C  
ENDROOT
BRANCH   2   3
HETATM    3  C   UNL     1     -12.027  12.676  69.136  1.00  0.00    -0.293 C  
HETATM    4  C   UNL     1     -11.088  12.061  68.086  1.00  0.00    -0.294 C  
HETATM    5  C   UNL     1     -12.152  11.545  70.134  1.00  0.00    -0.351 C  
HETATM    6  C   UNL     1     -11.476  10.594  68.179  1.00  0.00    -0.228 C  
HETATM    7  O   UNL     1     -11.773  10.368  69.556  1.00  0.00    -0.241 OA 
HETATM    8  O   UNL     1     -12.568  11.627  71.277  1.00  0.00    -0.373 OA 
BRANCH   4   9
HETATM    9  C   UNL     1      -9.581  12.269  68.355  1.00  0.00    -0.183 C  
BRANCH   9  10
HETATM   10  C   UNL     1      -8.723  11.379  67.512  1.00  0.00    -0.140 A  
HETATM   11  C   UNL     1      -8.482  11.394  66.150  1.00  0.00    -0.105 A  
HETATM   12  N   UNL     1      -7.645  10.376  65.780  1.00  0.00    -0.143 NA 
HETATM   13  C   UNL     1      -7.348   9.753  66.897  1.00  0.00    -0.091 A  
HETATM   14  N   UNL     1      -7.961  10.329  67.970  1.00  0.00    -0.101 NA 
HETATM   15  C   UNL     1      -7.810   9.887  69.338  1.00  0.00    -0.127 C  
ENDBRANCH   9  10
ENDBRANCH   4   9
ENDBRANCH   2   3
TORSDOF 3
ENDMDL
MODEL      163
REMARK 921   NORMALIZED FREE ENERGY PREDICTED BY IDOCK:   -2.85 KCAL/MOL
REMARK 922        TOTAL FREE ENERGY PREDICTED BY IDOCK:   -3.67 KCAL/MOL
REMARK 923 INTER-LIGAND FREE ENERGY PREDICTED BY IDOCK:   -3.31 KCAL/MOL
REMARK 924 INTRA-LIGAND FREE ENERGY PREDICTED BY IDOCK:   -0.37 KCAL/MOL
REMARK 927      BINDING AFFINITY PREDICTED BY RF-SCORE:    0.00 PKD
ROOT
HETATM    1  C   UNL     1     -11.828  10.851  70.255  1.00  0.00    -0.450 C  
HETATM    2  C   UNL     1     -11.039   9.824  71.056  1.00  0.00    -0.431 C  
ENDROOT
BRANCH   2   3
HETATM    3  C   UNL     1     -11.473   8.377  70.807  1.00  0.00    -0.277 C  
HETATM    4  C   UNL     1     -10.807   7.684  69.607  1.00  0.00    -0.195 C  
HETATM    5  C   UNL     1     -11.146   7.421  71.932  1.00  0.00    -0.242 C  
HETATM    6  C   UNL     1     -10.948   6.224  70.005  1.00  0.00    -0.358 C  
HETATM    7  O   UNL     1     -10.795   6.203  71.424  1.00  0.00    -0.245 OA 
HETATM    8  O   UNL     1     -11.217   7.652  73.127  1.00  0.00    -0.391 OA 
BRANCH   4   9
HETATM    9  C   UNL     1      -9.331   8.070  69.366  1.00  0.00    -0.155 C  
BRANCH   9  10
HETATM   10  C   UNL     1      -8.627   7.098  68.472  1.00  0.00    -0.124 A  
HETATM   11  C   UNL     1      -8.836   6.792  67.139  1.00  0.00    -0.119 A  
HETATM   12  N   UNL     1      -7.977   5.817  66.710  1.00  0.00    -0.101 NA 
HETATM   13  C   UNL     1      -7.226   5.540  67.751  1.00  0.00    -0.072 A  
HETATM   14  N   UNL     1      -7.569   6.297  68.833  1.00  0.00    -0.091 NA 
HETATM   15  C   UNL     1      -6.909   6.239  70.118  1.00  0.00    -0.054 C  
ENDBRANCH   9  10
ENDBRANCH   4   9
ENDBRANCH   2   3
TORSDOF 3
ENDMDL
MODEL      164
REMARK 921   NORMALIZED FREE ENERGY PREDICTED BY IDOCK:   -2.85 KCAL/MOL
REMARK 922        TOTAL FREE ENERGY PREDICTED BY IDOCK:   -3.67 KCAL/MOL
REMARK 923 INTER-LIGAND FREE ENERGY PREDICTED BY IDOCK:   -3.35 KCAL/MOL
REMARK 924 INTRA-LIGAND FREE ENERGY PREDICTED BY IDOCK:   -0.32 KCAL/MOL
REMARK 927      BINDING AFFINITY PREDICTED BY RF-SCORE:    0.00 PKD
ROOT
HETATM    1  C   UNL     1     -10.396   4.594  70.925  1.00  0.00    -0.137 C  
HETATM    2  C   UNL     1     -10.720   5.981  71.466  1.00  0.00    -0.309 C  
ENDROOT
BRANCH   2   3
HETATM    3  C   UNL     1      -9.508   6.913  71.545  1.00  0.00    -0.155 C  
HETATM    4  C   UNL     1      -9.344   7.886  70.366  1.00  0.00    -0.159 C  
HETATM    5  C   UNL     1      -9.521   7.862  72.724  1.00  0.00    -0.241 C  
HETATM    6  C   UNL     1      -8.522   8.988  71.015  1.00  0.00    -0.203 C  
HETATM    7  O   UNL     1      -8.992   9.067  72.360  1.00  0.00    -0.326 OA 
HETATM    8  O   UNL     1      -9.898   7.611  73.856  1.00  0.00    -0.250 OA 
BRANCH   4   9
HETATM    9  C   UNL     1     -10.665   8.431  69.780  1.00  0.00    -0.211 C  
BRANCH   9  10
HETATM   10  C   UNL     1     -10.484   9.023  68.417  1.00  0.00    -0.192 A  
HETATM   11  C   UNL     1     -10.218  10.324  68.032  1.00  0.00    -0.169 A  
HETATM   12  N   UNL     1     -10.152  10.438  66.670  1.00  0.00    -0.216 NA 
HETATM   13  C   UNL     1     -10.347   9.223  66.214  1.00  0.00    -0.122 A  
HETATM   14  N   UNL     1     -10.537   8.331  67.229  1.00  0.00    -0.301 NA 
HETATM   15  C   UNL     1     -10.750   6.913  67.047  1.00  0.00    -0.362 C  
ENDBRANCH   9  10
ENDBRANCH   4   9
ENDBRANCH   2   3
TORSDOF 3
ENDMDL
MODEL      165
REMARK 921   NORMALIZED FREE ENERGY PREDICTED BY IDOCK:   -2.85 KCAL/MOL
REMARK 922        TOTAL FREE ENERGY PREDICTED BY IDOCK:   -3.67 KCAL/MOL
REMARK 923 INTER-LIGAND FREE ENERGY PREDICTED BY IDOCK:   -3.28 KCAL/MOL
REMARK 924 INTRA-LIGAND FREE ENERGY PREDICTED BY IDOCK:   -0.39 KCAL/MOL
REMARK 927      BINDING AFFINITY PREDICTED BY RF-SCORE:    0.00 PKD
ROOT
HETATM    1  C   UNL     1     -11.949   8.740  71.109  1.00  0.00    -0.331 C  
HETATM    2  C   UNL     1     -10.762   8.535  70.175  1.00  0.00    -0.240 C  
ENDROOT
BRANCH   2   3
HETATM    3  C   UNL     1     -10.995   7.465  69.105  1.00  0.00    -0.057 C  
HETATM    4  C   UNL     1     -10.761   7.919  67.655  1.00  0.00    -0.215 C  
HETATM    5  C   UNL     1     -10.074   6.269  69.202  1.00  0.00    -0.168 C  
HETATM    6  C   UNL     1     -10.465   6.589  66.982  1.00  0.00    -0.295 C  
HETATM    7  O   UNL     1      -9.748   5.826  67.952  1.00  0.00    -0.113 OA 
HETATM    8  O   UNL     1      -9.693   5.725  70.225  1.00  0.00    -0.164 OA 
BRANCH   4   9
HETATM    9  C   UNL     1      -9.604   8.925  67.463  1.00  0.00    -0.183 C  
BRANCH   9  10
HETATM   10  C   UNL     1      -9.980  10.061  66.564  1.00  0.00    -0.225 A  
HETATM   11  C   UNL     1      -9.999  10.143  65.183  1.00  0.00    -0.309 A  
HETATM   12  N   UNL     1     -10.386  11.386  64.763  1.00  0.00    -0.275 NA 
HETATM   13  C   UNL     1     -10.630  12.060  65.863  1.00  0.00    -0.265 A  
HETATM   14  N   UNL     1     -10.414  11.299  66.974  1.00  0.00    -0.223 NA 
HETATM   15  C   UNL     1     -10.620  11.752  68.332  1.00  0.00    -0.216 C  
ENDBRANCH   9  10
ENDBRANCH   4   9
ENDBRANCH   2   3
TORSDOF 3
ENDMDL
MODEL      166
REMARK 921   NORMALIZED FREE ENERGY PREDICTED BY IDOCK:   -2.83 KCAL/MOL
REMARK 922        TOTAL FREE ENERGY PREDICTED BY IDOCK:   -3.65 KCAL/MOL
REMARK 923 INTER-LIGAND FREE ENERGY PREDICTED BY IDOCK:   -3.32 KCAL/MOL
REMARK 924 INTRA-LIGAND FREE ENERGY PREDICTED BY IDOCK:   -0.34 KCAL/MOL
REMARK 927      BINDING AFFINITY PREDICTED BY RF-SCORE:    0.00 PKD
ROOT
HETATM    1  C   UNL     1      -8.932  13.001  67.863  1.00  0.00    -0.200 C  
HETATM    2  C   UNL     1      -8.829  11.517  67.535  1.00  0.00    -0.155 C  
ENDROOT
BRANCH   2   3
HETATM    3  C   UNL     1      -8.246  10.671  68.670  1.00  0.00    -0.135 C  
HETATM    4  C   UNL     1      -9.250  10.226  69.745  1.00  0.00    -0.101 C  
HETATM    5  C   UNL     1      -7.662   9.346  68.230  1.00  0.00    -0.083 C  
HETATM    6  C   UNL     1      -8.553   8.992  70.295  1.00  0.00    -0.178 C  
HETATM    7  O   UNL     1      -7.909   8.391  69.173  1.00  0.00    -0.100 OA 
HETATM    8  O   UNL     1      -7.023   9.135  67.213  1.00  0.00    -0.076 OA 
BRANCH   4   9
HETATM    9  C   UNL     1     -10.665   9.894  69.221  1.00  0.00    -0.247 C  
BRANCH   9  10
HETATM   10  C   UNL     1     -11.697   9.927  70.305  1.00  0.00    -0.216 A  
HETATM   11  C   UNL     1     -12.414  10.988  70.828  1.00  0.00    -0.396 A  
HETATM   12  N   UNL     1     -13.245  10.580  71.836  1.00  0.00    -0.452 NA 
HETATM   13  C   UNL     1     -13.069   9.282  71.921  1.00  0.00    -0.415 A  
HETATM   14  N   UNL     1     -12.156   8.839  71.009  1.00  0.00    -0.265 NA 
HETATM   15  C   UNL     1     -11.768   7.457  70.841  1.00  0.00    -0.296 C  
ENDBRANCH   9  10
ENDBRANCH   4   9
ENDBRANCH   2   3
TORSDOF 3
ENDMDL
MODEL      167
REMARK 921   NORMALIZED FREE ENERGY PREDICTED BY IDOCK:   -2.83 KCAL/MOL
REMARK 922        TOTAL FREE ENERGY PREDICTED BY IDOCK:   -3.64 KCAL/MOL
REMARK 923 INTER-LIGAND FREE ENERGY PREDICTED BY IDOCK:   -3.48 KCAL/MOL
REMARK 924 INTRA-LIGAND FREE ENERGY PREDICTED BY IDOCK:   -0.16 KCAL/MOL
REMARK 927      BINDING AFFINITY PREDICTED BY RF-SCORE:    0.00 PKD
ROOT
HETATM    1  C   UNL     1      -9.973  14.430  65.353  1.00  0.00    -0.344 C  
HETATM    2  C   UNL     1      -9.858  15.679  66.218  1.00  0.00    -0.318 C  
ENDROOT
BRANCH   2   3
HETATM    3  C   UNL     1     -10.718  15.637  67.484  1.00  0.00    -0.303 C  
HETATM    4  C   UNL     1     -10.469  14.437  68.412  1.00  0.00    -0.246 C  
HETATM    5  C   UNL     1     -10.507  16.802  68.426  1.00  0.00    -0.339 C  
HETATM    6  C   UNL     1     -10.955  14.997  69.740  1.00  0.00    -0.273 C  
HETATM    7  O   UNL     1     -10.598  16.378  69.721  1.00  0.00    -0.309 OA 
HETATM    8  O   UNL     1     -10.324  17.966  68.114  1.00  0.00    -0.358 OA 
BRANCH   4   9
HETATM    9  C   UNL     1      -8.999  13.969  68.496  1.00  0.00    -0.160 C  
BRANCH   9  10
HETATM   10  C   UNL     1      -8.860  12.491  68.306  1.00  0.00    -0.171 A  
HETATM   11  C   UNL     1      -9.744  11.568  67.778  1.00  0.00    -0.174 A  
HETATM   12  N   UNL     1      -9.223  10.302  67.813  1.00  0.00    -0.141 NA 
HETATM   13  C   UNL     1      -8.024  10.439  68.329  1.00  0.00    -0.111 A  
HETATM   14  N   UNL     1      -7.753  11.742  68.629  1.00  0.00    -0.136 NA 
HETATM   15  C   UNL     1      -6.505  12.213  69.186  1.00  0.00    -0.099 C  
ENDBRANCH   9  10
ENDBRANCH   4   9
ENDBRANCH   2   3
TORSDOF 3
ENDMDL
MODEL      168
REMARK 921   NORMALIZED FREE ENERGY PREDICTED BY IDOCK:   -2.82 KCAL/MOL
REMARK 922        TOTAL FREE ENERGY PREDICTED BY IDOCK:   -3.63 KCAL/MOL
REMARK 923 INTER-LIGAND FREE ENERGY PREDICTED BY IDOCK:   -3.44 KCAL/MOL
REMARK 924 INTRA-LIGAND FREE ENERGY PREDICTED BY IDOCK:   -0.19 KCAL/MOL
REMARK 927      BINDING AFFINITY PREDICTED BY RF-SCORE:    0.00 PKD
ROOT
HETATM    1  C   UNL     1     -10.241   4.490  74.299  1.00  0.00    -0.277 C  
HETATM    2  C   UNL     1      -9.821   5.557  73.296  1.00  0.00    -0.176 C  
ENDROOT
BRANCH   2   3
HETATM    3  C   UNL     1     -10.432   5.372  71.904  1.00  0.00    -0.283 C  
HETATM    4  C   UNL     1     -10.698   6.669  71.122  1.00  0.00    -0.274 C  
HETATM    5  C   UNL     1      -9.563   4.603  70.934  1.00  0.00    -0.179 C  
HETATM    6  C   UNL     1     -10.682   6.150  69.693  1.00  0.00    -0.319 C  
HETATM    7  O   UNL     1      -9.696   5.119  69.677  1.00  0.00    -0.151 OA 
HETATM    8  O   UNL     1      -8.869   3.633  71.190  1.00  0.00    -0.076 OA 
BRANCH   4   9
HETATM    9  C   UNL     1      -9.652   7.786  71.333  1.00  0.00    -0.182 C  
BRANCH   9  10
HETATM   10  C   UNL     1      -9.913   8.981  70.472  1.00  0.00    -0.215 A  
HETATM   11  C   UNL     1      -9.183   9.505  69.420  1.00  0.00    -0.176 A  
HETATM   12  N   UNL     1      -9.771  10.635  68.919  1.00  0.00    -0.195 NA 
HETATM   13  C   UNL     1     -10.863  10.797  69.629  1.00  0.00    -0.241 A  
HETATM   14  N   UNL     1     -11.001   9.818  70.568  1.00  0.00    -0.297 NA 
HETATM   15  C   UNL     1     -12.113   9.709  71.484  1.00  0.00    -0.401 C  
ENDBRANCH   9  10
ENDBRANCH   4   9
ENDBRANCH   2   3
TORSDOF 3
ENDMDL
MODEL      169
REMARK 921   NORMALIZED FREE ENERGY PREDICTED BY IDOCK:   -2.81 KCAL/MOL
REMARK 922        TOTAL FREE ENERGY PREDICTED BY IDOCK:   -3.62 KCAL/MOL
REMARK 923 INTER-LIGAND FREE ENERGY PREDICTED BY IDOCK:   -3.85 KCAL/MOL
REMARK 924 INTRA-LIGAND FREE ENERGY PREDICTED BY IDOCK:    0.23 KCAL/MOL
REMARK 927      BINDING AFFINITY PREDICTED BY RF-SCORE:    0.00 PKD
ROOT
HETATM    1  C   UNL     1      -8.070   7.116  70.320  1.00  0.00    -0.118 C  
HETATM    2  C   UNL     1      -8.094   8.060  71.516  1.00  0.00    -0.126 C  
ENDROOT
BRANCH   2   3
HETATM    3  C   UNL     1      -8.676   7.435  72.787  1.00  0.00    -0.160 C  
HETATM    4  C   UNL     1     -10.173   7.694  73.024  1.00  0.00    -0.379 C  
HETATM    5  C   UNL     1      -8.618   5.923  72.826  1.00  0.00    -0.122 C  
HETATM    6  C   UNL     1     -10.531   6.513  73.912  1.00  0.00    -0.308 C  
HETATM    7  O   UNL     1      -9.735   5.429  73.437  1.00  0.00    -0.147 OA 
HETATM    8  O   UNL     1      -7.707   5.219  72.424  1.00  0.00    -0.097 OA 
BRANCH   4   9
HETATM    9  C   UNL     1     -11.041   7.730  71.747  1.00  0.00    -0.287 C  
BRANCH   9  10
HETATM   10  C   UNL     1     -11.898   8.955  71.674  1.00  0.00    -0.345 A  
HETATM   11  C   UNL     1     -13.036   9.296  72.383  1.00  0.00    -0.406 A  
HETATM   12  N   UNL     1     -13.527  10.510  71.984  1.00  0.00    -0.325 NA 
HETATM   13  C   UNL     1     -12.693  10.930  71.060  1.00  0.00    -0.407 A  
HETATM   14  N   UNL     1     -11.686  10.034  70.849  1.00  0.00    -0.344 NA 
HETATM   15  C   UNL     1     -10.601  10.225  69.913  1.00  0.00    -0.276 C  
ENDBRANCH   9  10
ENDBRANCH   4   9
ENDBRANCH   2   3
TORSDOF 3
ENDMDL
MODEL      170
REMARK 921   NORMALIZED FREE ENERGY PREDICTED BY IDOCK:   -2.79 KCAL/MOL
REMARK 922        TOTAL FREE ENERGY PREDICTED BY IDOCK:   -3.60 KCAL/MOL
REMARK 923 INTER-LIGAND FREE ENERGY PREDICTED BY IDOCK:   -3.35 KCAL/MOL
REMARK 924 INTRA-LIGAND FREE ENERGY PREDICTED BY IDOCK:   -0.25 KCAL/MOL
REMARK 927      BINDING AFFINITY PREDICTED BY RF-SCORE:    0.00 PKD
ROOT
HETATM    1  C   UNL     1     -10.886  15.353  69.163  1.00  0.00    -0.249 C  
HETATM    2  C   UNL     1     -10.835  15.840  67.720  1.00  0.00    -0.316 C  
ENDROOT
BRANCH   2   3
HETATM    3  C   UNL     1      -9.747  16.885  67.457  1.00  0.00    -0.249 C  
HETATM    4  C   UNL     1      -8.304  16.409  67.688  1.00  0.00    -0.176 C  
HETATM    5  C   UNL     1      -9.682  17.377  66.028  1.00  0.00    -0.152 C  
HETATM    6  C   UNL     1      -7.538  17.374  66.797  1.00  0.00    -0.228 C  
HETATM    7  O   UNL     1      -8.383  17.596  65.668  1.00  0.00    -0.467 OA 
HETATM    8  O   UNL     1     -10.627  17.600  65.291  1.00  0.00    -0.663 OA 
BRANCH   4   9
HETATM    9  C   UNL     1      -8.030  14.938  67.304  1.00  0.00    -0.237 C  
BRANCH   9  10
HETATM   10  C   UNL     1      -7.309  14.192  68.382  1.00  0.00    -0.115 A  
HETATM   11  C   UNL     1      -7.019  14.555  69.684  1.00  0.00    -0.122 A  
HETATM   12  N   UNL     1      -6.313  13.577  70.330  1.00  0.00    -0.044 NA 
HETATM   13  C   UNL     1      -6.188  12.608  69.452  1.00  0.00    -0.113 A  
HETATM   14  N   UNL     1      -6.785  12.925  68.267  1.00  0.00    -0.083 NA 
HETATM   15  C   UNL     1      -6.838  12.054  67.115  1.00  0.00    -0.136 C  
ENDBRANCH   9  10
ENDBRANCH   4   9
ENDBRANCH   2   3
TORSDOF 3
ENDMDL
MODEL      171
REMARK 921   NORMALIZED FREE ENERGY PREDICTED BY IDOCK:   -2.79 KCAL/MOL
REMARK 922        TOTAL FREE ENERGY PREDICTED BY IDOCK:   -3.59 KCAL/MOL
REMARK 923 INTER-LIGAND FREE ENERGY PREDICTED BY IDOCK:   -3.24 KCAL/MOL
REMARK 924 INTRA-LIGAND FREE ENERGY PREDICTED BY IDOCK:   -0.36 KCAL/MOL
REMARK 927      BINDING AFFINITY PREDICTED BY RF-SCORE:    0.00 PKD
ROOT
HETATM    1  C   UNL     1      -8.280   4.850  70.657  1.00  0.00    -0.096 C  
HETATM    2  C   UNL     1      -8.000   5.594  69.357  1.00  0.00    -0.099 C  
ENDROOT
BRANCH   2   3
HETATM    3  C   UNL     1      -8.970   5.248  68.225  1.00  0.00    -0.116 C  
HETATM    4  C   UNL     1     -10.356   5.909  68.317  1.00  0.00    -0.263 C  
HETATM    5  C   UNL     1      -8.514   5.688  66.851  1.00  0.00    -0.111 C  
HETATM    6  C   UNL     1     -10.782   5.885  66.858  1.00  0.00    -0.321 C  
HETATM    7  O   UNL     1      -9.585   6.099  66.111  1.00  0.00    -0.131 OA 
HETATM    8  O   UNL     1      -7.375   5.652  66.417  1.00  0.00    -0.076 OA 
BRANCH   4   9
HETATM    9  C   UNL     1     -10.359   7.344  68.888  1.00  0.00    -0.214 C  
BRANCH   9  10
HETATM   10  C   UNL     1     -11.057   7.430  70.209  1.00  0.00    -0.258 A  
HETATM   11  C   UNL     1     -11.525   6.431  71.043  1.00  0.00    -0.334 A  
HETATM   12  N   UNL     1     -12.130   6.952  72.155  1.00  0.00    -0.275 NA 
HETATM   13  C   UNL     1     -12.018   8.253  72.029  1.00  0.00    -0.348 A  
HETATM   14  N   UNL     1     -11.365   8.591  70.879  1.00  0.00    -0.266 NA 
HETATM   15  C   UNL     1     -11.066   9.946  70.473  1.00  0.00    -0.332 C  
ENDBRANCH   9  10
ENDBRANCH   4   9
ENDBRANCH   2   3
TORSDOF 3
ENDMDL
MODEL      172
REMARK 921   NORMALIZED FREE ENERGY PREDICTED BY IDOCK:   -2.77 KCAL/MOL
REMARK 922        TOTAL FREE ENERGY PREDICTED BY IDOCK:   -3.58 KCAL/MOL
REMARK 923 INTER-LIGAND FREE ENERGY PREDICTED BY IDOCK:   -4.00 KCAL/MOL
REMARK 924 INTRA-LIGAND FREE ENERGY PREDICTED BY IDOCK:    0.42 KCAL/MOL
REMARK 927      BINDING AFFINITY PREDICTED BY RF-SCORE:    0.00 PKD
ROOT
HETATM    1  C   UNL     1     -10.470  14.253  64.799  1.00  0.00    -0.421 C  
HETATM    2  C   UNL     1     -11.457  15.071  65.623  1.00  0.00    -0.248 C  
ENDROOT
BRANCH   2   3
HETATM    3  C   UNL     1     -11.103  15.154  67.110  1.00  0.00    -0.335 C  
HETATM    4  C   UNL     1     -11.739  14.075  68.001  1.00  0.00    -0.394 C  
HETATM    5  C   UNL     1      -9.632  14.975  67.416  1.00  0.00    -0.205 C  
HETATM    6  C   UNL     1     -10.761  14.051  69.165  1.00  0.00    -0.173 C  
HETATM    7  O   UNL     1      -9.478  14.286  68.585  1.00  0.00    -0.204 OA 
HETATM    8  O   UNL     1      -8.696  15.406  66.765  1.00  0.00    -0.228 OA 
BRANCH   4   9
HETATM    9  C   UNL     1     -11.878  12.683  67.346  1.00  0.00    -0.393 C  
BRANCH   9  10
HETATM   10  C   UNL     1     -11.442  11.578  68.256  1.00  0.00    -0.299 A  
HETATM   11  C   UNL     1     -12.058  11.040  69.372  1.00  0.00    -0.318 A  
HETATM   12  N   UNL     1     -11.297  10.050  69.932  1.00  0.00    -0.254 NA 
HETATM   13  C   UNL     1     -10.239   9.953  69.162  1.00  0.00    -0.205 A  
HETATM   14  N   UNL     1     -10.287  10.843  68.130  1.00  0.00    -0.171 NA 
HETATM   15  C   UNL     1      -9.279  10.960  67.099  1.00  0.00    -0.148 C  
ENDBRANCH   9  10
ENDBRANCH   4   9
ENDBRANCH   2   3
TORSDOF 3
ENDMDL
MODEL      173
REMARK 921   NORMALIZED FREE ENERGY PREDICTED BY IDOCK:   -2.77 KCAL/MOL
REMARK 922        TOTAL FREE ENERGY PREDICTED BY IDOCK:   -3.57 KCAL/MOL
REMARK 923 INTER-LIGAND FREE ENERGY PREDICTED BY IDOCK:   -3.26 KCAL/MOL
REMARK 924 INTRA-LIGAND FREE ENERGY PREDICTED BY IDOCK:   -0.31 KCAL/MOL
REMARK 927      BINDING AFFINITY PREDICTED BY RF-SCORE:    0.00 PKD
ROOT
HETATM    1  C   UNL     1     -12.331  13.970  65.427  1.00  0.00    -0.495 C  
HETATM    2  C   UNL     1     -11.058  13.139  65.524  1.00  0.00    -0.299 C  
ENDROOT
BRANCH   2   3
HETATM    3  C   UNL     1     -10.988  12.254  66.772  1.00  0.00    -0.321 C  
HETATM    4  C   UNL     1     -10.116  10.995  66.641  1.00  0.00    -0.262 C  
HETATM    5  C   UNL     1     -10.378  12.925  67.983  1.00  0.00    -0.227 C  
HETATM    6  C   UNL     1      -9.772  10.733  68.099  1.00  0.00    -0.159 C  
HETATM    7  O   UNL     1      -9.639  12.023  68.693  1.00  0.00    -0.175 OA 
HETATM    8  O   UNL     1     -10.536  14.083  68.330  1.00  0.00    -0.232 OA 
BRANCH   4   9
HETATM    9  C   UNL     1      -8.846  11.165  65.779  1.00  0.00    -0.182 C  
BRANCH   9  10
HETATM   10  C   UNL     1      -8.916  10.389  64.501  1.00  0.00    -0.216 A  
HETATM   11  C   UNL     1      -9.251  10.796  63.222  1.00  0.00    -0.283 A  
HETATM   12  N   UNL     1      -9.212   9.750  62.340  1.00  0.00    -0.292 NA 
HETATM   13  C   UNL     1      -8.834   8.714  63.052  1.00  0.00     0.202 A  
HETATM   14  N   UNL     1      -8.629   9.052  64.358  1.00  0.00    -0.175 NA 
HETATM   15  C   UNL     1      -8.183   8.135  65.383  1.00  0.00    -0.146 C  
ENDBRANCH   9  10
ENDBRANCH   4   9
ENDBRANCH   2   3
TORSDOF 3
ENDMDL
MODEL      174
REMARK 921   NORMALIZED FREE ENERGY PREDICTED BY IDOCK:   -2.76 KCAL/MOL
REMARK 922        TOTAL FREE ENERGY PREDICTED BY IDOCK:   -3.57 KCAL/MOL
REMARK 923 INTER-LIGAND FREE ENERGY PREDICTED BY IDOCK:   -4.14 KCAL/MOL
REMARK 924 INTRA-LIGAND FREE ENERGY PREDICTED BY IDOCK:    0.57 KCAL/MOL
REMARK 927      BINDING AFFINITY PREDICTED BY RF-SCORE:    0.00 PKD
ROOT
HETATM    1  C   UNL     1     -10.967  14.393  65.481  1.00  0.00    -0.330 C  
HETATM    2  C   UNL     1      -9.829  15.403  65.564  1.00  0.00    -0.359 C  
ENDROOT
BRANCH   2   3
HETATM    3  C   UNL     1      -9.082  15.387  66.900  1.00  0.00    -0.265 C  
HETATM    4  C   UNL     1      -9.864  15.942  68.101  1.00  0.00    -0.214 C  
HETATM    5  C   UNL     1      -8.706  14.006  67.392  1.00  0.00    -0.207 C  
HETATM    6  C   UNL     1      -9.160  15.240  69.251  1.00  0.00    -0.240 C  
HETATM    7  O   UNL     1      -8.816  13.949  68.752  1.00  0.00    -0.117 OA 
HETATM    8  O   UNL     1      -8.316  13.073  66.712  1.00  0.00    -0.090 OA 
BRANCH   4   9
HETATM    9  C   UNL     1     -11.379  15.639  68.092  1.00  0.00    -0.340 C  
BRANCH   9  10
HETATM   10  C   UNL     1     -11.848  15.037  69.379  1.00  0.00    -0.329 A  
HETATM   11  C   UNL     1     -12.140  15.631  70.593  1.00  0.00    -0.405 A  
HETATM   12  N   UNL     1     -12.516  14.701  71.525  1.00  0.00    -0.329 NA 
HETATM   13  C   UNL     1     -12.486  13.551  70.894  1.00  0.00    -0.369 A  
HETATM   14  N   UNL     1     -12.103  13.702  69.594  1.00  0.00    -0.328 NA 
HETATM   15  C   UNL     1     -11.999  12.623  68.637  1.00  0.00    -0.223 C  
ENDBRANCH   9  10
ENDBRANCH   4   9
ENDBRANCH   2   3
TORSDOF 3
ENDMDL
MODEL      175
REMARK 921   NORMALIZED FREE ENERGY PREDICTED BY IDOCK:   -2.76 KCAL/MOL
REMARK 922        TOTAL FREE ENERGY PREDICTED BY IDOCK:   -3.57 KCAL/MOL
REMARK 923 INTER-LIGAND FREE ENERGY PREDICTED BY IDOCK:   -3.35 KCAL/MOL
REMARK 924 INTRA-LIGAND FREE ENERGY PREDICTED BY IDOCK:   -0.21 KCAL/MOL
REMARK 927      BINDING AFFINITY PREDICTED BY RF-SCORE:    0.00 PKD
ROOT
HETATM    1  C   UNL     1     -10.318  11.075  64.309  1.00  0.00    -0.430 C  
HETATM    2  C   UNL     1      -9.889  11.265  65.759  1.00  0.00    -0.273 C  
ENDROOT
BRANCH   2   3
HETATM    3  C   UNL     1     -11.054  11.507  66.723  1.00  0.00    -0.361 C  
HETATM    4  C   UNL     1     -10.734  11.295  68.211  1.00  0.00    -0.231 C  
HETATM    5  C   UNL     1     -11.584  12.924  66.723  1.00  0.00    -0.360 C  
HETATM    6  C   UNL     1     -11.797  12.166  68.860  1.00  0.00    -0.304 C  
HETATM    7  O   UNL     1     -11.952  13.285  67.987  1.00  0.00    -0.350 OA 
HETATM    8  O   UNL     1     -11.718  13.651  65.753  1.00  0.00    -0.326 OA 
BRANCH   4   9
HETATM    9  C   UNL     1      -9.312  11.717  68.642  1.00  0.00    -0.120 C  
BRANCH   9  10
HETATM   10  C   UNL     1      -8.482  10.554  69.088  1.00  0.00    -0.147 A  
HETATM   11  C   UNL     1      -8.842   9.244  69.351  1.00  0.00    -0.149 A  
HETATM   12  N   UNL     1      -7.767   8.505  69.763  1.00  0.00    -0.090 NA 
HETATM   13  C   UNL     1      -6.749   9.333  69.732  1.00  0.00    -0.051 A  
HETATM   14  N   UNL     1      -7.126  10.576  69.317  1.00  0.00    -0.084 NA 
HETATM   15  C   UNL     1      -6.227  11.697  69.156  1.00  0.00    -0.077 C  
ENDBRANCH   9  10
ENDBRANCH   4   9
ENDBRANCH   2   3
TORSDOF 3
ENDMDL
MODEL      176
REMARK 921   NORMALIZED FREE ENERGY PREDICTED BY IDOCK:   -2.75 KCAL/MOL
REMARK 922        TOTAL FREE ENERGY PREDICTED BY IDOCK:   -3.55 KCAL/MOL
REMARK 923 INTER-LIGAND FREE ENERGY PREDICTED BY IDOCK:   -3.90 KCAL/MOL
REMARK 924 INTRA-LIGAND FREE ENERGY PREDICTED BY IDOCK:    0.35 KCAL/MOL
REMARK 927      BINDING AFFINITY PREDICTED BY RF-SCORE:    0.00 PKD
ROOT
HETATM    1  C   UNL     1     -10.064   5.944  70.506  1.00  0.00    -0.254 C  
HETATM    2  C   UNL     1     -11.269   6.112  69.589  1.00  0.00    -0.488 C  
ENDROOT
BRANCH   2   3
HETATM    3  C   UNL     1     -10.902   6.434  68.138  1.00  0.00    -0.386 C  
HETATM    4  C   UNL     1     -10.611   7.914  67.843  1.00  0.00    -0.215 C  
HETATM    5  C   UNL     1      -9.634   5.770  67.649  1.00  0.00    -0.114 C  
HETATM    6  C   UNL     1      -9.732   7.793  66.608  1.00  0.00    -0.222 C  
HETATM    7  O   UNL     1      -8.960   6.610  66.810  1.00  0.00    -0.124 OA 
HETATM    8  O   UNL     1      -9.259   4.639  67.908  1.00  0.00    -0.115 OA 
BRANCH   4   9
HETATM    9  C   UNL     1      -9.896   8.679  68.978  1.00  0.00    -0.184 C  
BRANCH   9  10
HETATM   10  C   UNL     1     -10.821   9.587  69.725  1.00  0.00    -0.243 A  
HETATM   11  C   UNL     1     -11.413   9.441  70.967  1.00  0.00    -0.334 A  
HETATM   12  N   UNL     1     -12.218  10.507  71.265  1.00  0.00    -0.370 NA 
HETATM   13  C   UNL     1     -12.108  11.317  70.238  1.00  0.00    -0.373 A  
HETATM   14  N   UNL     1     -11.266  10.814  69.291  1.00  0.00    -0.250 NA 
HETATM   15  C   UNL     1     -10.922  11.486  68.057  1.00  0.00    -0.231 C  
ENDBRANCH   9  10
ENDBRANCH   4   9
ENDBRANCH   2   3
TORSDOF 3
ENDMDL
MODEL      177
REMARK 921   NORMALIZED FREE ENERGY PREDICTED BY IDOCK:   -2.74 KCAL/MOL
REMARK 922        TOTAL FREE ENERGY PREDICTED BY IDOCK:   -3.54 KCAL/MOL
REMARK 923 INTER-LIGAND FREE ENERGY PREDICTED BY IDOCK:   -3.59 KCAL/MOL
REMARK 924 INTRA-LIGAND FREE ENERGY PREDICTED BY IDOCK:    0.05 KCAL/MOL
REMARK 927      BINDING AFFINITY PREDICTED BY RF-SCORE:    0.00 PKD
ROOT
HETATM    1  C   UNL     1     -12.148  13.482  66.532  1.00  0.00    -0.460 C  
HETATM    2  C   UNL     1     -11.779  12.004  66.532  1.00  0.00    -0.330 C  
ENDROOT
BRANCH   2   3
HETATM    3  C   UNL     1     -11.299  11.485  67.890  1.00  0.00    -0.372 C  
HETATM    4  C   UNL     1     -10.841  10.018  67.912  1.00  0.00    -0.323 C  
HETATM    5  C   UNL     1     -10.079  12.194  68.437  1.00  0.00    -0.209 C  
HETATM    6  C   UNL     1      -9.910  10.026  69.115  1.00  0.00    -0.205 C  
HETATM    7  O   UNL     1      -9.276  11.305  69.092  1.00  0.00    -0.053 OA 
HETATM    8  O   UNL     1      -9.838  13.387  68.364  1.00  0.00    -0.229 OA 
BRANCH   4   9
HETATM    9  C   UNL     1     -10.116   9.539  66.635  1.00  0.00    -0.321 C  
BRANCH   9  10
HETATM   10  C   UNL     1      -9.817   8.073  66.665  1.00  0.00    -0.252 A  
HETATM   11  C   UNL     1     -10.634   6.996  66.957  1.00  0.00    -0.341 A  
HETATM   12  N   UNL     1      -9.946   5.815  66.892  1.00  0.00    -0.154 NA 
HETATM   13  C   UNL     1      -8.726   6.148  66.539  1.00  0.00    -0.133 A  
HETATM   14  N   UNL     1      -8.602   7.496  66.375  1.00  0.00    -0.133 NA 
HETATM   15  C   UNL     1      -7.388   8.165  65.965  1.00  0.00    -0.076 C  
ENDBRANCH   9  10
ENDBRANCH   4   9
ENDBRANCH   2   3
TORSDOF 3
ENDMDL
MODEL      178
REMARK 921   NORMALIZED FREE ENERGY PREDICTED BY IDOCK:   -2.72 KCAL/MOL
REMARK 922        TOTAL FREE ENERGY PREDICTED BY IDOCK:   -3.52 KCAL/MOL
REMARK 923 INTER-LIGAND FREE ENERGY PREDICTED BY IDOCK:   -3.17 KCAL/MOL
REMARK 924 INTRA-LIGAND FREE ENERGY PREDICTED BY IDOCK:   -0.35 KCAL/MOL
REMARK 927      BINDING AFFINITY PREDICTED BY RF-SCORE:    0.00 PKD
ROOT
HETATM    1  C   UNL     1      -8.757   9.411  70.401  1.00  0.00    -0.278 C  
HETATM    2  C   UNL     1      -9.739   9.968  69.379  1.00  0.00    -0.240 C  
ENDROOT
BRANCH   2   3
HETATM    3  C   UNL     1      -9.180  10.034  67.955  1.00  0.00    -0.139 C  
HETATM    4  C   UNL     1      -9.343   8.753  67.121  1.00  0.00    -0.188 C  
HETATM    5  C   UNL     1      -9.846  11.063  67.067  1.00  0.00    -0.182 C  
HETATM    6  C   UNL     1      -9.289   9.320  65.712  1.00  0.00    -0.244 C  
HETATM    7  O   UNL     1      -9.937  10.589  65.790  1.00  0.00    -0.231 OA 
HETATM    8  O   UNL     1     -10.216  12.177  67.396  1.00  0.00    -0.197 OA 
BRANCH   4   9
HETATM    9  C   UNL     1     -10.652   7.972  67.371  1.00  0.00    -0.337 C  
BRANCH   9  10
HETATM   10  C   UNL     1     -10.408   6.642  68.013  1.00  0.00    -0.191 A  
HETATM   11  C   UNL     1     -10.673   6.205  69.298  1.00  0.00    -0.318 A  
HETATM   12  N   UNL     1     -10.265   4.911  69.479  1.00  0.00    -0.222 NA 
HETATM   13  C   UNL     1      -9.778   4.539  68.318  1.00  0.00    -0.123 A  
HETATM   14  N   UNL     1      -9.856   5.543  67.398  1.00  0.00    -0.138 NA 
HETATM   15  C   UNL     1      -9.424   5.431  66.022  1.00  0.00    -0.146 C  
ENDBRANCH   9  10
ENDBRANCH   4   9
ENDBRANCH   2   3
TORSDOF 3
ENDMDL
MODEL      179
REMARK 921   NORMALIZED FREE ENERGY PREDICTED BY IDOCK:   -2.72 KCAL/MOL
REMARK 922        TOTAL FREE ENERGY PREDICTED BY IDOCK:   -3.52 KCAL/MOL
REMARK 923 INTER-LIGAND FREE ENERGY PREDICTED BY IDOCK:   -3.18 KCAL/MOL
REMARK 924 INTRA-LIGAND FREE ENERGY PREDICTED BY IDOCK:   -0.34 KCAL/MOL
REMARK 927      BINDING AFFINITY PREDICTED BY RF-SCORE:    0.00 PKD
ROOT
HETATM    1  C   UNL     1     -10.181  10.552  64.681  1.00  0.00    -0.364 C  
HETATM    2  C   UNL     1      -9.993   9.597  65.854  1.00  0.00    -0.351 C  
ENDROOT
BRANCH   2   3
HETATM    3  C   UNL     1      -8.573   9.593  66.427  1.00  0.00    -0.136 C  
HETATM    4  C   UNL     1      -8.303  10.630  67.529  1.00  0.00    -0.115 C  
HETATM    5  C   UNL     1      -8.179   8.305  67.116  1.00  0.00    -0.119 C  
HETATM    6  C   UNL     1      -7.137   9.979  68.255  1.00  0.00    -0.072 C  
HETATM    7  O   UNL     1      -7.393   8.576  68.199  1.00  0.00    -0.088 OA 
HETATM    8  O   UNL     1      -8.463   7.174  66.762  1.00  0.00    -0.115 OA 
BRANCH   4   9
HETATM    9  C   UNL     1      -9.489  10.897  68.481  1.00  0.00    -0.185 C  
BRANCH   9  10
HETATM   10  C   UNL     1     -10.153  12.211  68.211  1.00  0.00    -0.210 A  
HETATM   11  C   UNL     1      -9.846  13.198  67.292  1.00  0.00    -0.232 A  
HETATM   12  N   UNL     1     -10.703  14.260  67.396  1.00  0.00    -0.279 NA 
HETATM   13  C   UNL     1     -11.547  13.928  68.345  1.00  0.00    -0.332 A  
HETATM   14  N   UNL     1     -11.266  12.696  68.858  1.00  0.00    -0.266 NA 
HETATM   15  C   UNL     1     -12.030  12.045  69.898  1.00  0.00    -0.318 C  
ENDBRANCH   9  10
ENDBRANCH   4   9
ENDBRANCH   2   3
TORSDOF 3
ENDMDL
MODEL      180
REMARK 921   NORMALIZED FREE ENERGY PREDICTED BY IDOCK:   -2.72 KCAL/MOL
REMARK 922        TOTAL FREE ENERGY PREDICTED BY IDOCK:   -3.52 KCAL/MOL
REMARK 923 INTER-LIGAND FREE ENERGY PREDICTED BY IDOCK:   -3.17 KCAL/MOL
REMARK 924 INTRA-LIGAND FREE ENERGY PREDICTED BY IDOCK:   -0.35 KCAL/MOL
REMARK 927      BINDING AFFINITY PREDICTED BY RF-SCORE:    0.00 PKD
ROOT
HETATM    1  C   UNL     1      -8.763   8.279  73.276  1.00  0.00    -0.285 C  
HETATM    2  C   UNL     1     -10.077   7.525  73.112  1.00  0.00    -0.362 C  
ENDROOT
BRANCH   2   3
HETATM    3  C   UNL     1     -10.567   7.443  71.664  1.00  0.00    -0.229 C  
HETATM    4  C   UNL     1     -10.316   6.101  70.957  1.00  0.00    -0.260 C  
HETATM    5  C   UNL     1     -12.063   7.600  71.498  1.00  0.00    -0.310 C  
HETATM    6  C   UNL     1     -11.396   6.134  69.888  1.00  0.00    -0.384 C  
HETATM    7  O   UNL     1     -12.510   6.786  70.497  1.00  0.00    -0.273 OA 
HETATM    8  O   UNL     1     -12.787   8.361  72.115  1.00  0.00    -0.338 OA 
BRANCH   4   9
HETATM    9  C   UNL     1     -10.443   4.852  71.857  1.00  0.00    -0.233 C  
BRANCH   9  10
HETATM   10  C   UNL     1      -9.465   3.781  71.488  1.00  0.00    -0.151 A  
HETATM   11  C   UNL     1      -9.650   2.596  70.801  1.00  0.00    -0.111 A  
HETATM   12  N   UNL     1      -8.483   1.888  70.702  1.00  0.00    -0.049 NA 
HETATM   13  C   UNL     1      -7.579   2.634  71.295  1.00  0.00    -0.040 A  
HETATM   14  N   UNL     1      -8.119   3.792  71.772  1.00  0.00    -0.066 NA 
HETATM   15  C   UNL     1      -7.372   4.828  72.450  1.00  0.00    -0.083 C  
ENDBRANCH   9  10
ENDBRANCH   4   9
ENDBRANCH   2   3
TORSDOF 3
ENDMDL
MODEL      181
REMARK 921   NORMALIZED FREE ENERGY PREDICTED BY IDOCK:   -2.71 KCAL/MOL
REMARK 922        TOTAL FREE ENERGY PREDICTED BY IDOCK:   -3.51 KCAL/MOL
REMARK 923 INTER-LIGAND FREE ENERGY PREDICTED BY IDOCK:   -3.15 KCAL/MOL
REMARK 924 INTRA-LIGAND FREE ENERGY PREDICTED BY IDOCK:   -0.36 KCAL/MOL
REMARK 927      BINDING AFFINITY PREDICTED BY RF-SCORE:    0.00 PKD
ROOT
HETATM    1  C   UNL     1     -12.138  10.574  71.418  1.00  0.00    -0.380 C  
HETATM    2  C   UNL     1     -11.656  10.214  70.018  1.00  0.00    -0.323 C  
ENDROOT
BRANCH   2   3
HETATM    3  C   UNL     1     -10.132  10.211  69.870  1.00  0.00    -0.268 C  
HETATM    4  C   UNL     1      -9.394   9.114  70.655  1.00  0.00    -0.312 C  
HETATM    5  C   UNL     1      -9.639   9.961  68.461  1.00  0.00    -0.153 C  
HETATM    6  C   UNL     1      -8.112   8.997  69.848  1.00  0.00    -0.117 C  
HETATM    7  O   UNL     1      -8.499   9.211  68.491  1.00  0.00    -0.125 OA 
HETATM    8  O   UNL     1     -10.134  10.387  67.431  1.00  0.00    -0.180 OA 
BRANCH   4   9
HETATM    9  C   UNL     1     -10.136   7.762  70.746  1.00  0.00    -0.195 C  
BRANCH   9  10
HETATM   10  C   UNL     1     -10.131   7.201  72.133  1.00  0.00    -0.180 A  
HETATM   11  C   UNL     1     -10.986   7.429  73.196  1.00  0.00    -0.359 A  
HETATM   12  N   UNL     1     -10.603   6.724  74.305  1.00  0.00    -0.135 NA 
HETATM   13  C   UNL     1      -9.543   6.047  73.931  1.00  0.00    -0.163 A  
HETATM   14  N   UNL     1      -9.227   6.289  72.626  1.00  0.00    -0.143 NA 
HETATM   15  C   UNL     1      -8.128   5.672  71.919  1.00  0.00    -0.115 C  
ENDBRANCH   9  10
ENDBRANCH   4   9
ENDBRANCH   2   3
TORSDOF 3
ENDMDL
MODEL      182
REMARK 921   NORMALIZED FREE ENERGY PREDICTED BY IDOCK:   -2.69 KCAL/MOL
REMARK 922        TOTAL FREE ENERGY PREDICTED BY IDOCK:   -3.49 KCAL/MOL
REMARK 923 INTER-LIGAND FREE ENERGY PREDICTED BY IDOCK:   -3.15 KCAL/MOL
REMARK 924 INTRA-LIGAND FREE ENERGY PREDICTED BY IDOCK:   -0.34 KCAL/MOL
REMARK 927      BINDING AFFINITY PREDICTED BY RF-SCORE:    0.00 PKD
ROOT
HETATM    1  C   UNL     1      -7.319  10.204  65.231  1.00  0.00    -0.141 C  
HETATM    2  C   UNL     1      -7.972  10.670  66.526  1.00  0.00    -0.138 C  
ENDROOT
BRANCH   2   3
HETATM    3  C   UNL     1      -9.502  10.688  66.476  1.00  0.00    -0.199 C  
HETATM    4  C   UNL     1     -10.210  10.321  67.791  1.00  0.00    -0.225 C  
HETATM    5  C   UNL     1     -10.105  12.042  66.173  1.00  0.00    -0.226 C  
HETATM    6  C   UNL     1     -11.552  11.009  67.595  1.00  0.00    -0.143 C  
HETATM    7  O   UNL     1     -11.260  12.209  66.881  1.00  0.00    -0.282 OA 
HETATM    8  O   UNL     1      -9.676  12.869  65.386  1.00  0.00    -0.165 OA 
BRANCH   4   9
HETATM    9  C   UNL     1      -9.501  10.808  69.074  1.00  0.00    -0.179 C  
BRANCH   9  10
HETATM   10  C   UNL     1      -9.428   9.745  70.124  1.00  0.00    -0.229 A  
HETATM   11  C   UNL     1      -8.392   8.897  70.472  1.00  0.00    -0.159 A  
HETATM   12  N   UNL     1      -8.759   8.050  71.482  1.00  0.00    -0.127 NA 
HETATM   13  C   UNL     1      -9.993   8.382  71.778  1.00  0.00    -0.241 A  
HETATM   14  N   UNL     1     -10.437   9.409  70.997  1.00  0.00    -0.307 NA 
HETATM   15  C   UNL     1     -11.746  10.014  71.101  1.00  0.00    -0.387 C  
ENDBRANCH   9  10
ENDBRANCH   4   9
ENDBRANCH   2   3
TORSDOF 3
ENDMDL
MODEL      183
REMARK 921   NORMALIZED FREE ENERGY PREDICTED BY IDOCK:   -2.69 KCAL/MOL
REMARK 922        TOTAL FREE ENERGY PREDICTED BY IDOCK:   -3.48 KCAL/MOL
REMARK 923 INTER-LIGAND FREE ENERGY PREDICTED BY IDOCK:   -3.50 KCAL/MOL
REMARK 924 INTRA-LIGAND FREE ENERGY PREDICTED BY IDOCK:    0.03 KCAL/MOL
REMARK 927      BINDING AFFINITY PREDICTED BY RF-SCORE:    0.00 PKD
ROOT
HETATM    1  C   UNL     1     -10.705   7.488  67.113  1.00  0.00    -0.379 C  
HETATM    2  C   UNL     1     -10.714   8.596  68.158  1.00  0.00    -0.116 C  
ENDROOT
BRANCH   2   3
HETATM    3  C   UNL     1      -9.492   9.516  68.096  1.00  0.00    -0.145 C  
HETATM    4  C   UNL     1      -9.768  10.949  67.611  1.00  0.00    -0.188 C  
HETATM    5  C   UNL     1      -8.829   9.769  69.432  1.00  0.00    -0.182 C  
HETATM    6  C   UNL     1      -8.599  11.693  68.236  1.00  0.00    -0.162 C  
HETATM    7  O   UNL     1      -8.374  11.055  69.492  1.00  0.00     0.045 OA 
HETATM    8  O   UNL     1      -8.665   8.959  70.329  1.00  0.00    -0.142 OA 
BRANCH   4   9
HETATM    9  C   UNL     1     -11.123  11.541  68.056  1.00  0.00    -0.313 C  
BRANCH   9  10
HETATM   10  C   UNL     1     -11.551  12.692  67.200  1.00  0.00    -0.368 A  
HETATM   11  C   UNL     1     -11.960  13.966  67.550  1.00  0.00    -0.386 A  
HETATM   12  N   UNL     1     -12.289  14.705  66.446  1.00  0.00    -0.173 NA 
HETATM   13  C   UNL     1     -12.063  13.914  65.423  1.00  0.00    -0.408 A  
HETATM   14  N   UNL     1     -11.603  12.694  65.826  1.00  0.00    -0.365 NA 
HETATM   15  C   UNL     1     -11.241  11.617  64.932  1.00  0.00    -0.222 C  
ENDBRANCH   9  10
ENDBRANCH   4   9
ENDBRANCH   2   3
TORSDOF 3
ENDMDL
MODEL      184
REMARK 921   NORMALIZED FREE ENERGY PREDICTED BY IDOCK:   -2.68 KCAL/MOL
REMARK 922        TOTAL FREE ENERGY PREDICTED BY IDOCK:   -3.47 KCAL/MOL
REMARK 923 INTER-LIGAND FREE ENERGY PREDICTED BY IDOCK:   -3.22 KCAL/MOL
REMARK 924 INTRA-LIGAND FREE ENERGY PREDICTED BY IDOCK:   -0.25 KCAL/MOL
REMARK 927      BINDING AFFINITY PREDICTED BY RF-SCORE:    0.00 PKD
ROOT
HETATM    1  C   UNL     1      -8.060   6.390  65.803  1.00  0.00    -0.127 C  
HETATM    2  C   UNL     1      -8.202   6.679  67.293  1.00  0.00    -0.121 C  
ENDROOT
BRANCH   2   3
HETATM    3  C   UNL     1      -9.266   5.826  67.990  1.00  0.00    -0.109 C  
HETATM    4  C   UNL     1      -9.103   5.681  69.512  1.00  0.00    -0.143 C  
HETATM    5  C   UNL     1     -10.674   6.369  67.883  1.00  0.00    -0.299 C  
HETATM    6  C   UNL     1     -10.533   5.368  69.924  1.00  0.00    -0.308 C  
HETATM    7  O   UNL     1     -11.355   6.131  69.042  1.00  0.00    -0.390 OA 
HETATM    8  O   UNL     1     -11.175   6.905  66.910  1.00  0.00    -0.353 OA 
BRANCH   4   9
HETATM    9  C   UNL     1      -8.564   6.936  70.234  1.00  0.00    -0.140 C  
BRANCH   9  10
HETATM   10  C   UNL     1      -9.043   7.029  71.649  1.00  0.00    -0.138 A  
HETATM   11  C   UNL     1      -8.599   6.385  72.790  1.00  0.00    -0.125 A  
HETATM   12  N   UNL     1      -9.340   6.743  73.884  1.00  0.00    -0.175 NA 
HETATM   13  C   UNL     1     -10.213   7.616  73.437  1.00  0.00    -0.315 A  
HETATM   14  N   UNL     1     -10.065   7.832  72.099  1.00  0.00    -0.198 NA 
HETATM   15  C   UNL     1     -10.860   8.757  71.323  1.00  0.00    -0.277 C  
ENDBRANCH   9  10
ENDBRANCH   4   9
ENDBRANCH   2   3
TORSDOF 3
ENDMDL
MODEL      185
REMARK 921   NORMALIZED FREE ENERGY PREDICTED BY IDOCK:   -2.67 KCAL/MOL
REMARK 922        TOTAL FREE ENERGY PREDICTED BY IDOCK:   -3.46 KCAL/MOL
REMARK 923 INTER-LIGAND FREE ENERGY PREDICTED BY IDOCK:   -3.11 KCAL/MOL
REMARK 924 INTRA-LIGAND FREE ENERGY PREDICTED BY IDOCK:   -0.35 KCAL/MOL
REMARK 927      BINDING AFFINITY PREDICTED BY RF-SCORE:    0.00 PKD
ROOT
HETATM    1  C   UNL     1     -11.477   9.311  71.923  1.00  0.00    -0.382 C  
HETATM    2  C   UNL     1     -10.363   8.875  70.980  1.00  0.00    -0.321 C  
ENDROOT
BRANCH   2   3
HETATM    3  C   UNL     1     -10.859   8.131  69.738  1.00  0.00    -0.190 C  
HETATM    4  C   UNL     1     -10.488   8.773  68.391  1.00  0.00    -0.220 C  
HETATM    5  C   UNL     1     -10.297   6.735  69.576  1.00  0.00    -0.202 C  
HETATM    6  C   UNL     1     -10.552   7.565  67.470  1.00  0.00    -0.261 C  
HETATM    7  O   UNL     1     -10.084   6.468  68.254  1.00  0.00    -0.144 OA 
HETATM    8  O   UNL     1     -10.094   5.925  70.464  1.00  0.00    -0.180 OA 
BRANCH   4   9
HETATM    9  C   UNL     1      -9.099   9.448  68.349  1.00  0.00    -0.128 C  
BRANCH   9  10
HETATM   10  C   UNL     1      -9.187  10.916  68.071  1.00  0.00    -0.156 A  
HETATM   11  C   UNL     1     -10.096  11.859  68.514  1.00  0.00    -0.206 A  
HETATM   12  N   UNL     1      -9.824  13.096  67.995  1.00  0.00    -0.224 NA 
HETATM   13  C   UNL     1      -8.748  12.932  67.262  1.00  0.00    -0.204 A  
HETATM   14  N   UNL     1      -8.317  11.638  67.287  1.00  0.00    -0.151 NA 
HETATM   15  C   UNL     1      -7.143  11.149  66.600  1.00  0.00    -0.141 C  
ENDBRANCH   9  10
ENDBRANCH   4   9
ENDBRANCH   2   3
TORSDOF 3
ENDMDL
MODEL      186
REMARK 921   NORMALIZED FREE ENERGY PREDICTED BY IDOCK:   -2.66 KCAL/MOL
REMARK 922        TOTAL FREE ENERGY PREDICTED BY IDOCK:   -3.45 KCAL/MOL
REMARK 923 INTER-LIGAND FREE ENERGY PREDICTED BY IDOCK:   -3.65 KCAL/MOL
REMARK 924 INTRA-LIGAND FREE ENERGY PREDICTED BY IDOCK:    0.21 KCAL/MOL
REMARK 927      BINDING AFFINITY PREDICTED BY RF-SCORE:    0.00 PKD
ROOT
HETATM    1  C   UNL     1     -10.729  19.100  67.969  1.00  0.00    -0.318 C  
HETATM    2  C   UNL     1     -10.179  17.743  68.390  1.00  0.00    -0.384 C  
ENDROOT
BRANCH   2   3
HETATM    3  C   UNL     1     -11.240  16.641  68.468  1.00  0.00    -0.239 C  
HETATM    4  C   UNL     1     -11.043  15.465  67.498  1.00  0.00    -0.315 C  
HETATM    5  C   UNL     1     -11.308  15.929  69.801  1.00  0.00    -0.347 C  
HETATM    6  C   UNL     1     -11.805  14.367  68.221  1.00  0.00    -0.326 C  
HETATM    7  O   UNL     1     -11.584  14.606  69.611  1.00  0.00    -0.273 OA 
HETATM    8  O   UNL     1     -11.186  16.436  70.904  1.00  0.00    -0.332 OA 
BRANCH   4   9
HETATM    9  C   UNL     1      -9.573  15.065  67.243  1.00  0.00    -0.208 C  
BRANCH   9  10
HETATM   10  C   UNL     1      -9.354  13.590  67.362  1.00  0.00    -0.228 A  
HETATM   11  C   UNL     1      -9.992  12.535  66.734  1.00  0.00    -0.228 A  
HETATM   12  N   UNL     1      -9.495  11.331  67.153  1.00  0.00    -0.169 NA 
HETATM   13  C   UNL     1      -8.544  11.631  68.007  1.00  0.00    -0.152 A  
HETATM   14  N   UNL     1      -8.411  12.980  68.156  1.00  0.00    -0.158 NA 
HETATM   15  C   UNL     1      -7.433  13.620  69.007  1.00  0.00     0.021 C  
ENDBRANCH   9  10
ENDBRANCH   4   9
ENDBRANCH   2   3
TORSDOF 3
ENDMDL
MODEL      187
REMARK 921   NORMALIZED FREE ENERGY PREDICTED BY IDOCK:   -2.65 KCAL/MOL
REMARK 922        TOTAL FREE ENERGY PREDICTED BY IDOCK:   -3.44 KCAL/MOL
REMARK 923 INTER-LIGAND FREE ENERGY PREDICTED BY IDOCK:   -3.11 KCAL/MOL
REMARK 924 INTRA-LIGAND FREE ENERGY PREDICTED BY IDOCK:   -0.33 KCAL/MOL
REMARK 927      BINDING AFFINITY PREDICTED BY RF-SCORE:    0.00 PKD
ROOT
HETATM    1  C   UNL     1     -11.020  11.825  68.340  1.00  0.00    -0.274 C  
HETATM    2  C   UNL     1     -11.068  10.809  67.206  1.00  0.00    -0.339 C  
ENDROOT
BRANCH   2   3
HETATM    3  C   UNL     1      -9.993  11.023  66.137  1.00  0.00    -0.277 C  
HETATM    4  C   UNL     1      -9.013   9.855  65.943  1.00  0.00    -0.183 C  
HETATM    5  C   UNL     1     -10.531  11.207  64.734  1.00  0.00    -0.323 C  
HETATM    6  C   UNL     1      -8.551  10.102  64.515  1.00  0.00    -0.189 C  
HETATM    7  O   UNL     1      -9.695  10.613  63.832  1.00  0.00    -0.270 OA 
HETATM    8  O   UNL     1     -11.532  11.824  64.414  1.00  0.00    -0.324 OA 
BRANCH   4   9
HETATM    9  C   UNL     1      -9.630   8.448  66.106  1.00  0.00    -0.246 C  
BRANCH   9  10
HETATM   10  C   UNL     1      -8.794   7.555  66.968  1.00  0.00    -0.128 A  
HETATM   11  C   UNL     1      -8.405   7.692  68.289  1.00  0.00    -0.125 A  
HETATM   12  N   UNL     1      -7.614   6.648  68.686  1.00  0.00    -0.099 NA 
HETATM   13  C   UNL     1      -7.534   5.860  67.639  1.00  0.00    -0.078 A  
HETATM   14  N   UNL     1      -8.241   6.357  66.583  1.00  0.00    -0.110 NA 
HETATM   15  C   UNL     1      -8.366   5.705  65.299  1.00  0.00    -0.146 C  
ENDBRANCH   9  10
ENDBRANCH   4   9
ENDBRANCH   2   3
TORSDOF 3
ENDMDL
MODEL      188
REMARK 921   NORMALIZED FREE ENERGY PREDICTED BY IDOCK:   -2.65 KCAL/MOL
REMARK 922        TOTAL FREE ENERGY PREDICTED BY IDOCK:   -3.44 KCAL/MOL
REMARK 923 INTER-LIGAND FREE ENERGY PREDICTED BY IDOCK:   -3.38 KCAL/MOL
REMARK 924 INTRA-LIGAND FREE ENERGY PREDICTED BY IDOCK:   -0.07 KCAL/MOL
REMARK 927      BINDING AFFINITY PREDICTED BY RF-SCORE:    0.00 PKD
ROOT
HETATM    1  C   UNL     1     -10.275  10.844  64.840  1.00  0.00    -0.381 C  
HETATM    2  C   UNL     1     -10.146  11.082  66.339  1.00  0.00    -0.275 C  
ENDROOT
BRANCH   2   3
HETATM    3  C   UNL     1      -8.967  11.980  66.724  1.00  0.00    -0.198 C  
HETATM    4  C   UNL     1      -9.342  13.318  67.381  1.00  0.00    -0.217 C  
HETATM    5  C   UNL     1      -8.035  11.384  67.756  1.00  0.00    -0.119 C  
HETATM    6  C   UNL     1      -8.068  13.626  68.151  1.00  0.00    -0.156 C  
HETATM    7  O   UNL     1      -7.580  12.361  68.594  1.00  0.00    -0.116 OA 
HETATM    8  O   UNL     1      -7.683  10.219  67.832  1.00  0.00    -0.089 OA 
BRANCH   4   9
HETATM    9  C   UNL     1     -10.573  13.267  68.312  1.00  0.00    -0.262 C  
BRANCH   9  10
HETATM   10  C   UNL     1     -10.893  14.602  68.908  1.00  0.00    -0.250 A  
HETATM   11  C   UNL     1     -10.425  15.864  68.585  1.00  0.00    -0.240 A  
HETATM   12  N   UNL     1     -10.961  16.819  69.406  1.00  0.00    -0.252 NA 
HETATM   13  C   UNL     1     -11.770  16.167  70.209  1.00  0.00    -0.197 A  
HETATM   14  N   UNL     1     -11.775  14.830  69.939  1.00  0.00    -0.288 NA 
HETATM   15  C   UNL     1     -12.583  13.855  70.635  1.00  0.00    -0.335 C  
ENDBRANCH   9  10
ENDBRANCH   4   9
ENDBRANCH   2   3
TORSDOF 3
ENDMDL
MODEL      189
REMARK 921   NORMALIZED FREE ENERGY PREDICTED BY IDOCK:   -2.64 KCAL/MOL
REMARK 922        TOTAL FREE ENERGY PREDICTED BY IDOCK:   -3.43 KCAL/MOL
REMARK 923 INTER-LIGAND FREE ENERGY PREDICTED BY IDOCK:   -3.00 KCAL/MOL
REMARK 924 INTRA-LIGAND FREE ENERGY PREDICTED BY IDOCK:   -0.43 KCAL/MOL
REMARK 927      BINDING AFFINITY PREDICTED BY RF-SCORE:    0.00 PKD
ROOT
HETATM    1  C   UNL     1     -11.014   6.268  67.148  1.00  0.00    -0.453 C  
HETATM    2  C   UNL     1     -10.652   7.118  68.360  1.00  0.00    -0.223 C  
ENDROOT
BRANCH   2   3
HETATM    3  C   UNL     1     -11.215   6.585  69.680  1.00  0.00    -0.446 C  
HETATM    4  C   UNL     1     -10.427   5.428  70.315  1.00  0.00    -0.355 C  
HETATM    5  C   UNL     1     -11.235   7.595  70.807  1.00  0.00    -0.268 C  
HETATM    6  C   UNL     1     -10.829   5.574  71.774  1.00  0.00    -0.211 C  
HETATM    7  O   UNL     1     -10.955   6.978  71.992  1.00  0.00    -0.224 OA 
HETATM    8  O   UNL     1     -11.503   8.781  70.716  1.00  0.00    -0.275 OA 
BRANCH   4   9
HETATM    9  C   UNL     1      -8.894   5.504  70.137  1.00  0.00    -0.147 C  
BRANCH   9  10
HETATM   10  C   UNL     1      -8.372   4.431  69.234  1.00  0.00    -0.074 A  
HETATM   11  C   UNL     1      -8.482   3.055  69.319  1.00  0.00    -0.063 A  
HETATM   12  N   UNL     1      -7.828   2.438  68.287  1.00  0.00    -0.054 NA 
HETATM   13  C   UNL     1      -7.342   3.413  67.556  1.00  0.00    -0.059 A  
HETATM   14  N   UNL     1      -7.655   4.634  68.078  1.00  0.00    -0.077 NA 
HETATM   15  C   UNL     1      -7.283   5.900  67.486  1.00  0.00    -0.076 C  
ENDBRANCH   9  10
ENDBRANCH   4   9
ENDBRANCH   2   3
TORSDOF 3
ENDMDL
MODEL      190
REMARK 921   NORMALIZED FREE ENERGY PREDICTED BY IDOCK:   -2.62 KCAL/MOL
REMARK 922        TOTAL FREE ENERGY PREDICTED BY IDOCK:   -3.40 KCAL/MOL
REMARK 923 INTER-LIGAND FREE ENERGY PREDICTED BY IDOCK:   -3.19 KCAL/MOL
REMARK 924 INTRA-LIGAND FREE ENERGY PREDICTED BY IDOCK:   -0.21 KCAL/MOL
REMARK 927      BINDING AFFINITY PREDICTED BY RF-SCORE:    0.00 PKD
ROOT
HETATM    1  C   UNL     1      -7.709   7.313  67.793  1.00  0.00    -0.112 C  
HETATM    2  C   UNL     1      -7.372   8.677  68.381  1.00  0.00    -0.086 C  
ENDROOT
BRANCH   2   3
HETATM    3  C   UNL     1      -8.341   9.787  67.967  1.00  0.00    -0.110 C  
HETATM    4  C   UNL     1      -9.640   9.869  68.785  1.00  0.00    -0.160 C  
HETATM    5  C   UNL     1      -7.794  11.189  68.122  1.00  0.00    -0.118 C  
HETATM    6  C   UNL     1     -10.022  11.325  68.571  1.00  0.00    -0.202 C  
HETATM    7  O   UNL     1      -8.786  12.036  68.524  1.00  0.00    -0.163 OA 
HETATM    8  O   UNL     1      -6.654  11.555  67.888  1.00  0.00    -0.060 OA 
BRANCH   4   9
HETATM    9  C   UNL     1      -9.491   9.534  70.285  1.00  0.00    -0.307 C  
BRANCH   9  10
HETATM   10  C   UNL     1     -10.811   9.324  70.957  1.00  0.00    -0.314 A  
HETATM   11  C   UNL     1     -11.788  10.234  71.319  1.00  0.00    -0.335 A  
HETATM   12  N   UNL     1     -12.840   9.616  71.940  1.00  0.00    -0.403 NA 
HETATM   13  C   UNL     1     -12.536   8.339  71.941  1.00  0.00    -0.337 A  
HETATM   14  N   UNL     1     -11.329   8.111  71.347  1.00  0.00    -0.252 NA 
HETATM   15  C   UNL     1     -10.734   6.805  71.172  1.00  0.00    -0.229 C  
ENDBRANCH   9  10
ENDBRANCH   4   9
ENDBRANCH   2   3
TORSDOF 3
ENDMDL
MODEL      191
REMARK 921   NORMALIZED FREE ENERGY PREDICTED BY IDOCK:   -2.61 KCAL/MOL
REMARK 922        TOTAL FREE ENERGY PREDICTED BY IDOCK:   -3.39 KCAL/MOL
REMARK 923 INTER-LIGAND FREE ENERGY PREDICTED BY IDOCK:   -3.96 KCAL/MOL
REMARK 924 INTRA-LIGAND FREE ENERGY PREDICTED BY IDOCK:    0.58 KCAL/MOL
REMARK 927      BINDING AFFINITY PREDICTED BY RF-SCORE:    0.00 PKD
ROOT
HETATM    1  C   UNL     1      -6.008  18.884  68.043  1.00  0.00    -0.208 C  
HETATM    2  C   UNL     1      -7.285  18.348  68.678  1.00  0.00    -0.301 C  
ENDROOT
BRANCH   2   3
HETATM    3  C   UNL     1      -7.280  16.832  68.894  1.00  0.00    -0.225 C  
HETATM    4  C   UNL     1      -8.663  16.187  69.080  1.00  0.00    -0.254 C  
HETATM    5  C   UNL     1      -6.724  16.035  67.735  1.00  0.00    -0.154 C  
HETATM    6  C   UNL     1      -8.372  14.757  68.650  1.00  0.00    -0.165 C  
HETATM    7  O   UNL     1      -7.418  14.867  67.595  1.00  0.00    -0.150 OA 
HETATM    8  O   UNL     1      -5.771  16.335  67.036  1.00  0.00    -0.314 OA 
BRANCH   4   9
HETATM    9  C   UNL     1      -9.797  16.814  68.238  1.00  0.00    -0.257 C  
BRANCH   9  10
HETATM   10  C   UNL     1     -10.606  15.785  67.514  1.00  0.00    -0.309 A  
HETATM   11  C   UNL     1     -10.523  15.335  66.209  1.00  0.00    -0.307 A  
HETATM   12  N   UNL     1     -11.480  14.393  65.944  1.00  0.00    -0.337 NA 
HETATM   13  C   UNL     1     -12.132  14.240  67.073  1.00  0.00    -0.390 A  
HETATM   14  N   UNL     1     -11.633  15.046  68.054  1.00  0.00    -0.337 NA 
HETATM   15  C   UNL     1     -12.123  15.086  69.413  1.00  0.00    -0.255 C  
ENDBRANCH   9  10
ENDBRANCH   4   9
ENDBRANCH   2   3
TORSDOF 3
ENDMDL
MODEL      192
REMARK 921   NORMALIZED FREE ENERGY PREDICTED BY IDOCK:   -2.60 KCAL/MOL
REMARK 922        TOTAL FREE ENERGY PREDICTED BY IDOCK:   -3.38 KCAL/MOL
REMARK 923 INTER-LIGAND FREE ENERGY PREDICTED BY IDOCK:   -2.98 KCAL/MOL
REMARK 924 INTRA-LIGAND FREE ENERGY PREDICTED BY IDOCK:   -0.40 KCAL/MOL
REMARK 927      BINDING AFFINITY PREDICTED BY RF-SCORE:    0.00 PKD
ROOT
HETATM    1  C   UNL     1      -9.617   5.280  69.992  1.00  0.00    -0.238 C  
HETATM    2  C   UNL     1      -8.845   4.702  68.813  1.00  0.00    -0.127 C  
ENDROOT
BRANCH   2   3
HETATM    3  C   UNL     1      -9.738   4.198  67.676  1.00  0.00    -0.176 C  
HETATM    4  C   UNL     1     -10.204   5.270  66.677  1.00  0.00    -0.291 C  
HETATM    5  C   UNL     1      -9.077   3.193  66.758  1.00  0.00    -0.167 C  
HETATM    6  C   UNL     1     -10.484   4.417  65.450  1.00  0.00    -0.193 C  
HETATM    7  O   UNL     1      -9.495   3.389  65.473  1.00  0.00    -0.160 OA 
HETATM    8  O   UNL     1      -8.317   2.298  67.085  1.00  0.00    -0.079 OA 
BRANCH   4   9
HETATM    9  C   UNL     1      -9.170   6.378  66.377  1.00  0.00    -0.176 C  
BRANCH   9  10
HETATM   10  C   UNL     1      -9.691   7.745  66.694  1.00  0.00    -0.222 A  
HETATM   11  C   UNL     1     -10.517   8.175  67.717  1.00  0.00    -0.214 A  
HETATM   12  N   UNL     1     -10.769   9.517  67.623  1.00  0.00    -0.278 NA 
HETATM   13  C   UNL     1     -10.090   9.921  66.575  1.00  0.00    -0.232 A  
HETATM   14  N   UNL     1      -9.412   8.893  65.990  1.00  0.00    -0.246 NA 
HETATM   15  C   UNL     1      -8.555   9.027  64.833  1.00  0.00    -0.180 C  
ENDBRANCH   9  10
ENDBRANCH   4   9
ENDBRANCH   2   3
TORSDOF 3
ENDMDL
MODEL      193
REMARK 921   NORMALIZED FREE ENERGY PREDICTED BY IDOCK:   -2.58 KCAL/MOL
REMARK 922        TOTAL FREE ENERGY PREDICTED BY IDOCK:   -3.35 KCAL/MOL
REMARK 923 INTER-LIGAND FREE ENERGY PREDICTED BY IDOCK:   -3.12 KCAL/MOL
REMARK 924 INTRA-LIGAND FREE ENERGY PREDICTED BY IDOCK:   -0.23 KCAL/MOL
REMARK 927      BINDING AFFINITY PREDICTED BY RF-SCORE:    0.00 PKD
ROOT
HETATM    1  C   UNL     1      -7.296   4.236  71.099  1.00  0.00    -0.044 C  
HETATM    2  C   UNL     1      -7.864   5.533  70.536  1.00  0.00    -0.098 C  
ENDROOT
BRANCH   2   3
HETATM    3  C   UNL     1      -9.391   5.542  70.424  1.00  0.00    -0.198 C  
HETATM    4  C   UNL     1     -10.052   6.926  70.530  1.00  0.00    -0.201 C  
HETATM    5  C   UNL     1      -9.926   5.049  69.098  1.00  0.00    -0.196 C  
HETATM    6  C   UNL     1     -11.359   6.677  69.793  1.00  0.00    -0.354 C  
HETATM    7  O   UNL     1     -11.032   5.767  68.744  1.00  0.00    -0.271 OA 
HETATM    8  O   UNL     1      -9.489   4.123  68.436  1.00  0.00    -0.145 OA 
BRANCH   4   9
HETATM    9  C   UNL     1      -9.252   8.084  69.894  1.00  0.00    -0.152 C  
BRANCH   9  10
HETATM   10  C   UNL     1     -10.140   9.148  69.329  1.00  0.00    -0.194 A  
HETATM   11  C   UNL     1     -10.994  10.033  69.963  1.00  0.00    -0.300 A  
HETATM   12  N   UNL     1     -11.644  10.831  69.061  1.00  0.00    -0.297 NA 
HETATM   13  C   UNL     1     -11.183  10.469  67.887  1.00  0.00    -0.289 A  
HETATM   14  N   UNL     1     -10.262   9.468  67.997  1.00  0.00    -0.189 NA 
HETATM   15  C   UNL     1      -9.557   8.874  66.884  1.00  0.00    -0.190 C  
ENDBRANCH   9  10
ENDBRANCH   4   9
ENDBRANCH   2   3
TORSDOF 3
ENDMDL
MODEL      194
REMARK 921   NORMALIZED FREE ENERGY PREDICTED BY IDOCK:   -2.58 KCAL/MOL
REMARK 922        TOTAL FREE ENERGY PREDICTED BY IDOCK:   -3.35 KCAL/MOL
REMARK 923 INTER-LIGAND FREE ENERGY PREDICTED BY IDOCK:   -3.13 KCAL/MOL
REMARK 924 INTRA-LIGAND FREE ENERGY PREDICTED BY IDOCK:   -0.22 KCAL/MOL
REMARK 927      BINDING AFFINITY PREDICTED BY RF-SCORE:    0.00 PKD
ROOT
HETATM    1  C   UNL     1     -10.797   6.796  68.560  1.00  0.00    -0.280 C  
HETATM    2  C   UNL     1     -10.223   8.159  68.192  1.00  0.00    -0.253 C  
ENDROOT
BRANCH   2   3
HETATM    3  C   UNL     1      -9.729   8.254  66.746  1.00  0.00    -0.307 C  
HETATM    4  C   UNL     1      -9.558   9.681  66.199  1.00  0.00    -0.295 C  
HETATM    5  C   UNL     1      -8.353   7.671  66.513  1.00  0.00    -0.129 C  
HETATM    6  C   UNL     1      -8.538   9.444  65.097  1.00  0.00    -0.167 C  
HETATM    7  O   UNL     1      -7.678   8.419  65.593  1.00  0.00    -0.092 OA 
HETATM    8  O   UNL     1      -7.897   6.659  67.019  1.00  0.00    -0.105 OA 
BRANCH   4   9
HETATM    9  C   UNL     1      -9.057  10.720  67.226  1.00  0.00    -0.151 C  
BRANCH   9  10
HETATM   10  C   UNL     1      -9.374  12.124  66.817  1.00  0.00    -0.212 A  
HETATM   11  C   UNL     1     -10.497  12.647  66.202  1.00  0.00    -0.258 A  
HETATM   12  N   UNL     1     -10.365  13.992  65.983  1.00  0.00    -0.297 NA 
HETATM   13  C   UNL     1      -9.190  14.306  66.477  1.00  0.00    -0.235 A  
HETATM   14  N   UNL     1      -8.561  13.217  67.005  1.00  0.00    -0.193 NA 
HETATM   15  C   UNL     1      -7.265  13.248  67.645  1.00  0.00    -0.162 C  
ENDBRANCH   9  10
ENDBRANCH   4   9
ENDBRANCH   2   3
TORSDOF 3
ENDMDL
MODEL      195
REMARK 921   NORMALIZED FREE ENERGY PREDICTED BY IDOCK:   -2.58 KCAL/MOL
REMARK 922        TOTAL FREE ENERGY PREDICTED BY IDOCK:   -3.35 KCAL/MOL
REMARK 923 INTER-LIGAND FREE ENERGY PREDICTED BY IDOCK:   -3.17 KCAL/MOL
REMARK 924 INTRA-LIGAND FREE ENERGY PREDICTED BY IDOCK:   -0.18 KCAL/MOL
REMARK 927      BINDING AFFINITY PREDICTED BY RF-SCORE:    0.00 PKD
ROOT
HETATM    1  C   UNL     1     -10.418  14.300  66.561  1.00  0.00    -0.287 C  
HETATM    2  C   UNL     1      -9.717  13.084  67.154  1.00  0.00    -0.230 C  
ENDROOT
BRANCH   2   3
HETATM    3  C   UNL     1     -10.149  11.755  66.530  1.00  0.00    -0.232 C  
HETATM    4  C   UNL     1      -9.023  10.732  66.307  1.00  0.00    -0.184 C  
HETATM    5  C   UNL     1     -11.126  10.957  67.366  1.00  0.00    -0.307 C  
HETATM    6  C   UNL     1      -9.814   9.433  66.297  1.00  0.00    -0.281 C  
HETATM    7  O   UNL     1     -10.863   9.623  67.246  1.00  0.00    -0.254 OA 
HETATM    8  O   UNL     1     -12.050  11.401  68.026  1.00  0.00    -0.629 OA 
BRANCH   4   9
HETATM    9  C   UNL     1      -7.925  10.722  67.393  1.00  0.00    -0.112 C  
BRANCH   9  10
HETATM   10  C   UNL     1      -7.592   9.338  67.855  1.00  0.00    -0.084 A  
HETATM   11  C   UNL     1      -6.831   8.351  67.254  1.00  0.00    -0.070 A  
HETATM   12  N   UNL     1      -6.802   7.212  68.012  1.00  0.00    -0.068 NA 
HETATM   13  C   UNL     1      -7.511   7.493  69.081  1.00  0.00    -0.098 A  
HETATM   14  N   UNL     1      -7.996   8.767  69.039  1.00  0.00    -0.109 NA 
HETATM   15  C   UNL     1      -8.791   9.378  70.081  1.00  0.00    -0.223 C  
ENDBRANCH   9  10
ENDBRANCH   4   9
ENDBRANCH   2   3
TORSDOF 3
ENDMDL
MODEL      196
REMARK 921   NORMALIZED FREE ENERGY PREDICTED BY IDOCK:   -2.57 KCAL/MOL
REMARK 922        TOTAL FREE ENERGY PREDICTED BY IDOCK:   -3.34 KCAL/MOL
REMARK 923 INTER-LIGAND FREE ENERGY PREDICTED BY IDOCK:   -3.05 KCAL/MOL
REMARK 924 INTRA-LIGAND FREE ENERGY PREDICTED BY IDOCK:   -0.28 KCAL/MOL
REMARK 927      BINDING AFFINITY PREDICTED BY RF-SCORE:    0.00 PKD
ROOT
HETATM    1  C   UNL     1      -6.040  16.588  69.005  1.00  0.00    -0.155 C  
HETATM    2  C   UNL     1      -6.946  15.819  68.051  1.00  0.00    -0.137 C  
ENDROOT
BRANCH   2   3
HETATM    3  C   UNL     1      -7.664  14.633  68.700  1.00  0.00    -0.135 C  
HETATM    4  C   UNL     1      -8.987  14.218  68.036  1.00  0.00    -0.183 C  
HETATM    5  C   UNL     1      -6.886  13.335  68.668  1.00  0.00    -0.099 C  
HETATM    6  C   UNL     1      -9.082  12.764  68.470  1.00  0.00    -0.049 C  
HETATM    7  O   UNL     1      -7.738  12.285  68.480  1.00  0.00    -0.125 OA 
HETATM    8  O   UNL     1      -5.685  13.203  68.829  1.00  0.00    -0.069 OA 
BRANCH   4   9
HETATM    9  C   UNL     1      -9.018  14.356  66.497  1.00  0.00    -0.191 C  
BRANCH   9  10
HETATM   10  C   UNL     1     -10.404  14.247  65.943  1.00  0.00    -0.314 A  
HETATM   11  C   UNL     1     -11.583  14.842  66.354  1.00  0.00    -0.299 A  
HETATM   12  N   UNL     1     -12.638  14.447  65.576  1.00  0.00    -0.383 NA 
HETATM   13  C   UNL     1     -12.120  13.641  64.679  1.00  0.00    -0.412 A  
HETATM   14  N   UNL     1     -10.774  13.500  64.849  1.00  0.00    -0.357 NA 
HETATM   15  C   UNL     1      -9.919  12.697  64.004  1.00  0.00    -0.145 C  
ENDBRANCH   9  10
ENDBRANCH   4   9
ENDBRANCH   2   3
TORSDOF 3
ENDMDL
MODEL      197
REMARK 921   NORMALIZED FREE ENERGY PREDICTED BY IDOCK:   -2.55 KCAL/MOL
REMARK 922        TOTAL FREE ENERGY PREDICTED BY IDOCK:   -3.31 KCAL/MOL
REMARK 923 INTER-LIGAND FREE ENERGY PREDICTED BY IDOCK:   -3.43 KCAL/MOL
REMARK 924 INTRA-LIGAND FREE ENERGY PREDICTED BY IDOCK:    0.11 KCAL/MOL
REMARK 927      BINDING AFFINITY PREDICTED BY RF-SCORE:    0.00 PKD
ROOT
HETATM    1  C   UNL     1     -10.731   5.918  67.265  1.00  0.00    -0.380 C  
HETATM    2  C   UNL     1     -10.966   6.779  68.499  1.00  0.00    -0.258 C  
ENDROOT
BRANCH   2   3
HETATM    3  C   UNL     1     -11.055   5.982  69.803  1.00  0.00    -0.476 C  
HETATM    4  C   UNL     1      -9.723   5.768  70.540  1.00  0.00    -0.225 C  
HETATM    5  C   UNL     1     -11.899   6.630  70.879  1.00  0.00    -0.377 C  
HETATM    6  C   UNL     1     -10.215   5.546  71.962  1.00  0.00    -0.199 C  
HETATM    7  O   UNL     1     -11.349   6.399  72.107  1.00  0.00    -0.261 OA 
HETATM    8  O   UNL     1     -12.944   7.237  70.717  1.00  0.00    -0.164 OA 
BRANCH   4   9
HETATM    9  C   UNL     1      -8.734   6.951  70.459  1.00  0.00    -0.150 C  
BRANCH   9  10
HETATM   10  C   UNL     1      -8.283   7.412  71.809  1.00  0.00    -0.103 A  
HETATM   11  C   UNL     1      -8.832   8.347  72.667  1.00  0.00    -0.217 A  
HETATM   12  N   UNL     1      -8.081   8.484  73.803  1.00  0.00    -0.398 NA 
HETATM   13  C   UNL     1      -7.094   7.629  73.667  1.00  0.00    -0.093 A  
HETATM   14  N   UNL     1      -7.180   6.948  72.489  1.00  0.00    -0.080 NA 
HETATM   15  C   UNL     1      -6.256   5.921  72.064  1.00  0.00    -0.044 C  
ENDBRANCH   9  10
ENDBRANCH   4   9
ENDBRANCH   2   3
TORSDOF 3
ENDMDL
MODEL      198
REMARK 921   NORMALIZED FREE ENERGY PREDICTED BY IDOCK:   -2.51 KCAL/MOL
REMARK 922        TOTAL FREE ENERGY PREDICTED BY IDOCK:   -3.28 KCAL/MOL
REMARK 923 INTER-LIGAND FREE ENERGY PREDICTED BY IDOCK:   -2.91 KCAL/MOL
REMARK 924 INTRA-LIGAND FREE ENERGY PREDICTED BY IDOCK:   -0.36 KCAL/MOL
REMARK 927      BINDING AFFINITY PREDICTED BY RF-SCORE:    0.00 PKD
ROOT
HETATM    1  C   UNL     1      -9.729  11.313  67.755  1.00  0.00    -0.184 C  
HETATM    2  C   UNL     1     -10.091   9.855  67.501  1.00  0.00    -0.244 C  
ENDROOT
BRANCH   2   3
HETATM    3  C   UNL     1      -8.921   9.005  66.999  1.00  0.00    -0.144 C  
HETATM    4  C   UNL     1      -8.892   7.554  67.508  1.00  0.00    -0.127 C  
HETATM    5  C   UNL     1      -8.889   8.803  65.500  1.00  0.00    -0.188 C  
HETATM    6  C   UNL     1      -8.075   6.884  66.416  1.00  0.00    -0.113 C  
HETATM    7  O   UNL     1      -8.445   7.546  65.207  1.00  0.00    -0.132 OA 
HETATM    8  O   UNL     1      -9.167   9.631  64.649  1.00  0.00    -0.244 OA 
BRANCH   4   9
HETATM    9  C   UNL     1     -10.278   6.891  67.672  1.00  0.00    -0.235 C  
BRANCH   9  10
HETATM   10  C   UNL     1     -10.426   6.198  68.990  1.00  0.00    -0.248 A  
HETATM   11  C   UNL     1     -11.019   6.624  70.165  1.00  0.00    -0.305 A  
HETATM   12  N   UNL     1     -10.911   5.679  71.149  1.00  0.00    -0.245 NA 
HETATM   13  C   UNL     1     -10.285   4.670  70.588  1.00  0.00    -0.141 A  
HETATM   14  N   UNL     1      -9.985   4.929  69.283  1.00  0.00    -0.205 NA 
HETATM   15  C   UNL     1      -9.320   4.003  68.394  1.00  0.00    -0.160 C  
ENDBRANCH   9  10
ENDBRANCH   4   9
ENDBRANCH   2   3
TORSDOF 3
ENDMDL
MODEL      199
REMARK 921   NORMALIZED FREE ENERGY PREDICTED BY IDOCK:   -2.51 KCAL/MOL
REMARK 922        TOTAL FREE ENERGY PREDICTED BY IDOCK:   -3.27 KCAL/MOL
REMARK 923 INTER-LIGAND FREE ENERGY PREDICTED BY IDOCK:   -3.48 KCAL/MOL
REMARK 924 INTRA-LIGAND FREE ENERGY PREDICTED BY IDOCK:    0.21 KCAL/MOL
REMARK 927      BINDING AFFINITY PREDICTED BY RF-SCORE:    0.00 PKD
ROOT
HETATM    1  C   UNL     1     -10.173   7.852  71.401  1.00  0.00    -0.226 C  
HETATM    2  C   UNL     1     -10.631   8.991  70.499  1.00  0.00    -0.274 C  
ENDROOT
BRANCH   2   3
HETATM    3  C   UNL     1     -10.542   8.672  69.005  1.00  0.00    -0.179 C  
HETATM    4  C   UNL     1     -10.599   9.887  68.065  1.00  0.00    -0.288 C  
HETATM    5  C   UNL     1      -9.245   8.018  68.579  1.00  0.00    -0.135 C  
HETATM    6  C   UNL     1      -9.893   9.334  66.837  1.00  0.00    -0.214 C  
HETATM    7  O   UNL     1      -8.878   8.468  67.344  1.00  0.00    -0.132 OA 
HETATM    8  O   UNL     1      -8.617   7.176  69.199  1.00  0.00    -0.132 OA 
BRANCH   4   9
HETATM    9  C   UNL     1      -9.902  11.159  68.597  1.00  0.00    -0.207 C  
BRANCH   9  10
HETATM   10  C   UNL     1     -10.717  12.393  68.368  1.00  0.00    -0.235 A  
HETATM   11  C   UNL     1     -11.674  12.996  69.164  1.00  0.00    -0.326 A  
HETATM   12  N   UNL     1     -12.198  14.107  68.560  1.00  0.00    -0.262 NA 
HETATM   13  C   UNL     1     -11.559  14.210  67.418  1.00  0.00    -0.372 A  
HETATM   14  N   UNL     1     -10.645  13.208  67.263  1.00  0.00    -0.246 NA 
HETATM   15  C   UNL     1      -9.770  13.065  66.121  1.00  0.00    -0.251 C  
ENDBRANCH   9  10
ENDBRANCH   4   9
ENDBRANCH   2   3
TORSDOF 3
ENDMDL
MODEL      200
REMARK 921   NORMALIZED FREE ENERGY PREDICTED BY IDOCK:   -2.50 KCAL/MOL
REMARK 922        TOTAL FREE ENERGY PREDICTED BY IDOCK:   -3.26 KCAL/MOL
REMARK 923 INTER-LIGAND FREE ENERGY PREDICTED BY IDOCK:   -3.67 KCAL/MOL
REMARK 924 INTRA-LIGAND FREE ENERGY PREDICTED BY IDOCK:    0.40 KCAL/MOL
REMARK 927      BINDING AFFINITY PREDICTED BY RF-SCORE:    0.00 PKD
ROOT
HETATM    1  C   UNL     1      -6.924  12.199  67.020  1.00  0.00    -0.068 C  
HETATM    2  C   UNL     1      -7.920  12.706  68.056  1.00  0.00    -0.155 C  
ENDROOT
BRANCH   2   3
HETATM    3  C   UNL     1      -9.057  11.726  68.353  1.00  0.00    -0.176 C  
HETATM    4  C   UNL     1     -10.281  11.835  67.429  1.00  0.00    -0.220 C  
HETATM    5  C   UNL     1      -8.686  10.267  68.197  1.00  0.00    -0.123 C  
HETATM    6  C   UNL     1     -10.866  10.438  67.563  1.00  0.00    -0.301 C  
HETATM    7  O   UNL     1      -9.742   9.568  67.687  1.00  0.00    -0.146 OA 
HETATM    8  O   UNL     1      -7.628   9.748  68.511  1.00  0.00    -0.079 OA 
BRANCH   4   9
HETATM    9  C   UNL     1      -9.962  12.180  65.958  1.00  0.00    -0.257 C  
BRANCH   9  10
HETATM   10  C   UNL     1     -10.920  13.176  65.385  1.00  0.00    -0.279 A  
HETATM   11  C   UNL     1     -11.873  13.036  64.392  1.00  0.00    -0.386 A  
HETATM   12  N   UNL     1     -12.523  14.217  64.155  1.00  0.00    -0.696 NA 
HETATM   13  C   UNL     1     -12.004  15.072  65.005  1.00  0.00    -0.191 A  
HETATM   14  N   UNL     1     -11.044  14.489  65.779  1.00  0.00    -0.317 NA 
HETATM   15  C   UNL     1     -10.308  15.165  66.823  1.00  0.00    -0.273 C  
ENDBRANCH   9  10
ENDBRANCH   4   9
ENDBRANCH   2   3
TORSDOF 3
ENDMDL
MODEL      201
REMARK 921   NORMALIZED FREE ENERGY PREDICTED BY IDOCK:   -2.47 KCAL/MOL
REMARK 922        TOTAL FREE ENERGY PREDICTED BY IDOCK:   -3.22 KCAL/MOL
REMARK 923 INTER-LIGAND FREE ENERGY PREDICTED BY IDOCK:   -2.85 KCAL/MOL
REMARK 924 INTRA-LIGAND FREE ENERGY PREDICTED BY IDOCK:   -0.37 KCAL/MOL
REMARK 927      BINDING AFFINITY PREDICTED BY RF-SCORE:    0.00 PKD
ROOT
HETATM    1  C   UNL     1      -6.986   9.769  64.494  1.00  0.00    -0.125 C  
HETATM    2  C   UNL     1      -7.625   9.470  65.844  1.00  0.00    -0.100 C  
ENDROOT
BRANCH   2   3
HETATM    3  C   UNL     1      -9.090   9.905  65.946  1.00  0.00    -0.201 C  
HETATM    4  C   UNL     1      -9.999   8.975  66.766  1.00  0.00    -0.332 C  
HETATM    5  C   UNL     1      -9.304  11.232  66.640  1.00  0.00    -0.180 C  
HETATM    6  C   UNL     1     -11.101   9.940  67.174  1.00  0.00     0.064 C  
HETATM    7  O   UNL     1     -10.449  11.192  67.382  1.00  0.00    -0.201 OA 
HETATM    8  O   UNL     1      -8.605  12.226  66.540  1.00  0.00    -0.149 OA 
BRANCH   4   9
HETATM    9  C   UNL     1      -9.330   8.323  67.996  1.00  0.00    -0.141 C  
BRANCH   9  10
HETATM   10  C   UNL     1     -10.329   7.794  68.976  1.00  0.00    -0.211 A  
HETATM   11  C   UNL     1     -11.113   6.655  68.931  1.00  0.00    -0.246 A  
HETATM   12  N   UNL     1     -11.917   6.560  70.034  1.00  0.00    -0.250 NA 
HETATM   13  C   UNL     1     -11.620   7.607  70.767  1.00  0.00    -0.265 A  
HETATM   14  N   UNL     1     -10.658   8.374  70.179  1.00  0.00    -0.229 NA 
HETATM   15  C   UNL     1     -10.102   9.579  70.753  1.00  0.00    -0.282 C  
ENDBRANCH   9  10
ENDBRANCH   4   9
ENDBRANCH   2   3
TORSDOF 3
ENDMDL
MODEL      202
REMARK 921   NORMALIZED FREE ENERGY PREDICTED BY IDOCK:   -2.43 KCAL/MOL
REMARK 922        TOTAL FREE ENERGY PREDICTED BY IDOCK:   -3.18 KCAL/MOL
REMARK 923 INTER-LIGAND FREE ENERGY PREDICTED BY IDOCK:   -2.99 KCAL/MOL
REMARK 924 INTRA-LIGAND FREE ENERGY PREDICTED BY IDOCK:   -0.19 KCAL/MOL
REMARK 927      BINDING AFFINITY PREDICTED BY RF-SCORE:    0.00 PKD
ROOT
HETATM    1  C   UNL     1      -5.827  10.318  68.225  1.00  0.00    -0.041 C  
HETATM    2  C   UNL     1      -6.914  10.291  67.158  1.00  0.00    -0.088 C  
ENDROOT
BRANCH   2   3
HETATM    3  C   UNL     1      -8.336  10.369  67.720  1.00  0.00    -0.114 C  
HETATM    4  C   UNL     1      -8.818  11.778  68.102  1.00  0.00    -0.169 C  
HETATM    5  C   UNL     1      -9.417   9.926  66.759  1.00  0.00    -0.169 C  
HETATM    6  C   UNL     1     -10.325  11.600  68.006  1.00  0.00    -0.192 C  
HETATM    7  O   UNL     1     -10.531  10.698  66.920  1.00  0.00    -0.229 OA 
HETATM    8  O   UNL     1      -9.355   8.994  65.975  1.00  0.00    -0.205 OA 
BRANCH   4   9
HETATM    9  C   UNL     1      -8.320  12.913  67.179  1.00  0.00    -0.158 C  
BRANCH   9  10
HETATM   10  C   UNL     1      -9.333  14.001  67.015  1.00  0.00    -0.250 A  
HETATM   11  C   UNL     1     -10.232  14.243  65.992  1.00  0.00    -0.315 A  
HETATM   12  N   UNL     1     -10.967  15.373  66.231  1.00  0.00    -0.311 NA 
HETATM   13  C   UNL     1     -10.551  15.813  67.396  1.00  0.00    -0.313 A  
HETATM   14  N   UNL     1      -9.577  15.012  67.916  1.00  0.00    -0.202 NA 
HETATM   15  C   UNL     1      -8.939  15.221  69.196  1.00  0.00    -0.233 C  
ENDBRANCH   9  10
ENDBRANCH   4   9
ENDBRANCH   2   3
TORSDOF 3
ENDMDL
MODEL      203
REMARK 921   NORMALIZED FREE ENERGY PREDICTED BY IDOCK:   -2.43 KCAL/MOL
REMARK 922        TOTAL FREE ENERGY PREDICTED BY IDOCK:   -3.18 KCAL/MOL
REMARK 923 INTER-LIGAND FREE ENERGY PREDICTED BY IDOCK:   -3.52 KCAL/MOL
REMARK 924 INTRA-LIGAND FREE ENERGY PREDICTED BY IDOCK:    0.34 KCAL/MOL
REMARK 927      BINDING AFFINITY PREDICTED BY RF-SCORE:    0.00 PKD
ROOT
HETATM    1  C   UNL     1      -6.983  12.252  68.941  1.00  0.00    -0.098 C  
HETATM    2  C   UNL     1      -6.464  13.179  67.850  1.00  0.00    -0.138 C  
ENDROOT
BRANCH   2   3
HETATM    3  C   UNL     1      -6.676  14.666  68.147  1.00  0.00    -0.135 C  
HETATM    4  C   UNL     1      -7.949  15.284  67.546  1.00  0.00    -0.197 C  
HETATM    5  C   UNL     1      -6.840  14.995  69.615  1.00  0.00    -0.183 C  
HETATM    6  C   UNL     1      -8.166  16.461  68.484  1.00  0.00    -0.201 C  
HETATM    7  O   UNL     1      -7.750  16.001  69.769  1.00  0.00    -0.053 OA 
HETATM    8  O   UNL     1      -6.235  14.491  70.545  1.00  0.00    -0.178 OA 
BRANCH   4   9
HETATM    9  C   UNL     1      -9.178  14.349  67.513  1.00  0.00    -0.200 C  
BRANCH   9  10
HETATM   10  C   UNL     1     -10.134  14.702  66.417  1.00  0.00    -0.278 A  
HETATM   11  C   UNL     1     -10.084  15.714  65.475  1.00  0.00    -0.362 A  
HETATM   12  N   UNL     1     -11.187  15.696  64.666  1.00  0.00    -0.419 NA 
HETATM   13  C   UNL     1     -11.900  14.674  65.079  1.00  0.00    -0.377 A  
HETATM   14  N   UNL     1     -11.300  14.034  66.123  1.00  0.00    -0.315 NA 
HETATM   15  C   UNL     1     -11.828  12.859  66.779  1.00  0.00    -0.385 C  
ENDBRANCH   9  10
ENDBRANCH   4   9
ENDBRANCH   2   3
TORSDOF 3
ENDMDL
MODEL      204
REMARK 921   NORMALIZED FREE ENERGY PREDICTED BY IDOCK:   -2.43 KCAL/MOL
REMARK 922        TOTAL FREE ENERGY PREDICTED BY IDOCK:   -3.18 KCAL/MOL
REMARK 923 INTER-LIGAND FREE ENERGY PREDICTED BY IDOCK:   -2.84 KCAL/MOL
REMARK 924 INTRA-LIGAND FREE ENERGY PREDICTED BY IDOCK:   -0.33 KCAL/MOL
REMARK 927      BINDING AFFINITY PREDICTED BY RF-SCORE:    0.00 PKD
ROOT
HETATM    1  C   UNL     1     -10.817   6.093  67.393  1.00  0.00    -0.431 C  
HETATM    2  C   UNL     1     -10.889   6.864  68.705  1.00  0.00    -0.238 C  
ENDROOT
BRANCH   2   3
HETATM    3  C   UNL     1     -11.112   5.977  69.933  1.00  0.00    -0.469 C  
HETATM    4  C   UNL     1      -9.859   5.272  70.476  1.00  0.00    -0.274 C  
HETATM    5  C   UNL     1     -11.602   6.715  71.160  1.00  0.00    -0.332 C  
HETATM    6  C   UNL     1     -10.265   5.037  71.922  1.00  0.00    -0.204 C  
HETATM    7  O   UNL     1     -11.047   6.174  72.284  1.00  0.00    -0.247 OA 
HETATM    8  O   UNL     1     -12.407   7.631  71.185  1.00  0.00    -0.312 OA 
BRANCH   4   9
HETATM    9  C   UNL     1      -8.553   6.091  70.378  1.00  0.00    -0.133 C  
BRANCH   9  10
HETATM   10  C   UNL     1      -7.352   5.225  70.157  1.00  0.00    -0.067 A  
HETATM   11  C   UNL     1      -7.038   4.376  69.111  1.00  0.00    -0.051 A  
HETATM   12  N   UNL     1      -5.840   3.749  69.320  1.00  0.00    -0.022 NA 
HETATM   13  C   UNL     1      -5.402   4.219  70.465  1.00  0.00    -0.004 A  
HETATM   14  N   UNL     1      -6.271   5.123  71.001  1.00  0.00    -0.022 NA 
HETATM   15  C   UNL     1      -6.055   5.833  72.242  1.00  0.00    -0.040 C  
ENDBRANCH   9  10
ENDBRANCH   4   9
ENDBRANCH   2   3
TORSDOF 3
ENDMDL
MODEL      205
REMARK 921   NORMALIZED FREE ENERGY PREDICTED BY IDOCK:   -2.42 KCAL/MOL
REMARK 922        TOTAL FREE ENERGY PREDICTED BY IDOCK:   -3.17 KCAL/MOL
REMARK 923 INTER-LIGAND FREE ENERGY PREDICTED BY IDOCK:   -2.92 KCAL/MOL
REMARK 924 INTRA-LIGAND FREE ENERGY PREDICTED BY IDOCK:   -0.25 KCAL/MOL
REMARK 927      BINDING AFFINITY PREDICTED BY RF-SCORE:    0.00 PKD
ROOT
HETATM    1  C   UNL     1      -9.975   2.375  73.364  1.00  0.00    -0.165 C  
HETATM    2  C   UNL     1     -10.012   3.084  72.016  1.00  0.00    -0.224 C  
ENDROOT
BRANCH   2   3
HETATM    3  C   UNL     1      -9.585   4.553  72.077  1.00  0.00    -0.209 C  
HETATM    4  C   UNL     1      -9.179   5.179  70.733  1.00  0.00    -0.188 C  
HETATM    5  C   UNL     1     -10.668   5.502  72.541  1.00  0.00    -0.240 C  
HETATM    6  C   UNL     1      -9.428   6.652  71.016  1.00  0.00    -0.164 C  
HETATM    7  O   UNL     1     -10.574   6.684  71.864  1.00  0.00    -0.208 OA 
HETATM    8  O   UNL     1     -11.491   5.296  73.417  1.00  0.00    -0.261 OA 
BRANCH   4   9
HETATM    9  C   UNL     1      -9.988   4.689  69.511  1.00  0.00    -0.266 C  
BRANCH   9  10
HETATM   10  C   UNL     1      -9.292   4.968  68.217  1.00  0.00    -0.126 A  
HETATM   11  C   UNL     1      -8.084   4.502  67.729  1.00  0.00    -0.099 A  
HETATM   12  N   UNL     1      -7.805   5.032  66.498  1.00  0.00    -0.099 NA 
HETATM   13  C   UNL     1      -8.834   5.795  66.212  1.00  0.00    -0.140 A  
HETATM   14  N   UNL     1      -9.764   5.778  67.210  1.00  0.00    -0.122 NA 
HETATM   15  C   UNL     1     -11.018   6.497  67.177  1.00  0.00    -0.408 C  
ENDBRANCH   9  10
ENDBRANCH   4   9
ENDBRANCH   2   3
TORSDOF 3
ENDMDL
MODEL      206
REMARK 921   NORMALIZED FREE ENERGY PREDICTED BY IDOCK:   -2.38 KCAL/MOL
REMARK 922        TOTAL FREE ENERGY PREDICTED BY IDOCK:   -3.12 KCAL/MOL
REMARK 923 INTER-LIGAND FREE ENERGY PREDICTED BY IDOCK:   -3.64 KCAL/MOL
REMARK 924 INTRA-LIGAND FREE ENERGY PREDICTED BY IDOCK:    0.52 KCAL/MOL
REMARK 927      BINDING AFFINITY PREDICTED BY RF-SCORE:    0.00 PKD
ROOT
HETATM    1  C   UNL     1      -6.524   6.814  71.025  1.00  0.00    -0.049 C  
HETATM    2  C   UNL     1      -7.675   6.705  72.018  1.00  0.00    -0.097 C  
ENDROOT
BRANCH   2   3
HETATM    3  C   UNL     1      -8.967   6.153  71.410  1.00  0.00    -0.143 C  
HETATM    4  C   UNL     1     -10.265   6.809  71.910  1.00  0.00    -0.206 C  
HETATM    5  C   UNL     1      -9.087   6.342  69.913  1.00  0.00    -0.144 C  
HETATM    6  C   UNL     1     -11.199   6.520  70.746  1.00  0.00    -0.321 C  
HETATM    7  O   UNL     1     -10.384   6.605  69.578  1.00  0.00    -0.185 OA 
HETATM    8  O   UNL     1      -8.190   6.238  69.093  1.00  0.00    -0.111 OA 
BRANCH   4   9
HETATM    9  C   UNL     1     -10.164   8.324  72.196  1.00  0.00    -0.355 C  
BRANCH   9  10
HETATM   10  C   UNL     1     -11.440   9.046  71.899  1.00  0.00    -0.370 A  
HETATM   11  C   UNL     1     -12.654   9.032  72.562  1.00  0.00    -0.272 A  
HETATM   12  N   UNL     1     -13.575   9.826  71.934  1.00  0.00    -0.364 NA 
HETATM   13  C   UNL     1     -12.938  10.348  70.911  1.00  0.00    -0.387 A  
HETATM   14  N   UNL     1     -11.644   9.919  70.856  1.00  0.00    -0.343 NA 
HETATM   15  C   UNL     1     -10.682  10.337  69.860  1.00  0.00    -0.294 C  
ENDBRANCH   9  10
ENDBRANCH   4   9
ENDBRANCH   2   3
TORSDOF 3
ENDMDL
MODEL      207
REMARK 921   NORMALIZED FREE ENERGY PREDICTED BY IDOCK:   -2.38 KCAL/MOL
REMARK 922        TOTAL FREE ENERGY PREDICTED BY IDOCK:   -3.12 KCAL/MOL
REMARK 923 INTER-LIGAND FREE ENERGY PREDICTED BY IDOCK:   -2.78 KCAL/MOL
REMARK 924 INTRA-LIGAND FREE ENERGY PREDICTED BY IDOCK:   -0.34 KCAL/MOL
REMARK 927      BINDING AFFINITY PREDICTED BY RF-SCORE:    0.00 PKD
ROOT
HETATM    1  C   UNL     1      -7.873  12.018  67.004  1.00  0.00    -0.138 C  
HETATM    2  C   UNL     1      -8.640  12.586  68.192  1.00  0.00    -0.189 C  
ENDROOT
BRANCH   2   3
HETATM    3  C   UNL     1     -10.158  12.424  68.084  1.00  0.00    -0.224 C  
HETATM    4  C   UNL     1     -10.709  11.055  68.515  1.00  0.00    -0.236 C  
HETATM    5  C   UNL     1     -10.954  13.364  68.963  1.00  0.00    -0.224 C  
HETATM    6  C   UNL     1     -12.140  11.422  68.874  1.00  0.00    -0.219 C  
HETATM    7  O   UNL     1     -12.063  12.728  69.443  1.00  0.00    -0.273 OA 
HETATM    8  O   UNL     1     -10.699  14.533  69.196  1.00  0.00    -0.248 OA 
BRANCH   4   9
HETATM    9  C   UNL     1      -9.974  10.399  69.704  1.00  0.00    -0.209 C  
BRANCH   9  10
HETATM   10  C   UNL     1      -9.543   8.997  69.406  1.00  0.00    -0.160 A  
HETATM   11  C   UNL     1     -10.201   7.980  68.738  1.00  0.00    -0.206 A  
HETATM   12  N   UNL     1      -9.451   6.836  68.709  1.00  0.00    -0.131 NA 
HETATM   13  C   UNL     1      -8.333   7.143  69.325  1.00  0.00    -0.133 A  
HETATM   14  N   UNL     1      -8.334   8.439  69.750  1.00  0.00    -0.122 NA 
HETATM   15  C   UNL     1      -7.235   9.079  70.437  1.00  0.00    -0.069 C  
ENDBRANCH   9  10
ENDBRANCH   4   9
ENDBRANCH   2   3
TORSDOF 3
ENDMDL
MODEL      208
REMARK 921   NORMALIZED FREE ENERGY PREDICTED BY IDOCK:   -2.38 KCAL/MOL
REMARK 922        TOTAL FREE ENERGY PREDICTED BY IDOCK:   -3.12 KCAL/MOL
REMARK 923 INTER-LIGAND FREE ENERGY PREDICTED BY IDOCK:   -2.77 KCAL/MOL
REMARK 924 INTRA-LIGAND FREE ENERGY PREDICTED BY IDOCK:   -0.35 KCAL/MOL
REMARK 927      BINDING AFFINITY PREDICTED BY RF-SCORE:    0.00 PKD
ROOT
HETATM    1  C   UNL     1      -9.762   4.060  71.939  1.00  0.00    -0.236 C  
HETATM    2  C   UNL     1     -10.269   5.219  71.088  1.00  0.00    -0.294 C  
ENDROOT
BRANCH   2   3
HETATM    3  C   UNL     1     -10.476   6.518  71.872  1.00  0.00    -0.233 C  
HETATM    4  C   UNL     1      -9.780   7.759  71.290  1.00  0.00    -0.179 C  
HETATM    5  C   UNL     1     -11.914   6.982  71.948  1.00  0.00    -0.320 C  
HETATM    6  C   UNL     1     -10.642   8.869  71.869  1.00  0.00    -0.349 C  
HETATM    7  O   UNL     1     -11.969   8.345  71.888  1.00  0.00    -0.295 OA 
HETATM    8  O   UNL     1     -12.900   6.278  72.086  1.00  0.00    -0.171 OA 
BRANCH   4   9
HETATM    9  C   UNL     1      -9.733   7.819  69.747  1.00  0.00    -0.176 C  
BRANCH   9  10
HETATM   10  C   UNL     1      -8.511   8.518  69.240  1.00  0.00    -0.128 A  
HETATM   11  C   UNL     1      -8.328   9.830  68.843  1.00  0.00    -0.120 A  
HETATM   12  N   UNL     1      -7.045  10.049  68.421  1.00  0.00    -0.071 NA 
HETATM   13  C   UNL     1      -6.431   8.900  68.578  1.00  0.00    -0.055 A  
HETATM   14  N   UNL     1      -7.269   7.949  69.083  1.00  0.00    -0.079 NA 
HETATM   15  C   UNL     1      -6.880   6.591  69.391  1.00  0.00    -0.065 C  
ENDBRANCH   9  10
ENDBRANCH   4   9
ENDBRANCH   2   3
TORSDOF 3
ENDMDL
MODEL      209
REMARK 921   NORMALIZED FREE ENERGY PREDICTED BY IDOCK:   -2.38 KCAL/MOL
REMARK 922        TOTAL FREE ENERGY PREDICTED BY IDOCK:   -3.12 KCAL/MOL
REMARK 923 INTER-LIGAND FREE ENERGY PREDICTED BY IDOCK:   -3.09 KCAL/MOL
REMARK 924 INTRA-LIGAND FREE ENERGY PREDICTED BY IDOCK:   -0.03 KCAL/MOL
REMARK 927      BINDING AFFINITY PREDICTED BY RF-SCORE:    0.00 PKD
ROOT
HETATM    1  C   UNL     1     -12.657  13.959  66.472  1.00  0.00    -0.245 C  
HETATM    2  C   UNL     1     -11.561  12.930  66.719  1.00  0.00    -0.416 C  
ENDROOT
BRANCH   2   3
HETATM    3  C   UNL     1     -10.332  13.495  67.436  1.00  0.00    -0.237 C  
HETATM    4  C   UNL     1      -9.511  12.476  68.243  1.00  0.00    -0.201 C  
HETATM    5  C   UNL     1      -9.279  14.074  66.516  1.00  0.00    -0.218 C  
HETATM    6  C   UNL     1      -8.153  13.159  68.270  1.00  0.00    -0.152 C  
HETATM    7  O   UNL     1      -8.033  13.811  67.007  1.00  0.00    -0.093 OA 
HETATM    8  O   UNL     1      -9.477  14.723  65.502  1.00  0.00    -0.216 OA 
BRANCH   4   9
HETATM    9  C   UNL     1      -9.426  11.065  67.621  1.00  0.00    -0.173 C  
BRANCH   9  10
HETATM   10  C   UNL     1      -9.345   9.989  68.658  1.00  0.00    -0.156 A  
HETATM   11  C   UNL     1      -8.400   8.997  68.849  1.00  0.00    -0.125 A  
HETATM   12  N   UNL     1      -8.724   8.198  69.912  1.00  0.00    -0.137 NA 
HETATM   13  C   UNL     1      -9.838   8.700  70.392  1.00  0.00    -0.183 A  
HETATM   14  N   UNL     1     -10.245   9.789  69.679  1.00  0.00    -0.217 NA 
HETATM   15  C   UNL     1     -11.421  10.574  69.979  1.00  0.00    -0.316 C  
ENDBRANCH   9  10
ENDBRANCH   4   9
ENDBRANCH   2   3
TORSDOF 3
ENDMDL
MODEL      210
REMARK 921   NORMALIZED FREE ENERGY PREDICTED BY IDOCK:   -2.34 KCAL/MOL
REMARK 922        TOTAL FREE ENERGY PREDICTED BY IDOCK:   -3.07 KCAL/MOL
REMARK 923 INTER-LIGAND FREE ENERGY PREDICTED BY IDOCK:   -2.86 KCAL/MOL
REMARK 924 INTRA-LIGAND FREE ENERGY PREDICTED BY IDOCK:   -0.22 KCAL/MOL
REMARK 927      BINDING AFFINITY PREDICTED BY RF-SCORE:    0.00 PKD
ROOT
HETATM    1  C   UNL     1     -10.757  11.435  68.400  1.00  0.00    -0.237 C  
HETATM    2  C   UNL     1     -10.818  10.023  67.831  1.00  0.00    -0.323 C  
ENDROOT
BRANCH   2   3
HETATM    3  C   UNL     1      -9.500   9.545  67.216  1.00  0.00    -0.170 C  
HETATM    4  C   UNL     1      -9.195   8.048  67.387  1.00  0.00    -0.155 C  
HETATM    5  C   UNL     1      -9.413   9.706  65.714  1.00  0.00    -0.246 C  
HETATM    6  C   UNL     1      -8.252   7.813  66.218  1.00  0.00    -0.122 C  
HETATM    7  O   UNL     1      -8.730   8.656  65.171  1.00  0.00    -0.184 OA 
HETATM    8  O   UNL     1      -9.837  10.641  65.057  1.00  0.00    -0.246 OA 
BRANCH   4   9
HETATM    9  C   UNL     1     -10.427   7.118  67.320  1.00  0.00    -0.372 C  
BRANCH   9  10
HETATM   10  C   UNL     1     -10.068   5.725  66.910  1.00  0.00    -0.192 A  
HETATM   11  C   UNL     1     -10.161   5.100  65.679  1.00  0.00     0.012 A  
HETATM   12  N   UNL     1      -9.744   3.798  65.748  1.00  0.00    -0.166 NA 
HETATM   13  C   UNL     1      -9.371   3.623  66.995  1.00  0.00    -0.198 A  
HETATM   14  N   UNL     1      -9.534   4.759  67.731  1.00  0.00    -0.139 NA 
HETATM   15  C   UNL     1      -9.189   4.888  69.130  1.00  0.00    -0.118 C  
ENDBRANCH   9  10
ENDBRANCH   4   9
ENDBRANCH   2   3
TORSDOF 3
ENDMDL
MODEL      211
REMARK 921   NORMALIZED FREE ENERGY PREDICTED BY IDOCK:   -2.32 KCAL/MOL
REMARK 922        TOTAL FREE ENERGY PREDICTED BY IDOCK:   -3.05 KCAL/MOL
REMARK 923 INTER-LIGAND FREE ENERGY PREDICTED BY IDOCK:   -3.47 KCAL/MOL
REMARK 924 INTRA-LIGAND FREE ENERGY PREDICTED BY IDOCK:    0.42 KCAL/MOL
REMARK 927      BINDING AFFINITY PREDICTED BY RF-SCORE:    0.00 PKD
ROOT
HETATM    1  C   UNL     1     -10.434  20.219  69.997  1.00  0.00     0.666 C  
HETATM    2  C   UNL     1     -10.185  18.976  69.152  1.00  0.00    -0.118 C  
ENDROOT
BRANCH   2   3
HETATM    3  C   UNL     1     -10.598  19.131  67.686  1.00  0.00    -0.546 C  
HETATM    4  C   UNL     1      -9.882  20.251  66.913  1.00  0.00    -0.597 C  
HETATM    5  C   UNL     1     -10.305  17.926  66.820  1.00  0.00    -0.355 C  
HETATM    6  C   UNL     1     -10.025  19.749  65.484  1.00  0.00     0.072 C  
HETATM    7  O   UNL     1      -9.925  18.329  65.572  1.00  0.00    -0.414 OA 
HETATM    8  O   UNL     1     -10.422  16.755  67.139  1.00  0.00    -0.317 OA 
BRANCH   4   9
HETATM    9  C   UNL     1      -8.401  20.466  67.295  1.00  0.00    -0.398 C  
BRANCH   9  10
HETATM   10  C   UNL     1      -7.461  19.893  66.281  1.00  0.00    -0.300 A  
HETATM   11  C   UNL     1      -7.029  20.404  65.071  1.00  0.00    -0.140 A  
HETATM   12  N   UNL     1      -6.180  19.536  64.438  1.00  0.00    -0.392 NA 
HETATM   13  C   UNL     1      -6.065  18.513  65.253  1.00  0.00    -0.249 A  
HETATM   14  N   UNL     1      -6.806  18.688  66.385  1.00  0.00    -0.202 NA 
HETATM   15  C   UNL     1      -6.865  17.748  67.482  1.00  0.00    -0.176 C  
ENDBRANCH   9  10
ENDBRANCH   4   9
ENDBRANCH   2   3
TORSDOF 3
ENDMDL
MODEL      212
REMARK 921   NORMALIZED FREE ENERGY PREDICTED BY IDOCK:   -2.32 KCAL/MOL
REMARK 922        TOTAL FREE ENERGY PREDICTED BY IDOCK:   -3.05 KCAL/MOL
REMARK 923 INTER-LIGAND FREE ENERGY PREDICTED BY IDOCK:   -2.91 KCAL/MOL
REMARK 924 INTRA-LIGAND FREE ENERGY PREDICTED BY IDOCK:   -0.14 KCAL/MOL
REMARK 927      BINDING AFFINITY PREDICTED BY RF-SCORE:    0.00 PKD
ROOT
HETATM    1  C   UNL     1      -8.697  14.075  67.354  1.00  0.00    -0.212 C  
HETATM    2  C   UNL     1      -9.832  13.160  66.907  1.00  0.00    -0.249 C  
ENDROOT
BRANCH   2   3
HETATM    3  C   UNL     1      -9.443  12.194  65.785  1.00  0.00    -0.156 C  
HETATM    4  C   UNL     1      -8.923  10.823  66.245  1.00  0.00    -0.184 C  
HETATM    5  C   UNL     1     -10.584  11.798  64.874  1.00  0.00    -0.294 C  
HETATM    6  C   UNL     1      -9.227   9.975  65.020  1.00  0.00    -0.225 C  
HETATM    7  O   UNL     1     -10.450  10.493  64.498  1.00  0.00    -0.310 OA 
HETATM    8  O   UNL     1     -11.482  12.521  64.477  1.00  0.00    -0.311 OA 
BRANCH   4   9
HETATM    9  C   UNL     1      -9.601  10.257  67.512  1.00  0.00    -0.180 C  
BRANCH   9  10
HETATM   10  C   UNL     1      -9.357   8.790  67.683  1.00  0.00    -0.137 A  
HETATM   11  C   UNL     1     -10.245   7.730  67.712  1.00  0.00    -0.212 A  
HETATM   12  N   UNL     1      -9.598   6.542  67.917  1.00  0.00    -0.119 NA 
HETATM   13  C   UNL     1      -8.324   6.853  67.988  1.00  0.00    -0.121 A  
HETATM   14  N   UNL     1      -8.127   8.195  67.838  1.00  0.00    -0.126 NA 
HETATM   15  C   UNL     1      -6.833   8.840  67.844  1.00  0.00    -0.070 C  
ENDBRANCH   9  10
ENDBRANCH   4   9
ENDBRANCH   2   3
TORSDOF 3
ENDMDL
MODEL      213
REMARK 921   NORMALIZED FREE ENERGY PREDICTED BY IDOCK:   -2.30 KCAL/MOL
REMARK 922        TOTAL FREE ENERGY PREDICTED BY IDOCK:   -3.02 KCAL/MOL
REMARK 923 INTER-LIGAND FREE ENERGY PREDICTED BY IDOCK:   -2.79 KCAL/MOL
REMARK 924 INTRA-LIGAND FREE ENERGY PREDICTED BY IDOCK:   -0.23 KCAL/MOL
REMARK 927      BINDING AFFINITY PREDICTED BY RF-SCORE:    0.00 PKD
ROOT
HETATM    1  C   UNL     1     -10.228  14.269  67.623  1.00  0.00    -0.237 C  
HETATM    2  C   UNL     1      -9.747  12.883  68.036  1.00  0.00    -0.224 C  
ENDROOT
BRANCH   2   3
HETATM    3  C   UNL     1     -10.232  11.760  67.115  1.00  0.00    -0.236 C  
HETATM    4  C   UNL     1      -9.140  10.806  66.604  1.00  0.00    -0.174 C  
HETATM    5  C   UNL     1     -11.203  10.795  67.760  1.00  0.00    -0.316 C  
HETATM    6  C   UNL     1      -9.964   9.565  66.298  1.00  0.00    -0.274 C  
HETATM    7  O   UNL     1     -10.978   9.529  67.301  1.00  0.00    -0.203 OA 
HETATM    8  O   UNL     1     -12.095  11.075  68.543  1.00  0.00    -0.573 OA 
BRANCH   4   9
HETATM    9  C   UNL     1      -8.010  10.505  67.613  1.00  0.00    -0.106 C  
BRANCH   9  10
HETATM   10  C   UNL     1      -7.213   9.298  67.232  1.00  0.00    -0.087 A  
HETATM   11  C   UNL     1      -7.166   8.038  67.802  1.00  0.00    -0.091 A  
HETATM   12  N   UNL     1      -6.275   7.229  67.151  1.00  0.00    -0.044 NA 
HETATM   13  C   UNL     1      -5.794   7.963  66.174  1.00  0.00    -0.037 A  
HETATM   14  N   UNL     1      -6.340   9.214  66.173  1.00  0.00    -0.064 NA 
HETATM   15  C   UNL     1      -6.031  10.243  65.206  1.00  0.00    -0.127 C  
ENDBRANCH   9  10
ENDBRANCH   4   9
ENDBRANCH   2   3
TORSDOF 3
ENDMDL
MODEL      214
REMARK 921   NORMALIZED FREE ENERGY PREDICTED BY IDOCK:   -2.27 KCAL/MOL
REMARK 922        TOTAL FREE ENERGY PREDICTED BY IDOCK:   -2.99 KCAL/MOL
REMARK 923 INTER-LIGAND FREE ENERGY PREDICTED BY IDOCK:   -3.49 KCAL/MOL
REMARK 924 INTRA-LIGAND FREE ENERGY PREDICTED BY IDOCK:    0.49 KCAL/MOL
REMARK 927      BINDING AFFINITY PREDICTED BY RF-SCORE:    0.00 PKD
ROOT
HETATM    1  C   UNL     1     -11.922  14.144  69.548  1.00  0.00    -0.389 C  
HETATM    2  C   UNL     1     -11.771  15.551  68.983  1.00  0.00    -0.392 C  
ENDROOT
BRANCH   2   3
HETATM    3  C   UNL     1     -11.052  15.601  67.631  1.00  0.00    -0.305 C  
HETATM    4  C   UNL     1      -9.518  15.658  67.701  1.00  0.00    -0.211 C  
HETATM    5  C   UNL     1     -11.273  14.385  66.758  1.00  0.00    -0.337 C  
HETATM    6  C   UNL     1      -9.148  15.088  66.341  1.00  0.00    -0.277 C  
HETATM    7  O   UNL     1     -10.131  14.091  66.070  1.00  0.00    -0.295 OA 
HETATM    8  O   UNL     1     -12.313  13.762  66.628  1.00  0.00    -0.418 OA 
BRANCH   4   9
HETATM    9  C   UNL     1      -8.884  14.845  68.851  1.00  0.00    -0.184 C  
BRANCH   9  10
HETATM   10  C   UNL     1      -7.658  14.104  68.417  1.00  0.00    -0.130 A  
HETATM   11  C   UNL     1      -7.487  12.774  68.078  1.00  0.00    -0.122 A  
HETATM   12  N   UNL     1      -6.183  12.504  67.761  1.00  0.00    -0.103 NA 
HETATM   13  C   UNL     1      -5.557  13.652  67.876  1.00  0.00    -0.109 A  
HETATM   14  N   UNL     1      -6.406  14.650  68.255  1.00  0.00    -0.111 NA 
HETATM   15  C   UNL     1      -6.019  16.031  68.439  1.00  0.00    -0.105 C  
ENDBRANCH   9  10
ENDBRANCH   4   9
ENDBRANCH   2   3
TORSDOF 3
ENDMDL
MODEL      215
REMARK 921   NORMALIZED FREE ENERGY PREDICTED BY IDOCK:   -2.27 KCAL/MOL
REMARK 922        TOTAL FREE ENERGY PREDICTED BY IDOCK:   -2.99 KCAL/MOL
REMARK 923 INTER-LIGAND FREE ENERGY PREDICTED BY IDOCK:   -3.51 KCAL/MOL
REMARK 924 INTRA-LIGAND FREE ENERGY PREDICTED BY IDOCK:    0.53 KCAL/MOL
REMARK 927      BINDING AFFINITY PREDICTED BY RF-SCORE:    0.00 PKD
ROOT
HETATM    1  C   UNL     1      -5.574  14.901  69.979  1.00  0.00    -0.119 C  
HETATM    2  C   UNL     1      -5.567  16.414  69.805  1.00  0.00    -0.167 C  
ENDROOT
BRANCH   2   3
HETATM    3  C   UNL     1      -6.437  16.909  68.647  1.00  0.00    -0.169 C  
HETATM    4  C   UNL     1      -7.677  16.054  68.340  1.00  0.00    -0.147 C  
HETATM    5  C   UNL     1      -7.053  18.274  68.863  1.00  0.00    -0.274 C  
HETATM    6  C   UNL     1      -8.569  17.078  67.656  1.00  0.00    -0.210 C  
HETATM    7  O   UNL     1      -8.306  18.312  68.322  1.00  0.00    -0.285 OA 
HETATM    8  O   UNL     1      -6.524  19.235  69.395  1.00  0.00    -0.290 OA 
BRANCH   4   9
HETATM    9  C   UNL     1      -8.366  15.434  69.576  1.00  0.00    -0.204 C  
BRANCH   9  10
HETATM   10  C   UNL     1      -9.828  15.201  69.356  1.00  0.00    -0.212 A  
HETATM   11  C   UNL     1     -10.927  15.901  69.820  1.00  0.00    -0.328 A  
HETATM   12  N   UNL     1     -12.097  15.329  69.400  1.00  0.00    -0.299 NA 
HETATM   13  C   UNL     1     -11.732  14.304  68.663  1.00  0.00    -0.345 A  
HETATM   14  N   UNL     1     -10.375  14.194  68.595  1.00  0.00    -0.241 NA 
HETATM   15  C   UNL     1      -9.670  13.183  67.840  1.00  0.00    -0.221 C  
ENDBRANCH   9  10
ENDBRANCH   4   9
ENDBRANCH   2   3
TORSDOF 3
ENDMDL
MODEL      216
REMARK 921   NORMALIZED FREE ENERGY PREDICTED BY IDOCK:   -2.21 KCAL/MOL
REMARK 922        TOTAL FREE ENERGY PREDICTED BY IDOCK:   -2.91 KCAL/MOL
REMARK 923 INTER-LIGAND FREE ENERGY PREDICTED BY IDOCK:   -2.57 KCAL/MOL
REMARK 924 INTRA-LIGAND FREE ENERGY PREDICTED BY IDOCK:   -0.35 KCAL/MOL
REMARK 927      BINDING AFFINITY PREDICTED BY RF-SCORE:    0.00 PKD
ROOT
HETATM    1  C   UNL     1     -11.663   8.795  70.908  1.00  0.00    -0.299 C  
HETATM    2  C   UNL     1     -10.441   8.189  70.229  1.00  0.00    -0.219 C  
ENDROOT
BRANCH   2   3
HETATM    3  C   UNL     1     -10.690   6.804  69.626  1.00  0.00    -0.290 C  
HETATM    4  C   UNL     1     -10.036   6.552  68.258  1.00  0.00    -0.145 C  
HETATM    5  C   UNL     1     -10.141   5.656  70.444  1.00  0.00    -0.219 C  
HETATM    6  C   UNL     1      -9.939   5.034  68.263  1.00  0.00    -0.129 C  
HETATM    7  O   UNL     1      -9.668   4.677  69.617  1.00  0.00    -0.177 OA 
HETATM    8  O   UNL     1     -10.144   5.561  71.660  1.00  0.00    -0.182 OA 
BRANCH   4   9
HETATM    9  C   UNL     1      -8.652   7.210  68.063  1.00  0.00    -0.128 C  
BRANCH   9  10
HETATM   10  C   UNL     1      -8.673   8.285  67.023  1.00  0.00    -0.127 A  
HETATM   11  C   UNL     1      -9.139   8.265  65.721  1.00  0.00    -0.114 A  
HETATM   12  N   UNL     1      -8.942   9.469  65.102  1.00  0.00    -0.196 NA 
HETATM   13  C   UNL     1      -8.388  10.236  66.011  1.00  0.00    -0.142 A  
HETATM   14  N   UNL     1      -8.219   9.573  67.191  1.00  0.00    -0.112 NA 
HETATM   15  C   UNL     1      -7.658  10.157  68.389  1.00  0.00    -0.087 C  
ENDBRANCH   9  10
ENDBRANCH   4   9
ENDBRANCH   2   3
TORSDOF 3
ENDMDL
MODEL      217
REMARK 921   NORMALIZED FREE ENERGY PREDICTED BY IDOCK:   -2.20 KCAL/MOL
REMARK 922        TOTAL FREE ENERGY PREDICTED BY IDOCK:   -2.91 KCAL/MOL
REMARK 923 INTER-LIGAND FREE ENERGY PREDICTED BY IDOCK:   -2.67 KCAL/MOL
REMARK 924 INTRA-LIGAND FREE ENERGY PREDICTED BY IDOCK:   -0.24 KCAL/MOL
REMARK 927      BINDING AFFINITY PREDICTED BY RF-SCORE:    0.00 PKD
ROOT
HETATM    1  C   UNL     1     -11.182   6.098  69.578  1.00  0.00    -0.482 C  
HETATM    2  C   UNL     1      -9.939   6.092  68.697  1.00  0.00    -0.176 C  
ENDROOT
BRANCH   2   3
HETATM    3  C   UNL     1     -10.119   6.833  67.369  1.00  0.00    -0.225 C  
HETATM    4  C   UNL     1      -9.914   8.356  67.430  1.00  0.00    -0.274 C  
HETATM    5  C   UNL     1      -9.135   6.436  66.291  1.00  0.00    -0.151 C  
HETATM    6  C   UNL     1      -9.550   8.654  65.984  1.00  0.00    -0.195 C  
HETATM    7  O   UNL     1      -8.791   7.527  65.547  1.00  0.00    -0.099 OA 
HETATM    8  O   UNL     1      -8.723   5.312  66.061  1.00  0.00    -0.128 OA 
BRANCH   4   9
HETATM    9  C   UNL     1      -8.813   8.830  68.404  1.00  0.00    -0.138 C  
BRANCH   9  10
HETATM   10  C   UNL     1      -8.277  10.180  68.045  1.00  0.00    -0.113 A  
HETATM   11  C   UNL     1      -7.099  10.539  67.415  1.00  0.00    -0.090 A  
HETATM   12  N   UNL     1      -6.987  11.899  67.303  1.00  0.00    -0.134 NA 
HETATM   13  C   UNL     1      -8.089  12.378  67.830  1.00  0.00    -0.161 A  
HETATM   14  N   UNL     1      -8.906  11.381  68.278  1.00  0.00    -0.162 NA 
HETATM   15  C   UNL     1     -10.201  11.591  68.884  1.00  0.00    -0.149 C  
ENDBRANCH   9  10
ENDBRANCH   4   9
ENDBRANCH   2   3
TORSDOF 3
ENDMDL
MODEL      218
REMARK 921   NORMALIZED FREE ENERGY PREDICTED BY IDOCK:   -2.20 KCAL/MOL
REMARK 922        TOTAL FREE ENERGY PREDICTED BY IDOCK:   -2.90 KCAL/MOL
REMARK 923 INTER-LIGAND FREE ENERGY PREDICTED BY IDOCK:   -2.52 KCAL/MOL
REMARK 924 INTRA-LIGAND FREE ENERGY PREDICTED BY IDOCK:   -0.38 KCAL/MOL
REMARK 927      BINDING AFFINITY PREDICTED BY RF-SCORE:    0.00 PKD
ROOT
HETATM    1  C   UNL     1      -7.669   6.682  67.565  1.00  0.00    -0.110 C  
HETATM    2  C   UNL     1      -7.707   7.425  68.895  1.00  0.00    -0.115 C  
ENDROOT
BRANCH   2   3
HETATM    3  C   UNL     1      -9.093   7.962  69.264  1.00  0.00    -0.148 C  
HETATM    4  C   UNL     1      -9.869   7.131  70.298  1.00  0.00    -0.177 C  
HETATM    5  C   UNL     1      -9.083   9.328  69.916  1.00  0.00    -0.191 C  
HETATM    6  C   UNL     1     -10.807   8.184  70.866  1.00  0.00    -0.230 C  
HETATM    7  O   UNL     1     -10.054   9.396  70.873  1.00  0.00    -0.277 OA 
HETATM    8  O   UNL     1      -8.362  10.267  69.626  1.00  0.00    -0.169 OA 
BRANCH   4   9
HETATM    9  C   UNL     1      -9.003   6.484  71.402  1.00  0.00    -0.140 C  
BRANCH   9  10
HETATM   10  C   UNL     1      -9.335   5.041  71.614  1.00  0.00    -0.148 A  
HETATM   11  C   UNL     1      -8.878   3.910  70.961  1.00  0.00    -0.084 A  
HETATM   12  N   UNL     1      -9.462   2.777  71.458  1.00  0.00    -0.131 NA 
HETATM   13  C   UNL     1     -10.249   3.191  72.424  1.00  0.00    -0.127 A  
HETATM   14  N   UNL     1     -10.196   4.547  72.566  1.00  0.00    -0.181 NA 
HETATM   15  C   UNL     1     -10.930   5.297  73.560  1.00  0.00    -0.296 C  
ENDBRANCH   9  10
ENDBRANCH   4   9
ENDBRANCH   2   3
TORSDOF 3
ENDMDL
MODEL      219
REMARK 921   NORMALIZED FREE ENERGY PREDICTED BY IDOCK:   -2.17 KCAL/MOL
REMARK 922        TOTAL FREE ENERGY PREDICTED BY IDOCK:   -2.88 KCAL/MOL
REMARK 923 INTER-LIGAND FREE ENERGY PREDICTED BY IDOCK:   -2.63 KCAL/MOL
REMARK 924 INTRA-LIGAND FREE ENERGY PREDICTED BY IDOCK:   -0.24 KCAL/MOL
REMARK 927      BINDING AFFINITY PREDICTED BY RF-SCORE:    0.00 PKD
ROOT
HETATM    1  C   UNL     1     -10.844   9.317  71.567  1.00  0.00    -0.442 C  
HETATM    2  C   UNL     1      -9.934   8.272  70.934  1.00  0.00    -0.223 C  
ENDROOT
BRANCH   2   3
HETATM    3  C   UNL     1     -10.334   6.829  71.250  1.00  0.00    -0.225 C  
HETATM    4  C   UNL     1     -10.230   5.842  70.077  1.00  0.00    -0.304 C  
HETATM    5  C   UNL     1      -9.473   6.154  72.295  1.00  0.00    -0.149 C  
HETATM    6  C   UNL     1     -10.077   4.525  70.822  1.00  0.00    -0.163 C  
HETATM    7  O   UNL     1      -9.304   4.836  71.981  1.00  0.00    -0.133 OA 
HETATM    8  O   UNL     1      -9.016   6.665  73.303  1.00  0.00    -0.124 OA 
BRANCH   4   9
HETATM    9  C   UNL     1      -9.048   6.092  69.114  1.00  0.00    -0.124 C  
BRANCH   9  10
HETATM   10  C   UNL     1      -8.864   4.976  68.134  1.00  0.00    -0.102 A  
HETATM   11  C   UNL     1      -7.900   3.985  68.074  1.00  0.00    -0.077 A  
HETATM   12  N   UNL     1      -8.089   3.172  66.989  1.00  0.00    -0.079 NA 
HETATM   13  C   UNL     1      -9.167   3.632  66.399  1.00  0.00    -0.167 A  
HETATM   14  N   UNL     1      -9.680   4.709  67.060  1.00  0.00    -0.180 NA 
HETATM   15  C   UNL     1     -10.877   5.419  66.669  1.00  0.00    -0.141 C  
ENDBRANCH   9  10
ENDBRANCH   4   9
ENDBRANCH   2   3
TORSDOF 3
ENDMDL
MODEL      220
REMARK 921   NORMALIZED FREE ENERGY PREDICTED BY IDOCK:   -2.17 KCAL/MOL
REMARK 922        TOTAL FREE ENERGY PREDICTED BY IDOCK:   -2.87 KCAL/MOL
REMARK 923 INTER-LIGAND FREE ENERGY PREDICTED BY IDOCK:   -3.01 KCAL/MOL
REMARK 924 INTRA-LIGAND FREE ENERGY PREDICTED BY IDOCK:    0.14 KCAL/MOL
REMARK 927      BINDING AFFINITY PREDICTED BY RF-SCORE:    0.00 PKD
ROOT
HETATM    1  C   UNL     1      -8.803   6.984  73.445  1.00  0.00    -0.164 C  
HETATM    2  C   UNL     1      -8.808   7.108  71.926  1.00  0.00    -0.131 C  
ENDROOT
BRANCH   2   3
HETATM    3  C   UNL     1     -10.121   6.666  71.274  1.00  0.00    -0.207 C  
HETATM    4  C   UNL     1     -10.491   7.397  69.973  1.00  0.00    -0.233 C  
HETATM    5  C   UNL     1     -10.145   5.220  70.828  1.00  0.00    -0.224 C  
HETATM    6  C   UNL     1     -11.399   6.370  69.315  1.00  0.00    -0.338 C  
HETATM    7  O   UNL     1     -10.848   5.101  69.664  1.00  0.00    -0.122 OA 
HETATM    8  O   UNL     1      -9.659   4.269  71.417  1.00  0.00    -0.147 OA 
BRANCH   4   9
HETATM    9  C   UNL     1      -9.295   7.764  69.066  1.00  0.00    -0.150 C  
BRANCH   9  10
HETATM   10  C   UNL     1      -9.666   8.755  68.008  1.00  0.00    -0.157 A  
HETATM   11  C   UNL     1      -9.365   8.780  66.658  1.00  0.00    -0.189 A  
HETATM   12  N   UNL     1      -9.885   9.891  66.052  1.00  0.00    -0.246 NA 
HETATM   13  C   UNL     1     -10.522  10.535  67.002  1.00  0.00    -0.249 A  
HETATM   14  N   UNL     1     -10.432   9.882  68.196  1.00  0.00    -0.202 NA 
HETATM   15  C   UNL     1     -11.050  10.328  69.425  1.00  0.00    -0.252 C  
ENDBRANCH   9  10
ENDBRANCH   4   9
ENDBRANCH   2   3
TORSDOF 3
ENDMDL
MODEL      221
REMARK 921   NORMALIZED FREE ENERGY PREDICTED BY IDOCK:   -2.15 KCAL/MOL
REMARK 922        TOTAL FREE ENERGY PREDICTED BY IDOCK:   -2.85 KCAL/MOL
REMARK 923 INTER-LIGAND FREE ENERGY PREDICTED BY IDOCK:   -3.79 KCAL/MOL
REMARK 924 INTRA-LIGAND FREE ENERGY PREDICTED BY IDOCK:    0.94 KCAL/MOL
REMARK 927      BINDING AFFINITY PREDICTED BY RF-SCORE:    0.00 PKD
ROOT
HETATM    1  C   UNL     1     -10.716  11.483  65.329  1.00  0.00    -0.337 C  
HETATM    2  C   UNL     1     -10.226  11.488  66.772  1.00  0.00    -0.254 C  
ENDROOT
BRANCH   2   3
HETATM    3  C   UNL     1     -11.161  12.217  67.740  1.00  0.00    -0.302 C  
HETATM    4  C   UNL     1     -10.484  13.241  68.666  1.00  0.00    -0.242 C  
HETATM    5  C   UNL     1     -12.222  13.063  67.072  1.00  0.00    -0.153 C  
HETATM    6  C   UNL     1     -11.657  14.153  68.990  1.00  0.00    -0.304 C  
HETATM    7  O   UNL     1     -12.440  14.199  67.798  1.00  0.00    -0.130 OA 
HETATM    8  O   UNL     1     -12.843  12.786  66.060  1.00  0.00    -0.210 OA 
BRANCH   4   9
HETATM    9  C   UNL     1      -9.313  14.024  68.031  1.00  0.00    -0.205 C  
BRANCH   9  10
HETATM   10  C   UNL     1      -9.631  15.474  67.843  1.00  0.00    -0.206 A  
HETATM   11  C   UNL     1      -9.707  16.502  68.765  1.00  0.00    -0.251 A  
HETATM   12  N   UNL     1     -10.056  17.683  68.168  1.00  0.00    -0.326 NA 
HETATM   13  C   UNL     1     -10.170  17.401  66.891  1.00  0.00    -0.322 A  
HETATM   14  N   UNL     1      -9.909  16.085  66.643  1.00  0.00    -0.248 NA 
HETATM   15  C   UNL     1      -9.928  15.477  65.331  1.00  0.00    -0.304 C  
ENDBRANCH   9  10
ENDBRANCH   4   9
ENDBRANCH   2   3
TORSDOF 3
ENDMDL
MODEL      222
REMARK 921   NORMALIZED FREE ENERGY PREDICTED BY IDOCK:   -2.08 KCAL/MOL
REMARK 922        TOTAL FREE ENERGY PREDICTED BY IDOCK:   -2.76 KCAL/MOL
REMARK 923 INTER-LIGAND FREE ENERGY PREDICTED BY IDOCK:   -2.38 KCAL/MOL
REMARK 924 INTRA-LIGAND FREE ENERGY PREDICTED BY IDOCK:   -0.38 KCAL/MOL
REMARK 927      BINDING AFFINITY PREDICTED BY RF-SCORE:    0.00 PKD
ROOT
HETATM    1  C   UNL     1      -9.777   6.898  68.326  1.00  0.00    -0.132 C  
HETATM    2  C   UNL     1      -9.835   8.010  69.365  1.00  0.00    -0.181 C  
ENDROOT
BRANCH   2   3
HETATM    3  C   UNL     1     -10.697   7.674  70.585  1.00  0.00    -0.237 C  
HETATM    4  C   UNL     1      -9.940   7.091  71.789  1.00  0.00    -0.187 C  
HETATM    5  C   UNL     1     -11.394   8.864  71.208  1.00  0.00    -0.300 C  
HETATM    6  C   UNL     1     -10.883   7.457  72.924  1.00  0.00    -0.354 C  
HETATM    7  O   UNL     1     -11.432   8.724  72.566  1.00  0.00    -0.306 OA 
HETATM    8  O   UNL     1     -11.898   9.803  70.617  1.00  0.00    -0.273 OA 
BRANCH   4   9
HETATM    9  C   UNL     1      -8.526   7.670  72.015  1.00  0.00    -0.133 C  
BRANCH   9  10
HETATM   10  C   UNL     1      -7.452   6.647  71.814  1.00  0.00    -0.091 A  
HETATM   11  C   UNL     1      -7.317   5.374  72.338  1.00  0.00    -0.094 A  
HETATM   12  N   UNL     1      -6.160   4.779  71.910  1.00  0.00    -0.020 NA 
HETATM   13  C   UNL     1      -5.598   5.656  71.111  1.00  0.00    -0.013 A  
HETATM   14  N   UNL     1      -6.346   6.792  71.009  1.00  0.00    -0.040 NA 
HETATM   15  C   UNL     1      -6.004   7.929  70.184  1.00  0.00    -0.022 C  
ENDBRANCH   9  10
ENDBRANCH   4   9
ENDBRANCH   2   3
TORSDOF 3
ENDMDL
MODEL      223
REMARK 921   NORMALIZED FREE ENERGY PREDICTED BY IDOCK:   -2.06 KCAL/MOL
REMARK 922        TOTAL FREE ENERGY PREDICTED BY IDOCK:   -2.74 KCAL/MOL
REMARK 923 INTER-LIGAND FREE ENERGY PREDICTED BY IDOCK:   -3.24 KCAL/MOL
REMARK 924 INTRA-LIGAND FREE ENERGY PREDICTED BY IDOCK:    0.50 KCAL/MOL
REMARK 927      BINDING AFFINITY PREDICTED BY RF-SCORE:    0.00 PKD
ROOT
HETATM    1  C   UNL     1      -6.368   6.441  70.127  1.00  0.00    -0.039 C  
HETATM    2  C   UNL     1      -7.727   6.024  70.675  1.00  0.00    -0.101 C  
ENDROOT
BRANCH   2   3
HETATM    3  C   UNL     1      -8.844   6.027  69.628  1.00  0.00    -0.133 C  
HETATM    4  C   UNL     1      -9.964   7.054  69.860  1.00  0.00    -0.183 C  
HETATM    5  C   UNL     1      -8.391   6.380  68.228  1.00  0.00    -0.116 C  
HETATM    6  C   UNL     1     -10.495   7.223  68.446  1.00  0.00    -0.195 C  
HETATM    7  O   UNL     1      -9.352   7.117  67.598  1.00  0.00    -0.127 OA 
HETATM    8  O   UNL     1      -7.351   6.038  67.692  1.00  0.00    -0.075 OA 
BRANCH   4   9
HETATM    9  C   UNL     1      -9.504   8.401  70.460  1.00  0.00    -0.186 C  
BRANCH   9  10
HETATM   10  C   UNL     1     -10.636   9.363  70.636  1.00  0.00    -0.290 A  
HETATM   11  C   UNL     1     -10.929  10.536  69.963  1.00  0.00    -0.286 A  
HETATM   12  N   UNL     1     -12.057  11.129  70.463  1.00  0.00    -0.356 NA 
HETATM   13  C   UNL     1     -12.475  10.326  71.413  1.00  0.00    -0.424 A  
HETATM   14  N   UNL     1     -11.660   9.240  71.546  1.00  0.00    -0.356 NA 
HETATM   15  C   UNL     1     -11.871   8.165  72.489  1.00  0.00    -0.376 C  
ENDBRANCH   9  10
ENDBRANCH   4   9
ENDBRANCH   2   3
TORSDOF 3
ENDMDL
MODEL      224
REMARK 921   NORMALIZED FREE ENERGY PREDICTED BY IDOCK:   -2.01 KCAL/MOL
REMARK 922        TOTAL FREE ENERGY PREDICTED BY IDOCK:   -2.69 KCAL/MOL
REMARK 923 INTER-LIGAND FREE ENERGY PREDICTED BY IDOCK:   -2.53 KCAL/MOL
REMARK 924 INTRA-LIGAND FREE ENERGY PREDICTED BY IDOCK:   -0.16 KCAL/MOL
REMARK 927      BINDING AFFINITY PREDICTED BY RF-SCORE:    0.00 PKD
ROOT
HETATM    1  C   UNL     1      -8.311   8.562  68.327  1.00  0.00    -0.124 C  
HETATM    2  C   UNL     1      -8.422   7.553  69.463  1.00  0.00    -0.132 C  
ENDROOT
BRANCH   2   3
HETATM    3  C   UNL     1      -8.962   8.146  70.767  1.00  0.00    -0.156 C  
HETATM    4  C   UNL     1      -9.614   7.140  71.731  1.00  0.00    -0.161 C  
HETATM    5  C   UNL     1      -7.911   8.779  71.652  1.00  0.00    -0.076 C  
HETATM    6  C   UNL     1      -9.456   7.869  73.055  1.00  0.00    -0.271 C  
HETATM    7  O   UNL     1      -8.205   8.549  72.965  1.00  0.00    -0.357 OA 
HETATM    8  O   UNL     1      -6.955   9.441  71.286  1.00  0.00    -0.261 OA 
BRANCH   4   9
HETATM    9  C   UNL     1      -8.951   5.745  71.766  1.00  0.00    -0.143 C  
BRANCH   9  10
HETATM   10  C   UNL     1      -9.789   4.734  72.484  1.00  0.00    -0.156 A  
HETATM   11  C   UNL     1     -11.105   4.797  72.907  1.00  0.00    -0.224 A  
HETATM   12  N   UNL     1     -11.476   3.650  73.553  1.00  0.00    -0.152 NA 
HETATM   13  C   UNL     1     -10.418   2.874  73.510  1.00  0.00    -0.151 A  
HETATM   14  N   UNL     1      -9.380   3.477  72.863  1.00  0.00    -0.098 NA 
HETATM   15  C   UNL     1      -8.090   2.866  72.632  1.00  0.00    -0.063 C  
ENDBRANCH   9  10
ENDBRANCH   4   9
ENDBRANCH   2   3
TORSDOF 3
ENDMDL
MODEL      225
REMARK 921   NORMALIZED FREE ENERGY PREDICTED BY IDOCK:   -2.01 KCAL/MOL
REMARK 922        TOTAL FREE ENERGY PREDICTED BY IDOCK:   -2.69 KCAL/MOL
REMARK 923 INTER-LIGAND FREE ENERGY PREDICTED BY IDOCK:   -2.32 KCAL/MOL
REMARK 924 INTRA-LIGAND FREE ENERGY PREDICTED BY IDOCK:   -0.36 KCAL/MOL
REMARK 927      BINDING AFFINITY PREDICTED BY RF-SCORE:    0.00 PKD
ROOT
HETATM    1  C   UNL     1      -8.001   8.840  69.614  1.00  0.00    -0.096 C  
HETATM    2  C   UNL     1      -9.329   9.511  69.289  1.00  0.00    -0.171 C  
ENDROOT
BRANCH   2   3
HETATM    3  C   UNL     1      -9.240  10.551  68.168  1.00  0.00    -0.148 C  
HETATM    4  C   UNL     1      -9.149   9.980  66.744  1.00  0.00    -0.159 C  
HETATM    5  C   UNL     1     -10.446  11.459  68.057  1.00  0.00    -0.188 C  
HETATM    6  C   UNL     1      -9.688  11.148  65.932  1.00  0.00    -0.229 C  
HETATM    7  O   UNL     1     -10.702  11.736  66.745  1.00  0.00    -0.231 OA 
HETATM    8  O   UNL     1     -11.089  11.930  68.979  1.00  0.00    -0.229 OA 
BRANCH   4   9
HETATM    9  C   UNL     1      -9.968   8.693  66.501  1.00  0.00    -0.353 C  
BRANCH   9  10
HETATM   10  C   UNL     1      -9.107   7.537  66.098  1.00  0.00    -0.137 A  
HETATM   11  C   UNL     1      -7.764   7.492  65.767  1.00  0.00    -0.098 A  
HETATM   12  N   UNL     1      -7.376   6.223  65.433  1.00  0.00    -0.074 NA 
HETATM   13  C   UNL     1      -8.452   5.485  65.579  1.00  0.00    -0.144 A  
HETATM   14  N   UNL     1      -9.517   6.229  65.993  1.00  0.00    -0.057 NA 
HETATM   15  C   UNL     1     -10.834   5.697  66.267  1.00  0.00    -0.011 C  
ENDBRANCH   9  10
ENDBRANCH   4   9
ENDBRANCH   2   3
TORSDOF 3
ENDMDL
MODEL      226
REMARK 921   NORMALIZED FREE ENERGY PREDICTED BY IDOCK:   -1.98 KCAL/MOL
REMARK 922        TOTAL FREE ENERGY PREDICTED BY IDOCK:   -2.65 KCAL/MOL
REMARK 923 INTER-LIGAND FREE ENERGY PREDICTED BY IDOCK:   -2.23 KCAL/MOL
REMARK 924 INTRA-LIGAND FREE ENERGY PREDICTED BY IDOCK:   -0.42 KCAL/MOL
REMARK 927      BINDING AFFINITY PREDICTED BY RF-SCORE:    0.00 PKD
ROOT
HETATM    1  C   UNL     1     -10.830  12.409  68.471  1.00  0.00    -0.270 C  
HETATM    2  C   UNL     1      -9.757  12.996  67.562  1.00  0.00    -0.206 C  
ENDROOT
BRANCH   2   3
HETATM    3  C   UNL     1      -8.438  13.299  68.277  1.00  0.00    -0.160 C  
HETATM    4  C   UNL     1      -7.572  12.074  68.614  1.00  0.00    -0.112 C  
HETATM    5  C   UNL     1      -7.471  14.145  67.477  1.00  0.00    -0.174 C  
HETATM    6  C   UNL     1      -6.195  12.712  68.704  1.00  0.00    -0.070 C  
HETATM    7  O   UNL     1      -6.189  13.737  67.712  1.00  0.00    -0.150 OA 
HETATM    8  O   UNL     1      -7.752  15.087  66.756  1.00  0.00    -0.065 OA 
BRANCH   4   9
HETATM    9  C   UNL     1      -7.608  10.940  67.566  1.00  0.00    -0.101 C  
BRANCH   9  10
HETATM   10  C   UNL     1      -8.281   9.707  68.083  1.00  0.00    -0.106 A  
HETATM   11  C   UNL     1      -8.071   8.992  69.248  1.00  0.00    -0.105 A  
HETATM   12  N   UNL     1      -8.895   7.902  69.319  1.00  0.00    -0.141 NA 
HETATM   13  C   UNL     1      -9.625   7.951  68.229  1.00  0.00    -0.156 A  
HETATM   14  N   UNL     1      -9.302   9.029  67.459  1.00  0.00    -0.135 NA 
HETATM   15  C   UNL     1      -9.948   9.369  66.210  1.00  0.00    -0.283 C  
ENDBRANCH   9  10
ENDBRANCH   4   9
ENDBRANCH   2   3
TORSDOF 3
ENDMDL
MODEL      227
REMARK 921   NORMALIZED FREE ENERGY PREDICTED BY IDOCK:   -1.97 KCAL/MOL
REMARK 922        TOTAL FREE ENERGY PREDICTED BY IDOCK:   -2.64 KCAL/MOL
REMARK 923 INTER-LIGAND FREE ENERGY PREDICTED BY IDOCK:   -2.34 KCAL/MOL
REMARK 924 INTRA-LIGAND FREE ENERGY PREDICTED BY IDOCK:   -0.30 KCAL/MOL
REMARK 927      BINDING AFFINITY PREDICTED BY RF-SCORE:    0.00 PKD
ROOT
HETATM    1  C   UNL     1      -8.100   6.263  66.168  1.00  0.00    -0.116 C  
HETATM    2  C   UNL     1      -8.384   6.915  67.516  1.00  0.00    -0.123 C  
ENDROOT
BRANCH   2   3
HETATM    3  C   UNL     1      -9.370   6.132  68.387  1.00  0.00    -0.116 C  
HETATM    4  C   UNL     1      -9.261   6.385  69.899  1.00  0.00    -0.154 C  
HETATM    5  C   UNL     1     -10.826   6.450  68.128  1.00  0.00    -0.308 C  
HETATM    6  C   UNL     1     -10.661   6.005  70.355  1.00  0.00    -0.268 C  
HETATM    7  O   UNL     1     -11.527   6.419  69.299  1.00  0.00    -0.381 OA 
HETATM    8  O   UNL     1     -11.343   6.663  67.044  1.00  0.00    -0.348 OA 
BRANCH   4   9
HETATM    9  C   UNL     1      -8.908   7.836  70.295  1.00  0.00    -0.144 C  
BRANCH   9  10
HETATM   10  C   UNL     1      -7.784   7.900  71.282  1.00  0.00    -0.086 A  
HETATM   11  C   UNL     1      -7.630   7.276  72.507  1.00  0.00    -0.084 A  
HETATM   12  N   UNL     1      -6.451   7.632  73.103  1.00  0.00    -0.061 NA 
HETATM   13  C   UNL     1      -5.867   8.443  72.251  1.00  0.00    -0.055 A  
HETATM   14  N   UNL     1      -6.625   8.624  71.132  1.00  0.00    -0.054 NA 
HETATM   15  C   UNL     1      -6.240   9.441  70.003  1.00  0.00    -0.045 C  
ENDBRANCH   9  10
ENDBRANCH   4   9
ENDBRANCH   2   3
TORSDOF 3
ENDMDL
MODEL      228
REMARK 921   NORMALIZED FREE ENERGY PREDICTED BY IDOCK:   -1.90 KCAL/MOL
REMARK 922        TOTAL FREE ENERGY PREDICTED BY IDOCK:   -2.55 KCAL/MOL
REMARK 923 INTER-LIGAND FREE ENERGY PREDICTED BY IDOCK:   -2.37 KCAL/MOL
REMARK 924 INTRA-LIGAND FREE ENERGY PREDICTED BY IDOCK:   -0.18 KCAL/MOL
REMARK 927      BINDING AFFINITY PREDICTED BY RF-SCORE:    0.00 PKD
ROOT
HETATM    1  C   UNL     1      -7.489  10.045  70.135  1.00  0.00    -0.176 C  
HETATM    2  C   UNL     1      -7.873   8.575  70.243  1.00  0.00    -0.090 C  
ENDROOT
BRANCH   2   3
HETATM    3  C   UNL     1      -9.257   8.253  69.674  1.00  0.00    -0.158 C  
HETATM    4  C   UNL     1      -9.280   7.217  68.539  1.00  0.00    -0.134 C  
HETATM    5  C   UNL     1     -10.217   7.638  70.668  1.00  0.00    -0.199 C  
HETATM    6  C   UNL     1     -10.705   6.699  68.652  1.00  0.00    -0.254 C  
HETATM    7  O   UNL     1     -10.999   6.706  70.048  1.00  0.00    -0.260 OA 
HETATM    8  O   UNL     1     -10.336   7.935  71.845  1.00  0.00    -0.199 OA 
BRANCH   4   9
HETATM    9  C   UNL     1      -8.247   6.076  68.673  1.00  0.00    -0.107 C  
BRANCH   9  10
HETATM   10  C   UNL     1      -8.779   4.765  68.184  1.00  0.00    -0.102 A  
HETATM   11  C   UNL     1      -9.289   3.687  68.885  1.00  0.00    -0.167 A  
HETATM   12  N   UNL     1      -9.643   2.668  68.043  1.00  0.00    -0.139 NA 
HETATM   13  C   UNL     1      -9.383   3.114  66.836  1.00  0.00    -0.136 A  
HETATM   14  N   UNL     1      -8.874   4.379  66.868  1.00  0.00    -0.112 NA 
HETATM   15  C   UNL     1      -8.513   5.149  65.698  1.00  0.00    -0.134 C  
ENDBRANCH   9  10
ENDBRANCH   4   9
ENDBRANCH   2   3
TORSDOF 3
ENDMDL
MODEL      229
REMARK 921   NORMALIZED FREE ENERGY PREDICTED BY IDOCK:   -1.86 KCAL/MOL
REMARK 922        TOTAL FREE ENERGY PREDICTED BY IDOCK:   -2.51 KCAL/MOL
REMARK 923 INTER-LIGAND FREE ENERGY PREDICTED BY IDOCK:   -2.59 KCAL/MOL
REMARK 924 INTRA-LIGAND FREE ENERGY PREDICTED BY IDOCK:    0.08 KCAL/MOL
REMARK 927      BINDING AFFINITY PREDICTED BY RF-SCORE:    0.00 PKD
ROOT
HETATM    1  C   UNL     1      -8.702   7.372  74.167  1.00  0.00    -0.267 C  
HETATM    2  C   UNL     1      -8.641   7.241  72.651  1.00  0.00    -0.132 C  
ENDROOT
BRANCH   2   3
HETATM    3  C   UNL     1      -9.973   6.845  72.009  1.00  0.00    -0.179 C  
HETATM    4  C   UNL     1     -10.105   7.160  70.510  1.00  0.00    -0.202 C  
HETATM    5  C   UNL     1     -10.266   5.360  72.036  1.00  0.00    -0.203 C  
HETATM    6  C   UNL     1     -11.162   6.148  70.097  1.00  0.00    -0.382 C  
HETATM    7  O   UNL     1     -10.905   4.989  70.888  1.00  0.00    -0.068 OA 
HETATM    8  O   UNL     1     -10.022   4.587  72.947  1.00  0.00    -0.142 OA 
BRANCH   4   9
HETATM    9  C   UNL     1      -8.806   6.994  69.691  1.00  0.00    -0.141 C  
BRANCH   9  10
HETATM   10  C   UNL     1      -9.011   6.170  68.459  1.00  0.00    -0.115 A  
HETATM   11  C   UNL     1      -8.846   4.813  68.250  1.00  0.00    -0.104 A  
HETATM   12  N   UNL     1      -9.120   4.470  66.954  1.00  0.00    -0.119 NA 
HETATM   13  C   UNL     1      -9.476   5.591  66.370  1.00  0.00    -0.155 A  
HETATM   14  N   UNL     1      -9.440   6.642  67.240  1.00  0.00    -0.130 NA 
HETATM   15  C   UNL     1      -9.802   8.000  66.902  1.00  0.00    -0.248 C  
ENDBRANCH   9  10
ENDBRANCH   4   9
ENDBRANCH   2   3
TORSDOF 3
ENDMDL
MODEL      230
REMARK 921   NORMALIZED FREE ENERGY PREDICTED BY IDOCK:   -1.84 KCAL/MOL
REMARK 922        TOTAL FREE ENERGY PREDICTED BY IDOCK:   -2.48 KCAL/MOL
REMARK 923 INTER-LIGAND FREE ENERGY PREDICTED BY IDOCK:   -2.17 KCAL/MOL
REMARK 924 INTRA-LIGAND FREE ENERGY PREDICTED BY IDOCK:   -0.31 KCAL/MOL
REMARK 927      BINDING AFFINITY PREDICTED BY RF-SCORE:    0.00 PKD
ROOT
HETATM    1  C   UNL     1     -11.637   8.745  71.261  1.00  0.00    -0.353 C  
HETATM    2  C   UNL     1     -10.328   7.966  71.236  1.00  0.00    -0.222 C  
ENDROOT
BRANCH   2   3
HETATM    3  C   UNL     1     -10.414   6.588  71.898  1.00  0.00    -0.233 C  
HETATM    4  C   UNL     1      -9.417   5.541  71.377  1.00  0.00    -0.182 C  
HETATM    5  C   UNL     1     -10.114   6.585  73.381  1.00  0.00    -0.218 C  
HETATM    6  C   UNL     1      -9.335   4.604  72.572  1.00  0.00    -0.131 C  
HETATM    7  O   UNL     1      -9.442   5.445  73.719  1.00  0.00    -0.136 OA 
HETATM    8  O   UNL     1     -10.445   7.432  74.193  1.00  0.00    -0.201 OA 
BRANCH   4   9
HETATM    9  C   UNL     1      -8.027   6.095  70.992  1.00  0.00    -0.116 C  
BRANCH   9  10
HETATM   10  C   UNL     1      -7.401   5.333  69.867  1.00  0.00    -0.064 A  
HETATM   11  C   UNL     1      -6.775   4.099  69.859  1.00  0.00    -0.034 A  
HETATM   12  N   UNL     1      -6.317   3.781  68.609  1.00  0.00    -0.032 NA 
HETATM   13  C   UNL     1      -6.675   4.787  67.846  1.00  0.00    -0.054 A  
HETATM   14  N   UNL     1      -7.344   5.741  68.555  1.00  0.00    -0.082 NA 
HETATM   15  C   UNL     1      -7.888   6.955  67.989  1.00  0.00    -0.114 C  
ENDBRANCH   9  10
ENDBRANCH   4   9
ENDBRANCH   2   3
TORSDOF 3
ENDMDL
MODEL      231
REMARK 921   NORMALIZED FREE ENERGY PREDICTED BY IDOCK:   -1.82 KCAL/MOL
REMARK 922        TOTAL FREE ENERGY PREDICTED BY IDOCK:   -2.47 KCAL/MOL
REMARK 923 INTER-LIGAND FREE ENERGY PREDICTED BY IDOCK:   -2.63 KCAL/MOL
REMARK 924 INTRA-LIGAND FREE ENERGY PREDICTED BY IDOCK:    0.16 KCAL/MOL
REMARK 927      BINDING AFFINITY PREDICTED BY RF-SCORE:    0.00 PKD
ROOT
HETATM    1  C   UNL     1      -8.060   8.768  64.924  1.00  0.00    -0.147 C  
HETATM    2  C   UNL     1      -8.866   8.554  66.199  1.00  0.00    -0.200 C  
ENDROOT
BRANCH   2   3
HETATM    3  C   UNL     1      -8.630   9.625  67.268  1.00  0.00    -0.132 C  
HETATM    4  C   UNL     1      -9.284   9.352  68.632  1.00  0.00    -0.131 C  
HETATM    5  C   UNL     1      -7.180   9.814  67.657  1.00  0.00    -0.089 C  
HETATM    6  C   UNL     1      -8.397  10.182  69.547  1.00  0.00    -0.168 C  
HETATM    7  O   UNL     1      -7.086  10.081  68.993  1.00  0.00    -0.064 OA 
HETATM    8  O   UNL     1      -6.217   9.785  66.911  1.00  0.00    -0.062 OA 
BRANCH   4   9
HETATM    9  C   UNL     1      -9.313   7.868  69.059  1.00  0.00    -0.151 C  
BRANCH   9  10
HETATM   10  C   UNL     1     -10.489   7.546  69.927  1.00  0.00    -0.229 A  
HETATM   11  C   UNL     1     -11.387   8.382  70.566  1.00  0.00    -0.216 A  
HETATM   12  N   UNL     1     -12.306   7.669  71.286  1.00  0.00    -0.318 NA 
HETATM   13  C   UNL     1     -12.003   6.409  71.077  1.00  0.00    -0.201 A  
HETATM   14  N   UNL     1     -10.924   6.283  70.252  1.00  0.00    -0.306 NA 
HETATM   15  C   UNL     1     -10.367   5.022  69.816  1.00  0.00    -0.216 C  
ENDBRANCH   9  10
ENDBRANCH   4   9
ENDBRANCH   2   3
TORSDOF 3
ENDMDL
MODEL      232
REMARK 921   NORMALIZED FREE ENERGY PREDICTED BY IDOCK:   -1.80 KCAL/MOL
REMARK 922        TOTAL FREE ENERGY PREDICTED BY IDOCK:   -2.44 KCAL/MOL
REMARK 923 INTER-LIGAND FREE ENERGY PREDICTED BY IDOCK:   -2.65 KCAL/MOL
REMARK 924 INTRA-LIGAND FREE ENERGY PREDICTED BY IDOCK:    0.21 KCAL/MOL
REMARK 927      BINDING AFFINITY PREDICTED BY RF-SCORE:    0.00 PKD
ROOT
HETATM    1  C   UNL     1      -9.286   3.387  72.739  1.00  0.00    -0.140 C  
HETATM    2  C   UNL     1      -9.480   4.475  71.690  1.00  0.00    -0.210 C  
ENDROOT
BRANCH   2   3
HETATM    3  C   UNL     1      -9.365   5.897  72.244  1.00  0.00    -0.152 C  
HETATM    4  C   UNL     1      -8.396   6.824  71.492  1.00  0.00    -0.115 C  
HETATM    5  C   UNL     1     -10.649   6.695  72.195  1.00  0.00    -0.212 C  
HETATM    6  C   UNL     1      -8.963   8.187  71.853  1.00  0.00    -0.167 C  
HETATM    7  O   UNL     1     -10.377   8.003  71.914  1.00  0.00    -0.200 OA 
HETATM    8  O   UNL     1     -11.774   6.278  72.414  1.00  0.00    -0.295 OA 
BRANCH   4   9
HETATM    9  C   UNL     1      -8.346   6.615  69.962  1.00  0.00    -0.135 C  
BRANCH   9  10
HETATM   10  C   UNL     1      -9.049   7.704  69.215  1.00  0.00    -0.145 A  
HETATM   11  C   UNL     1      -8.645   8.993  68.918  1.00  0.00    -0.131 A  
HETATM   12  N   UNL     1      -9.614   9.673  68.230  1.00  0.00    -0.140 NA 
HETATM   13  C   UNL     1     -10.594   8.814  68.078  1.00  0.00    -0.159 A  
HETATM   14  N   UNL     1     -10.296   7.608  68.641  1.00  0.00    -0.200 NA 
HETATM   15  C   UNL     1     -11.164   6.452  68.616  1.00  0.00    -0.248 C  
ENDBRANCH   9  10
ENDBRANCH   4   9
ENDBRANCH   2   3
TORSDOF 3
ENDMDL
MODEL      233
REMARK 921   NORMALIZED FREE ENERGY PREDICTED BY IDOCK:   -1.77 KCAL/MOL
REMARK 922        TOTAL FREE ENERGY PREDICTED BY IDOCK:   -2.40 KCAL/MOL
REMARK 923 INTER-LIGAND FREE ENERGY PREDICTED BY IDOCK:   -2.04 KCAL/MOL
REMARK 924 INTRA-LIGAND FREE ENERGY PREDICTED BY IDOCK:   -0.36 KCAL/MOL
REMARK 927      BINDING AFFINITY PREDICTED BY RF-SCORE:    0.00 PKD
ROOT
HETATM    1  C   UNL     1      -9.795   4.934  71.011  1.00  0.00    -0.266 C  
HETATM    2  C   UNL     1      -9.181   4.861  69.618  1.00  0.00    -0.172 C  
ENDROOT
BRANCH   2   3
HETATM    3  C   UNL     1     -10.169   5.167  68.489  1.00  0.00    -0.182 C  
HETATM    4  C   UNL     1     -10.115   6.599  67.934  1.00  0.00    -0.177 C  
HETATM    5  C   UNL     1      -9.963   4.345  67.235  1.00  0.00    -0.115 C  
HETATM    6  C   UNL     1     -10.690   6.389  66.542  1.00  0.00    -0.072 C  
HETATM    7  O   UNL     1     -10.223   5.105  66.131  1.00  0.00    -0.211 OA 
HETATM    8  O   UNL     1      -9.656   3.167  67.180  1.00  0.00    -0.163 OA 
BRANCH   4   9
HETATM    9  C   UNL     1      -8.704   7.227  67.879  1.00  0.00    -0.123 C  
BRANCH   9  10
HETATM   10  C   UNL     1      -8.596   8.462  68.716  1.00  0.00    -0.135 A  
HETATM   11  C   UNL     1      -9.466   8.989  69.653  1.00  0.00    -0.171 A  
HETATM   12  N   UNL     1      -8.989  10.161  70.173  1.00  0.00     0.006 NA 
HETATM   13  C   UNL     1      -7.828  10.348  69.589  1.00  0.00    -0.129 A  
HETATM   14  N   UNL     1      -7.540   9.344  68.713  1.00  0.00    -0.078 NA 
HETATM   15  C   UNL     1      -6.324   9.254  67.937  1.00  0.00    -0.058 C  
ENDBRANCH   9  10
ENDBRANCH   4   9
ENDBRANCH   2   3
TORSDOF 3
ENDMDL
MODEL      234
REMARK 921   NORMALIZED FREE ENERGY PREDICTED BY IDOCK:   -1.77 KCAL/MOL
REMARK 922        TOTAL FREE ENERGY PREDICTED BY IDOCK:   -2.40 KCAL/MOL
REMARK 923 INTER-LIGAND FREE ENERGY PREDICTED BY IDOCK:   -2.46 KCAL/MOL
REMARK 924 INTRA-LIGAND FREE ENERGY PREDICTED BY IDOCK:    0.07 KCAL/MOL
REMARK 927      BINDING AFFINITY PREDICTED BY RF-SCORE:    0.00 PKD
ROOT
HETATM    1  C   UNL     1     -11.641  10.639  70.359  1.00  0.00    -0.441 C  
HETATM    2  C   UNL     1     -10.361  10.026  69.805  1.00  0.00    -0.290 C  
ENDROOT
BRANCH   2   3
HETATM    3  C   UNL     1     -10.567   8.667  69.130  1.00  0.00    -0.193 C  
HETATM    4  C   UNL     1      -9.511   8.284  68.080  1.00  0.00    -0.153 C  
HETATM    5  C   UNL     1     -10.504   7.484  70.071  1.00  0.00    -0.228 C  
HETATM    6  C   UNL     1      -9.629   6.769  68.094  1.00  0.00    -0.122 C  
HETATM    7  O   UNL     1      -9.906   6.424  69.451  1.00  0.00    -0.147 OA 
HETATM    8  O   UNL     1     -10.949   7.431  71.205  1.00  0.00    -0.238 OA 
BRANCH   4   9
HETATM    9  C   UNL     1      -8.072   8.747  68.400  1.00  0.00    -0.117 C  
BRANCH   9  10
HETATM   10  C   UNL     1      -7.457   9.516  67.273  1.00  0.00    -0.091 A  
HETATM   11  C   UNL     1      -6.913  10.787  67.248  1.00  0.00    -0.086 A  
HETATM   12  N   UNL     1      -6.479  11.119  65.993  1.00  0.00    -0.048 NA 
HETATM   13  C   UNL     1      -6.723  10.061  65.255  1.00  0.00    -0.117 A  
HETATM   14  N   UNL     1      -7.299   9.063  65.984  1.00  0.00    -0.093 NA 
HETATM   15  C   UNL     1      -7.662   7.766  65.459  1.00  0.00    -0.100 C  
ENDBRANCH   9  10
ENDBRANCH   4   9
ENDBRANCH   2   3
TORSDOF 3
ENDMDL
MODEL      235
REMARK 921   NORMALIZED FREE ENERGY PREDICTED BY IDOCK:   -1.74 KCAL/MOL
REMARK 922        TOTAL FREE ENERGY PREDICTED BY IDOCK:   -2.37 KCAL/MOL
REMARK 923 INTER-LIGAND FREE ENERGY PREDICTED BY IDOCK:   -2.26 KCAL/MOL
REMARK 924 INTRA-LIGAND FREE ENERGY PREDICTED BY IDOCK:   -0.10 KCAL/MOL
REMARK 927      BINDING AFFINITY PREDICTED BY RF-SCORE:    0.00 PKD
ROOT
HETATM    1  C   UNL     1     -10.613   9.572  68.058  1.00  0.00    -0.282 C  
HETATM    2  C   UNL     1     -10.499   8.301  68.890  1.00  0.00    -0.209 C  
ENDROOT
BRANCH   2   3
HETATM    3  C   UNL     1      -9.120   7.638  68.822  1.00  0.00    -0.139 C  
HETATM    4  C   UNL     1      -8.712   6.833  70.066  1.00  0.00    -0.141 C  
HETATM    5  C   UNL     1      -8.975   6.603  67.727  1.00  0.00    -0.112 C  
HETATM    6  C   UNL     1      -7.699   5.871  69.465  1.00  0.00    -0.097 C  
HETATM    7  O   UNL     1      -8.190   5.573  68.159  1.00  0.00    -0.096 OA 
HETATM    8  O   UNL     1      -9.437   6.666  66.601  1.00  0.00    -0.157 OA 
BRANCH   4   9
HETATM    9  C   UNL     1      -9.865   6.081  70.766  1.00  0.00    -0.221 C  
BRANCH   9  10
HETATM   10  C   UNL     1      -9.378   5.174  71.853  1.00  0.00    -0.142 A  
HETATM   11  C   UNL     1      -8.890   3.881  71.791  1.00  0.00    -0.104 A  
HETATM   12  N   UNL     1      -8.576   3.407  73.036  1.00  0.00    -0.081 NA 
HETATM   13  C   UNL     1      -8.838   4.397  73.857  1.00  0.00    -0.103 A  
HETATM   14  N   UNL     1      -9.310   5.489  73.190  1.00  0.00    -0.139 NA 
HETATM   15  C   UNL     1      -9.663   6.744  73.816  1.00  0.00    -0.239 C  
ENDBRANCH   9  10
ENDBRANCH   4   9
ENDBRANCH   2   3
TORSDOF 3
ENDMDL
MODEL      236
REMARK 921   NORMALIZED FREE ENERGY PREDICTED BY IDOCK:   -1.73 KCAL/MOL
REMARK 922        TOTAL FREE ENERGY PREDICTED BY IDOCK:   -2.35 KCAL/MOL
REMARK 923 INTER-LIGAND FREE ENERGY PREDICTED BY IDOCK:   -2.71 KCAL/MOL
REMARK 924 INTRA-LIGAND FREE ENERGY PREDICTED BY IDOCK:    0.36 KCAL/MOL
REMARK 927      BINDING AFFINITY PREDICTED BY RF-SCORE:    0.00 PKD
ROOT
HETATM    1  C   UNL     1      -7.585  10.025  64.882  1.00  0.00    -0.139 C  
HETATM    2  C   UNL     1      -8.085   9.833  66.309  1.00  0.00    -0.113 C  
ENDROOT
BRANCH   2   3
HETATM    3  C   UNL     1      -9.517  10.327  66.535  1.00  0.00    -0.212 C  
HETATM    4  C   UNL     1     -10.363   9.480  67.500  1.00  0.00    -0.306 C  
HETATM    5  C   UNL     1      -9.615  11.699  67.165  1.00  0.00    -0.175 C  
HETATM    6  C   UNL     1     -11.385  10.507  67.960  1.00  0.00    -0.246 C  
HETATM    7  O   UNL     1     -10.676  11.743  68.023  1.00  0.00    -0.194 OA 
HETATM    8  O   UNL     1      -8.900  12.659  66.933  1.00  0.00    -0.210 OA 
BRANCH   4   9
HETATM    9  C   UNL     1      -9.587   8.875  68.691  1.00  0.00    -0.158 C  
BRANCH   9  10
HETATM   10  C   UNL     1      -9.006   7.534  68.371  1.00  0.00    -0.128 A  
HETATM   11  C   UNL     1      -7.758   7.007  68.652  1.00  0.00    -0.120 A  
HETATM   12  N   UNL     1      -7.627   5.740  68.152  1.00  0.00    -0.084 NA 
HETATM   13  C   UNL     1      -8.784   5.471  67.592  1.00  0.00    -0.107 A  
HETATM   14  N   UNL     1      -9.653   6.516  67.710  1.00  0.00    -0.122 NA 
HETATM   15  C   UNL     1     -11.012   6.513  67.216  1.00  0.00    -0.400 C  
ENDBRANCH   9  10
ENDBRANCH   4   9
ENDBRANCH   2   3
TORSDOF 3
ENDMDL
MODEL      237
REMARK 921   NORMALIZED FREE ENERGY PREDICTED BY IDOCK:   -1.70 KCAL/MOL
REMARK 922        TOTAL FREE ENERGY PREDICTED BY IDOCK:   -2.32 KCAL/MOL
REMARK 923 INTER-LIGAND FREE ENERGY PREDICTED BY IDOCK:   -1.94 KCAL/MOL
REMARK 924 INTRA-LIGAND FREE ENERGY PREDICTED BY IDOCK:   -0.38 KCAL/MOL
REMARK 927      BINDING AFFINITY PREDICTED BY RF-SCORE:    0.00 PKD
ROOT
HETATM    1  C   UNL     1      -5.523   9.324  70.814  1.00  0.00    -0.032 C  
HETATM    2  C   UNL     1      -6.295   8.543  71.870  1.00  0.00    -0.069 C  
ENDROOT
BRANCH   2   3
HETATM    3  C   UNL     1      -7.816   8.642  71.724  1.00  0.00    -0.138 C  
HETATM    4  C   UNL     1      -8.452   7.644  70.742  1.00  0.00    -0.125 C  
HETATM    5  C   UNL     1      -8.589   8.357  72.993  1.00  0.00    -0.147 C  
HETATM    6  C   UNL     1      -9.872   7.578  71.281  1.00  0.00    -0.179 C  
HETATM    7  O   UNL     1      -9.745   7.693  72.697  1.00  0.00    -0.165 OA 
HETATM    8  O   UNL     1      -8.280   8.693  74.123  1.00  0.00    -0.341 OA 
BRANCH   4   9
HETATM    9  C   UNL     1      -7.791   6.248  70.709  1.00  0.00    -0.106 C  
BRANCH   9  10
HETATM   10  C   UNL     1      -8.477   5.314  69.762  1.00  0.00    -0.098 A  
HETATM   11  C   UNL     1      -8.439   5.250  68.381  1.00  0.00    -0.096 A  
HETATM   12  N   UNL     1      -9.244   4.249  67.906  1.00  0.00    -0.132 NA 
HETATM   13  C   UNL     1      -9.753   3.682  68.975  1.00  0.00     0.008 A  
HETATM   14  N   UNL     1      -9.310   4.280  70.119  1.00  0.00    -0.140 NA 
HETATM   15  C   UNL     1      -9.673   3.865  71.455  1.00  0.00    -0.177 C  
ENDBRANCH   9  10
ENDBRANCH   4   9
ENDBRANCH   2   3
TORSDOF 3
ENDMDL
MODEL      238
REMARK 921   NORMALIZED FREE ENERGY PREDICTED BY IDOCK:   -1.55 KCAL/MOL
REMARK 922        TOTAL FREE ENERGY PREDICTED BY IDOCK:   -2.15 KCAL/MOL
REMARK 923 INTER-LIGAND FREE ENERGY PREDICTED BY IDOCK:   -2.58 KCAL/MOL
REMARK 924 INTRA-LIGAND FREE ENERGY PREDICTED BY IDOCK:    0.43 KCAL/MOL
REMARK 927      BINDING AFFINITY PREDICTED BY RF-SCORE:    0.00 PKD
ROOT
HETATM    1  C   UNL     1      -9.972  12.507  64.559  1.00  0.00    -0.195 C  
HETATM    2  C   UNL     1     -10.903  11.461  65.162  1.00  0.00    -0.302 C  
ENDROOT
BRANCH   2   3
HETATM    3  C   UNL     1     -11.029  11.550  66.685  1.00  0.00    -0.349 C  
HETATM    4  C   UNL     1      -9.852  10.964  67.481  1.00  0.00    -0.192 C  
HETATM    5  C   UNL     1     -11.093  12.960  67.229  1.00  0.00    -0.274 C  
HETATM    6  C   UNL     1      -9.980  11.730  68.788  1.00  0.00    -0.115 C  
HETATM    7  O   UNL     1     -10.429  13.033  68.419  1.00  0.00    -0.242 OA 
HETATM    8  O   UNL     1     -11.679  13.906  66.730  1.00  0.00    -0.356 OA 
BRANCH   4   9
HETATM    9  C   UNL     1      -8.462  11.164  66.837  1.00  0.00    -0.147 C  
BRANCH   9  10
HETATM   10  C   UNL     1      -7.347  10.756  67.748  1.00  0.00    -0.093 A  
HETATM   11  C   UNL     1      -6.464  11.525  68.485  1.00  0.00    -0.054 A  
HETATM   12  N   UNL     1      -5.575  10.743  69.171  1.00  0.00    -0.041 NA 
HETATM   13  C   UNL     1      -5.915   9.507  68.888  1.00  0.00    -0.042 A  
HETATM   14  N   UNL     1      -6.987   9.463  68.045  1.00  0.00    -0.078 NA 
HETATM   15  C   UNL     1      -7.611   8.247  67.573  1.00  0.00    -0.098 C  
ENDBRANCH   9  10
ENDBRANCH   4   9
ENDBRANCH   2   3
TORSDOF 3
ENDMDL
MODEL      239
REMARK 921   NORMALIZED FREE ENERGY PREDICTED BY IDOCK:   -1.53 KCAL/MOL
REMARK 922        TOTAL FREE ENERGY PREDICTED BY IDOCK:   -2.12 KCAL/MOL
REMARK 923 INTER-LIGAND FREE ENERGY PREDICTED BY IDOCK:   -2.00 KCAL/MOL
REMARK 924 INTRA-LIGAND FREE ENERGY PREDICTED BY IDOCK:   -0.12 KCAL/MOL
REMARK 927      BINDING AFFINITY PREDICTED BY RF-SCORE:    0.00 PKD
ROOT
HETATM    1  C   UNL     1     -11.129   8.172  72.480  1.00  0.00    -0.446 C  
HETATM    2  C   UNL     1     -10.515   7.647  71.189  1.00  0.00    -0.220 C  
ENDROOT
BRANCH   2   3
HETATM    3  C   UNL     1      -9.010   7.380  71.283  1.00  0.00    -0.140 C  
HETATM    4  C   UNL     1      -8.616   6.007  71.852  1.00  0.00    -0.137 C  
HETATM    5  C   UNL     1      -8.289   7.378  69.953  1.00  0.00    -0.134 C  
HETATM    6  C   UNL     1      -7.231   5.835  71.250  1.00  0.00    -0.074 C  
HETATM    7  O   UNL     1      -7.303   6.433  69.957  1.00  0.00    -0.081 OA 
HETATM    8  O   UNL     1      -8.498   8.123  69.010  1.00  0.00    -0.127 OA 
BRANCH   4   9
HETATM    9  C   UNL     1      -9.555   4.844  71.462  1.00  0.00    -0.218 C  
BRANCH   9  10
HETATM   10  C   UNL     1      -8.809   3.667  70.918  1.00  0.00    -0.083 A  
HETATM   11  C   UNL     1      -8.140   2.648  71.573  1.00  0.00    -0.055 A  
HETATM   12  N   UNL     1      -7.567   1.777  70.687  1.00  0.00    -0.036 NA 
HETATM   13  C   UNL     1      -7.895   2.230  69.499  1.00  0.00    -0.042 A  
HETATM   14  N   UNL     1      -8.656   3.359  69.586  1.00  0.00    -0.061 NA 
HETATM   15  C   UNL     1      -9.193   4.077  68.452  1.00  0.00    -0.150 C  
ENDBRANCH   9  10
ENDBRANCH   4   9
ENDBRANCH   2   3
TORSDOF 3
ENDMDL
MODEL      240
REMARK 921   NORMALIZED FREE ENERGY PREDICTED BY IDOCK:   -1.49 KCAL/MOL
REMARK 922        TOTAL FREE ENERGY PREDICTED BY IDOCK:   -2.07 KCAL/MOL
REMARK 923 INTER-LIGAND FREE ENERGY PREDICTED BY IDOCK:   -2.96 KCAL/MOL
REMARK 924 INTRA-LIGAND FREE ENERGY PREDICTED BY IDOCK:    0.88 KCAL/MOL
REMARK 927      BINDING AFFINITY PREDICTED BY RF-SCORE:    0.00 PKD
ROOT
HETATM    1  C   UNL     1      -9.188   8.183  67.366  1.00  0.00    -0.159 C  
HETATM    2  C   UNL     1      -8.201   7.352  68.177  1.00  0.00    -0.124 C  
ENDROOT
BRANCH   2   3
HETATM    3  C   UNL     1      -8.295   5.847  67.914  1.00  0.00    -0.111 C  
HETATM    4  C   UNL     1      -9.425   5.116  68.658  1.00  0.00    -0.178 C  
HETATM    5  C   UNL     1      -8.588   5.478  66.476  1.00  0.00    -0.118 C  
HETATM    6  C   UNL     1      -9.626   3.907  67.757  1.00  0.00    -0.145 C  
HETATM    7  O   UNL     1      -9.404   4.385  66.431  1.00  0.00    -0.135 OA 
HETATM    8  O   UNL     1      -8.145   6.024  65.480  1.00  0.00    -0.118 OA 
BRANCH   4   9
HETATM    9  C   UNL     1     -10.730   5.925  68.825  1.00  0.00    -0.354 C  
BRANCH   9  10
HETATM   10  C   UNL     1     -10.978   6.321  70.246  1.00  0.00    -0.337 A  
HETATM   11  C   UNL     1     -11.522   7.478  70.773  1.00  0.00    -0.284 A  
HETATM   12  N   UNL     1     -11.545   7.440  72.141  1.00  0.00    -0.283 NA 
HETATM   13  C   UNL     1     -11.049   6.268  72.461  1.00  0.00    -0.272 A  
HETATM   14  N   UNL     1     -10.705   5.550  71.353  1.00  0.00    -0.243 NA 
HETATM   15  C   UNL     1     -10.156   4.213  71.378  1.00  0.00    -0.097 C  
ENDBRANCH   9  10
ENDBRANCH   4   9
ENDBRANCH   2   3
TORSDOF 3
ENDMDL
MODEL      241
REMARK 921   NORMALIZED FREE ENERGY PREDICTED BY IDOCK:   -1.14 KCAL/MOL
REMARK 922        TOTAL FREE ENERGY PREDICTED BY IDOCK:   -1.66 KCAL/MOL
REMARK 923 INTER-LIGAND FREE ENERGY PREDICTED BY IDOCK:   -1.89 KCAL/MOL
REMARK 924 INTRA-LIGAND FREE ENERGY PREDICTED BY IDOCK:    0.23 KCAL/MOL
REMARK 927      BINDING AFFINITY PREDICTED BY RF-SCORE:    0.00 PKD
ROOT
HETATM    1  C   UNL     1      -6.753   7.029  70.948  1.00  0.00    -0.053 C  
HETATM    2  C   UNL     1      -7.902   7.901  71.438  1.00  0.00    -0.092 C  
ENDROOT
BRANCH   2   3
HETATM    3  C   UNL     1      -9.253   7.561  70.802  1.00  0.00    -0.158 C  
HETATM    4  C   UNL     1      -9.617   8.375  69.550  1.00  0.00    -0.170 C  
HETATM    5  C   UNL     1      -9.364   6.143  70.287  1.00  0.00    -0.160 C  
HETATM    6  C   UNL     1     -10.595   7.431  68.868  1.00  0.00    -0.176 C  
HETATM    7  O   UNL     1     -10.102   6.119  69.139  1.00  0.00    -0.152 OA 
HETATM    8  O   UNL     1      -8.914   5.140  70.814  1.00  0.00    -0.129 OA 
BRANCH   4   9
HETATM    9  C   UNL     1      -8.428   8.726  68.628  1.00  0.00    -0.129 C  
BRANCH   9  10
HETATM   10  C   UNL     1      -8.261  10.202  68.450  1.00  0.00    -0.112 A  
HETATM   11  C   UNL     1      -9.185  11.174  68.110  1.00  0.00    -0.166 A  
HETATM   12  N   UNL     1      -8.601  12.410  68.029  1.00  0.00    -0.173 NA 
HETATM   13  C   UNL     1      -7.341  12.215  68.340  1.00  0.00    -0.108 A  
HETATM   14  N   UNL     1      -7.090  10.903  68.616  1.00  0.00    -0.075 NA 
HETATM   15  C   UNL     1      -5.802  10.380  69.014  1.00  0.00    -0.040 C  
ENDBRANCH   9  10
ENDBRANCH   4   9
ENDBRANCH   2   3
TORSDOF 3
ENDMDL
MODEL      242
REMARK 921   NORMALIZED FREE ENERGY PREDICTED BY IDOCK:   -0.79 KCAL/MOL
REMARK 922        TOTAL FREE ENERGY PREDICTED BY IDOCK:   -1.25 KCAL/MOL
REMARK 923 INTER-LIGAND FREE ENERGY PREDICTED BY IDOCK:   -1.67 KCAL/MOL
REMARK 924 INTRA-LIGAND FREE ENERGY PREDICTED BY IDOCK:    0.42 KCAL/MOL
REMARK 927      BINDING AFFINITY PREDICTED BY RF-SCORE:    0.00 PKD
ROOT
HETATM    1  C   UNL     1      -8.579  16.097  67.708  1.00  0.00    -0.172 C  
HETATM    2  C   UNL     1      -7.970  14.734  68.012  1.00  0.00    -0.138 C  
ENDROOT
BRANCH   2   3
HETATM    3  C   UNL     1      -8.232  13.684  66.929  1.00  0.00     0.044 C  
HETATM    4  C   UNL     1      -8.200  12.222  67.405  1.00  0.00    -0.178 C  
HETATM    5  C   UNL     1      -9.602  13.767  66.292  1.00  0.00    -0.249 C  
HETATM    6  C   UNL     1      -9.060  11.556  66.343  1.00  0.00    -0.200 C  
HETATM    7  O   UNL     1     -10.067  12.513  66.018  1.00  0.00    -0.244 OA 
HETATM    8  O   UNL     1     -10.211  14.785  66.008  1.00  0.00    -0.275 OA 
BRANCH   4   9
HETATM    9  C   UNL     1      -8.762  11.984  68.824  1.00  0.00     0.083 C  
BRANCH   9  10
HETATM   10  C   UNL     1      -7.904  11.058  69.628  1.00  0.00     0.217 A  
HETATM   11  C   UNL     1      -8.093   9.731  69.971  1.00  0.00    -0.189 A  
HETATM   12  N   UNL     1      -7.067   9.265  70.747  1.00  0.00    -0.108 NA 
HETATM   13  C   UNL     1      -6.238  10.276  70.863  1.00  0.00    -0.001 A  
HETATM   14  N   UNL     1      -6.691  11.375  70.194  1.00  0.00    -0.127 NA 
HETATM   15  C   UNL     1      -5.989  12.636  70.114  1.00  0.00    -0.138 C  
ENDBRANCH   9  10
ENDBRANCH   4   9
ENDBRANCH   2   3
TORSDOF 3
ENDMDL
MODEL      243
REMARK 921   NORMALIZED FREE ENERGY PREDICTED BY IDOCK:   -0.63 KCAL/MOL
REMARK 922        TOTAL FREE ENERGY PREDICTED BY IDOCK:   -1.06 KCAL/MOL
REMARK 923 INTER-LIGAND FREE ENERGY PREDICTED BY IDOCK:   -2.25 KCAL/MOL
REMARK 924 INTRA-LIGAND FREE ENERGY PREDICTED BY IDOCK:    1.19 KCAL/MOL
REMARK 927      BINDING AFFINITY PREDICTED BY RF-SCORE:    0.00 PKD
ROOT
HETATM    1  C   UNL     1     -10.119   7.734  71.837  1.00  0.00    -0.231 C  
HETATM    2  C   UNL     1     -10.084   8.185  70.382  1.00  0.00    -0.196 C  
ENDROOT
BRANCH   2   3
HETATM    3  C   UNL     1      -8.844   7.713  69.617  1.00  0.00    -0.140 C  
HETATM    4  C   UNL     1      -8.321   8.682  68.544  1.00  0.00    -0.123 C  
HETATM    5  C   UNL     1      -7.614   7.516  70.476  1.00  0.00    -0.085 C  
HETATM    6  C   UNL     1      -6.866   8.253  68.456  1.00  0.00    -0.064 C  
HETATM    7  O   UNL     1      -6.498   7.891  69.786  1.00  0.00    -0.033 OA 
HETATM    8  O   UNL     1      -7.581   7.053  71.603  1.00  0.00    -0.087 OA 
BRANCH   4   9
HETATM    9  C   UNL     1      -8.454  10.181  68.896  1.00  0.00    -0.139 C  
BRANCH   9  10
HETATM   10  C   UNL     1      -9.317  10.920  67.923  1.00  0.00    -0.156 A  
HETATM   11  C   UNL     1     -10.151  12.008  68.111  1.00  0.00    -0.200 A  
HETATM   12  N   UNL     1     -10.783  12.358  66.948  1.00  0.00    -0.236 NA 
HETATM   13  C   UNL     1     -10.329  11.521  66.045  1.00  0.00    -0.246 A  
HETATM   14  N   UNL     1      -9.432  10.644  66.580  1.00  0.00    -0.165 NA 
HETATM   15  C   UNL     1      -8.740   9.618  65.833  1.00  0.00    -0.144 C  
ENDBRANCH   9  10
ENDBRANCH   4   9
ENDBRANCH   2   3
TORSDOF 3
ENDMDL
MODEL      244
REMARK 921   NORMALIZED FREE ENERGY PREDICTED BY IDOCK:   -0.50 KCAL/MOL
REMARK 922        TOTAL FREE ENERGY PREDICTED BY IDOCK:   -0.91 KCAL/MOL
REMARK 923 INTER-LIGAND FREE ENERGY PREDICTED BY IDOCK:   -3.77 KCAL/MOL
REMARK 924 INTRA-LIGAND FREE ENERGY PREDICTED BY IDOCK:    2.86 KCAL/MOL
REMARK 927      BINDING AFFINITY PREDICTED BY RF-SCORE:    0.00 PKD
ROOT
HETATM    1  C   UNL     1     -11.360  13.532  64.228  1.00  0.00    -0.402 C  
HETATM    2  C   UNL     1     -10.781  13.651  65.632  1.00  0.00    -0.283 C  
ENDROOT
BRANCH   2   3
HETATM    3  C   UNL     1     -11.237  14.903  66.386  1.00  0.00    -0.331 C  
HETATM    4  C   UNL     1     -11.656  14.678  67.848  1.00  0.00    -0.373 C  
HETATM    5  C   UNL     1     -10.174  15.970  66.534  1.00  0.00    -0.293 C  
HETATM    6  C   UNL     1     -11.437  16.067  68.426  1.00  0.00    -0.331 C  
HETATM    7  O   UNL     1     -10.291  16.582  67.749  1.00  0.00    -0.273 OA 
HETATM    8  O   UNL     1      -9.348  16.294  65.698  1.00  0.00    -0.457 OA 
BRANCH   4   9
HETATM    9  C   UNL     1     -10.836  13.611  68.607  1.00  0.00    -0.283 C  
BRANCH   9  10
HETATM   10  C   UNL     1      -9.399  13.591  68.189  1.00  0.00    -0.213 A  
HETATM   11  C   UNL     1      -8.761  12.856  67.206  1.00  0.00    -0.204 A  
HETATM   12  N   UNL     1      -7.420  13.128  67.173  1.00  0.00    -0.048 NA 
HETATM   13  C   UNL     1      -7.230  14.037  68.100  1.00  0.00    -0.129 A  
HETATM   14  N   UNL     1      -8.396  14.360  68.731  1.00  0.00    -0.151 NA 
HETATM   15  C   UNL     1      -8.516  15.348  69.780  1.00  0.00     0.000 C  
ENDBRANCH   9  10
ENDBRANCH   4   9
ENDBRANCH   2   3
TORSDOF 3
ENDMDL
MODEL      245
REMARK 921   NORMALIZED FREE ENERGY PREDICTED BY IDOCK:   -0.37 KCAL/MOL
REMARK 922        TOTAL FREE ENERGY PREDICTED BY IDOCK:   -0.75 KCAL/MOL
REMARK 923 INTER-LIGAND FREE ENERGY PREDICTED BY IDOCK:   -2.76 KCAL/MOL
REMARK 924 INTRA-LIGAND FREE ENERGY PREDICTED BY IDOCK:    2.01 KCAL/MOL
REMARK 927      BINDING AFFINITY PREDICTED BY RF-SCORE:    0.00 PKD
ROOT
HETATM    1  C   UNL     1      -7.338  11.843  67.395  1.00  0.00    -0.145 C  
HETATM    2  C   UNL     1      -6.347  12.990  67.243  1.00  0.00     0.035 C  
ENDROOT
BRANCH   2   3
HETATM    3  C   UNL     1      -6.779  14.279  67.947  1.00  0.00    -0.177 C  
HETATM    4  C   UNL     1      -8.206  14.757  67.632  1.00  0.00    -0.187 C  
HETATM    5  C   UNL     1      -6.814  14.189  69.457  1.00  0.00    -0.084 C  
HETATM    6  C   UNL     1      -8.508  15.591  68.867  1.00  0.00    -0.207 C  
HETATM    7  O   UNL     1      -7.860  14.917  69.945  1.00  0.00    -0.068 OA 
HETATM    8  O   UNL     1      -6.017  13.600  70.169  1.00  0.00    -0.132 OA 
BRANCH   4   9
HETATM    9  C   UNL     1      -9.246  13.630  67.438  1.00  0.00    -0.222 C  
BRANCH   9  10
HETATM   10  C   UNL     1     -10.424  13.778  68.349  1.00  0.00    -0.252 A  
HETATM   11  C   UNL     1     -11.040  14.915  68.841  1.00  0.00    -0.257 A  
HETATM   12  N   UNL     1     -12.080  14.598  69.671  1.00  0.00    -0.315 NA 
HETATM   13  C   UNL     1     -12.129  13.286  69.676  1.00  0.00    -0.270 A  
HETATM   14  N   UNL     1     -11.160  12.746  68.882  1.00  0.00    -0.261 NA 
HETATM   15  C   UNL     1     -10.974  11.330  68.662  1.00  0.00    -0.218 C  
ENDBRANCH   9  10
ENDBRANCH   4   9
ENDBRANCH   2   3
TORSDOF 3
ENDMDL
MODEL      246
REMARK 921   NORMALIZED FREE ENERGY PREDICTED BY IDOCK:   -0.23 KCAL/MOL
REMARK 922        TOTAL FREE ENERGY PREDICTED BY IDOCK:   -0.59 KCAL/MOL
REMARK 923 INTER-LIGAND FREE ENERGY PREDICTED BY IDOCK:   -1.60 KCAL/MOL
REMARK 924 INTRA-LIGAND FREE ENERGY PREDICTED BY IDOCK:    1.01 KCAL/MOL
REMARK 927      BINDING AFFINITY PREDICTED BY RF-SCORE:    0.00 PKD
ROOT
HETATM    1  C   UNL     1      -6.173   6.431  70.248  1.00  0.00    -0.035 C  
HETATM    2  C   UNL     1      -6.777   7.705  70.824  1.00  0.00    -0.042 C  
ENDROOT
BRANCH   2   3
HETATM    3  C   UNL     1      -8.193   8.001  70.321  1.00  0.00    -0.123 C  
HETATM    4  C   UNL     1      -8.431   7.736  68.825  1.00  0.00    -0.129 C  
HETATM    5  C   UNL     1      -9.275   7.156  70.957  1.00  0.00    -0.158 C  
HETATM    6  C   UNL     1      -9.936   7.521  68.809  1.00  0.00    -0.172 C  
HETATM    7  O   UNL     1     -10.236   6.856  70.035  1.00  0.00    -0.190 OA 
HETATM    8  O   UNL     1      -9.337   6.812  72.125  1.00  0.00    -0.142 OA 
BRANCH   4   9
HETATM    9  C   UNL     1      -7.676   6.519  68.248  1.00  0.00    -0.105 C  
BRANCH   9  10
HETATM   10  C   UNL     1      -7.367   6.677  66.792  1.00  0.00    -0.078 A  
HETATM   11  C   UNL     1      -6.436   7.478  66.155  1.00  0.00    -0.045 A  
HETATM   12  N   UNL     1      -6.503   7.335  64.796  1.00  0.00    -0.037 NA 
HETATM   13  C   UNL     1      -7.441   6.440  64.590  1.00  0.00    -0.091 A  
HETATM   14  N   UNL     1      -7.981   6.002  65.764  1.00  0.00    -0.108 NA 
HETATM   15  C   UNL     1      -9.017   4.998  65.867  1.00  0.00    -0.141 C  
ENDBRANCH   9  10
ENDBRANCH   4   9
ENDBRANCH   2   3
TORSDOF 3
ENDMDL
MODEL      247
REMARK 921   NORMALIZED FREE ENERGY PREDICTED BY IDOCK:   -0.05 KCAL/MOL
REMARK 922        TOTAL FREE ENERGY PREDICTED BY IDOCK:   -0.38 KCAL/MOL
REMARK 923 INTER-LIGAND FREE ENERGY PREDICTED BY IDOCK:   -1.28 KCAL/MOL
REMARK 924 INTRA-LIGAND FREE ENERGY PREDICTED BY IDOCK:    0.90 KCAL/MOL
REMARK 927      BINDING AFFINITY PREDICTED BY RF-SCORE:    0.00 PKD
ROOT
HETATM    1  C   UNL     1      -5.189   5.626  69.562  1.00  0.00    -0.004 C  
HETATM    2  C   UNL     1      -6.613   5.083  69.566  1.00  0.00    -0.040 C  
ENDROOT
BRANCH   2   3
HETATM    3  C   UNL     1      -7.311   5.166  68.206  1.00  0.00    -0.071 C  
HETATM    4  C   UNL     1      -8.501   4.212  68.015  1.00  0.00    -0.103 C  
HETATM    5  C   UNL     1      -7.944   6.507  67.907  1.00  0.00    -0.109 C  
HETATM    6  C   UNL     1      -9.285   4.943  66.937  1.00  0.00    -0.122 C  
HETATM    7  O   UNL     1      -9.110   6.331  67.219  1.00  0.00    -0.116 OA 
HETATM    8  O   UNL     1      -7.489   7.604  68.183  1.00  0.00    -0.102 OA 
BRANCH   4   9
HETATM    9  C   UNL     1      -9.358   3.973  69.279  1.00  0.00    -0.238 C  
BRANCH   9  10
HETATM   10  C   UNL     1      -8.643   3.153  70.306  1.00  0.00    -0.060 A  
HETATM   11  C   UNL     1      -8.135   1.868  70.233  1.00  0.00    -0.041 A  
HETATM   12  N   UNL     1      -7.573   1.486  71.421  1.00  0.00    -0.036 NA 
HETATM   13  C   UNL     1      -7.704   2.525  72.213  1.00  0.00    -0.053 A  
HETATM   14  N   UNL     1      -8.330   3.560  71.582  1.00  0.00    -0.065 NA 
HETATM   15  C   UNL     1      -8.596   4.848  72.183  1.00  0.00    -0.124 C  
ENDBRANCH   9  10
ENDBRANCH   4   9
ENDBRANCH   2   3
TORSDOF 3
ENDMDL
MODEL      248
REMARK 921   NORMALIZED FREE ENERGY PREDICTED BY IDOCK:    1.03 KCAL/MOL
REMARK 922        TOTAL FREE ENERGY PREDICTED BY IDOCK:    0.89 KCAL/MOL
REMARK 923 INTER-LIGAND FREE ENERGY PREDICTED BY IDOCK:   -1.77 KCAL/MOL
REMARK 924 INTRA-LIGAND FREE ENERGY PREDICTED BY IDOCK:    2.66 KCAL/MOL
REMARK 927      BINDING AFFINITY PREDICTED BY RF-SCORE:    0.00 PKD
ROOT
HETATM    1  C   UNL     1      -9.913   5.044  69.210  1.00  0.00    -0.277 C  
HETATM    2  C   UNL     1      -8.714   5.984  69.203  1.00  0.00    -0.120 C  
ENDROOT
BRANCH   2   3
HETATM    3  C   UNL     1      -7.952   6.007  67.875  1.00  0.00    -0.106 C  
HETATM    4  C   UNL     1      -8.612   6.820  66.749  1.00  0.00    -0.119 C  
HETATM    5  C   UNL     1      -6.582   6.643  67.949  1.00  0.00    -0.058 C  
HETATM    6  C   UNL     1      -7.404   7.145  65.885  1.00  0.00    -0.075 C  
HETATM    7  O   UNL     1      -6.326   7.336  66.801  1.00  0.00    -0.044 OA 
HETATM    8  O   UNL     1      -5.779   6.539  68.861  1.00  0.00    -0.015 OA 
BRANCH   4   9
HETATM    9  C   UNL     1      -9.344   8.100  67.209  1.00  0.00    -0.174 C  
BRANCH   9  10
HETATM   10  C   UNL     1      -8.427   9.072  67.881  1.00  0.00    -0.121 A  
HETATM   11  C   UNL     1      -7.195   9.562  67.487  1.00  0.00    -0.090 A  
HETATM   12  N   UNL     1      -6.679  10.422  68.418  1.00  0.00    -0.060 NA 
HETATM   13  C   UNL     1      -7.586  10.488  69.364  1.00  0.00    -0.145 A  
HETATM   14  N   UNL     1      -8.665   9.703  69.080  1.00  0.00    -0.135 NA 
HETATM   15  C   UNL     1      -9.838   9.584  69.916  1.00  0.00    -0.226 C  
ENDBRANCH   9  10
ENDBRANCH   4   9
ENDBRANCH   2   3
TORSDOF 3
ENDMDL
MODEL      249
REMARK 921   NORMALIZED FREE ENERGY PREDICTED BY IDOCK:   12.19 KCAL/MOL
REMARK 922        TOTAL FREE ENERGY PREDICTED BY IDOCK:   14.01 KCAL/MOL
REMARK 923 INTER-LIGAND FREE ENERGY PREDICTED BY IDOCK:   13.13 KCAL/MOL
REMARK 924 INTRA-LIGAND FREE ENERGY PREDICTED BY IDOCK:    0.88 KCAL/MOL
REMARK 927      BINDING AFFINITY PREDICTED BY RF-SCORE:    0.00 PKD
ROOT
HETATM    1  C   UNL     1      -7.314  13.127  72.149  1.00  0.00     8.159 C  
HETATM    2  C   UNL     1      -8.074  14.272  71.491  1.00  0.00     5.223 C  
ENDROOT
BRANCH   2   3
HETATM    3  C   UNL     1      -7.570  14.625  70.089  1.00  0.00     0.442 C  
HETATM    4  C   UNL     1      -6.876  13.482  69.330  1.00  0.00    -0.051 C  
HETATM    5  C   UNL     1      -8.656  15.024  69.114  1.00  0.00    -0.188 C  
HETATM    6  C   UNL     1      -7.076  13.931  67.891  1.00  0.00    -0.163 C  
HETATM    7  O   UNL     1      -8.358  14.558  67.866  1.00  0.00    -0.141 OA 
HETATM    8  O   UNL     1      -9.641  15.699  69.359  1.00  0.00    -0.256 OA 
BRANCH   4   9
HETATM    9  C   UNL     1      -7.470  12.077  69.575  1.00  0.00     0.430 C  
BRANCH   9  10
HETATM   10  C   UNL     1      -6.643  10.993  68.960  1.00  0.00    -0.065 A  
HETATM   11  C   UNL     1      -5.990  10.945  67.742  1.00  0.00    -0.043 A  
HETATM   12  N   UNL     1      -5.362   9.742  67.559  1.00  0.00    -0.036 NA 
HETATM   13  C   UNL     1      -5.597   9.062  68.657  1.00  0.00    -0.041 A  
HETATM   14  N   UNL     1      -6.353   9.779  69.539  1.00  0.00    -0.044 NA 
HETATM   15  C   UNL     1      -6.755   9.311  70.846  1.00  0.00    -0.094 C  
ENDBRANCH   9  10
ENDBRANCH   4   9
ENDBRANCH   2   3
TORSDOF 3
ENDMDL
MODEL      250
REMARK 921   NORMALIZED FREE ENERGY PREDICTED BY IDOCK:   21.79 KCAL/MOL
REMARK 922        TOTAL FREE ENERGY PREDICTED BY IDOCK:   25.29 KCAL/MOL
REMARK 923 INTER-LIGAND FREE ENERGY PREDICTED BY IDOCK:   17.48 KCAL/MOL
REMARK 924 INTRA-LIGAND FREE ENERGY PREDICTED BY IDOCK:    7.81 KCAL/MOL
REMARK 927      BINDING AFFINITY PREDICTED BY RF-SCORE:    0.00 PKD
ROOT
HETATM    1  C   UNL     1     -10.245  17.680  68.540  1.00  0.00    -0.386 C  
HETATM    2  C   UNL     1      -9.161  18.007  67.520  1.00  0.00    -0.253 C  
ENDROOT
BRANCH   2   3
HETATM    3  C   UNL     1      -7.880  17.186  67.694  1.00  0.00    -0.187 C  
HETATM    4  C   UNL     1      -7.818  16.319  68.961  1.00  0.00    -0.235 C  
HETATM    5  C   UNL     1      -7.641  16.159  66.609  1.00  0.00    -0.203 C  
HETATM    6  C   UNL     1      -6.822  15.253  68.531  1.00  0.00    -0.112 C  
HETATM    7  O   UNL     1      -7.078  15.036  67.144  1.00  0.00    -0.198 OA 
HETATM    8  O   UNL     1      -7.863  16.294  65.418  1.00  0.00     1.242 OA 
BRANCH   4   9
HETATM    9  C   UNL     1      -9.164  15.698  69.396  1.00  0.00    -0.279 C  
BRANCH   9  10
HETATM   10  C   UNL     1      -9.941  16.600  70.303  1.00  0.00     0.946 A  
HETATM   11  C   UNL     1     -11.280  16.585  70.649  1.00  0.00    -0.063 A  
HETATM   12  N   UNL     1     -11.588  17.616  71.495  1.00  0.00     2.303 NA 
HETATM   13  C   UNL     1     -10.454  18.246  71.695  1.00  0.00     3.570 A  
HETATM   14  N   UNL     1      -9.429  17.663  71.009  1.00  0.00     4.932 NA 
HETATM   15  C   UNL     1      -8.055  18.111  71.047  1.00  0.00     6.405 C  
ENDBRANCH   9  10
ENDBRANCH   4   9
ENDBRANCH   2   3
TORSDOF 3
ENDMDL
