MODEL        1
REMARK 921   NORMALIZED FREE ENERGY PREDICTED BY IDOCK:   -7.56 KCAL/MOL
REMARK 922        TOTAL FREE ENERGY PREDICTED BY IDOCK:  -13.00 KCAL/MOL
REMARK 923 INTER-LIGAND FREE ENERGY PREDICTED BY IDOCK:  -11.53 KCAL/MOL
REMARK 924 INTRA-LIGAND FREE ENERGY PREDICTED BY IDOCK:   -1.47 KCAL/MOL
REMARK 927      BINDING AFFINITY PREDICTED BY RF-SCORE:    0.00 PKD
ROOT
HETATM    1  C   UNL     1     -12.130   6.832  71.249  1.00  0.00    -0.421 C  
HETATM    2  C   UNL     1     -11.847   7.951  72.253  1.00  0.00    -0.404 C  
HETATM    3  C   UNL     1     -10.505   8.611  71.943  1.00  0.00    -0.410 C  
HETATM    4  C   UNL     1     -13.004   8.965  72.328  1.00  0.00    -0.419 C  
ENDROOT
BRANCH   4   5
HETATM    5  O   UNL     1     -13.224   9.656  71.090  1.00  0.00    -0.356 OA 
BRANCH   5   6
HETATM    6  C   UNL     1     -12.910  10.994  71.110  1.00  0.00    -0.392 A  
HETATM    7  C   UNL     1     -13.386  11.915  72.048  1.00  0.00    -0.425 A  
HETATM    8  C   UNL     1     -13.201  13.297  71.850  1.00  0.00    -0.523 A  
HETATM    9  C   UNL     1     -12.511  13.769  70.728  1.00  0.00    -0.441 A  
HETATM   10  C   UNL     1     -11.889  12.827  69.891  1.00  0.00    -0.371 A  
HETATM   11  C   UNL     1     -12.090  11.454  70.081  1.00  0.00    -0.439 A  
BRANCH   9  12
HETATM   12  C   UNL     1     -12.633  15.210  70.278  1.00  0.00    -0.326 C  
BRANCH  12  13
HETATM   13  N   UNL     1     -12.097  15.519  68.971  1.00  0.00    -0.583 N  
HETATM   14  H   UNL     1     -12.694  15.493  68.145  1.00  0.00     0.000 HD 
BRANCH  13  15
HETATM   15  C   UNL     1     -10.768  15.849  68.864  1.00  0.00    -0.254 C  
HETATM   16  O   UNL     1     -10.081  16.022  69.873  1.00  0.00    -0.250 OA 
BRANCH  15  17
HETATM   17  N   UNL     1     -10.236  15.941  67.571  1.00  0.00    -0.263 N  
BRANCH  17  18
HETATM   18  C   UNL     1      -9.825  14.637  66.979  1.00  0.00    -0.244 C  
BRANCH  18  19
HETATM   19  C   UNL     1     -10.879  13.939  66.114  1.00  0.00    -0.290 A  
HETATM   20  C   UNL     1     -12.288  12.576  64.132  1.00  0.00    -0.462 A  
HETATM   21  C   UNL     1     -11.196  12.582  66.279  1.00  0.00    -0.359 A  
HETATM   22  C   UNL     1     -11.872  11.895  65.269  1.00  0.00    -0.160 A  
HETATM   23  F   UNL     1     -12.827  11.891  63.110  1.00  0.00    -0.686 F  
HETATM   24  C   UNL     1     -12.119  13.948  64.020  1.00  0.00    -0.437 A  
HETATM   25  C   UNL     1     -11.435  14.638  65.022  1.00  0.00    -0.386 A  
ENDBRANCH  18  19
ENDBRANCH  17  18
BRANCH  17  26
HETATM   26  C   UNL     1      -9.856  17.228  66.878  1.00  0.00    -0.287 C  
HETATM   27  C   UNL     1     -10.594  18.499  67.337  1.00  0.00    -0.463 C  
HETATM   28  C   UNL     1      -8.331  17.548  66.789  1.00  0.00    -0.277 C  
HETATM   29  C   UNL     1      -8.612  20.674  67.179  1.00  0.00    -0.199 C  
HETATM   30  C   UNL     1      -9.933  19.157  68.538  1.00  0.00    -0.425 C  
HETATM   31  N   UNL     1      -8.594  19.633  68.208  1.00  0.00    -0.329 NA 
HETATM   32  C   UNL     1      -7.753  18.493  67.851  1.00  0.00    -0.251 C  
ENDBRANCH  17  26
ENDBRANCH  15  17
ENDBRANCH  13  15
ENDBRANCH  12  13
ENDBRANCH   9  12
ENDBRANCH   5   6
ENDBRANCH   4   5
TORSDOF 9
ENDMDL
MODEL        2
REMARK 921   NORMALIZED FREE ENERGY PREDICTED BY IDOCK:   -7.44 KCAL/MOL
REMARK 922        TOTAL FREE ENERGY PREDICTED BY IDOCK:  -12.83 KCAL/MOL
REMARK 923 INTER-LIGAND FREE ENERGY PREDICTED BY IDOCK:  -11.38 KCAL/MOL
REMARK 924 INTRA-LIGAND FREE ENERGY PREDICTED BY IDOCK:   -1.45 KCAL/MOL
REMARK 927      BINDING AFFINITY PREDICTED BY RF-SCORE:    0.00 PKD
ROOT
HETATM    1  C   UNL     1      -9.988   6.491  70.359  1.00  0.00    -0.202 C  
HETATM    2  C   UNL     1     -11.234   5.987  71.090  1.00  0.00    -0.328 C  
HETATM    3  C   UNL     1     -10.846   5.373  72.433  1.00  0.00    -0.297 C  
HETATM    4  C   UNL     1     -12.305   7.086  71.227  1.00  0.00    -0.383 C  
ENDROOT
BRANCH   4   5
HETATM    5  O   UNL     1     -11.866   8.201  72.015  1.00  0.00    -0.298 OA 
BRANCH   5   6
HETATM    6  C   UNL     1     -12.115   9.434  71.461  1.00  0.00    -0.379 A  
HETATM    7  C   UNL     1     -11.445   9.966  70.355  1.00  0.00    -0.372 A  
HETATM    8  C   UNL     1     -11.602  11.322  70.009  1.00  0.00    -0.404 A  
HETATM    9  C   UNL     1     -12.455  12.151  70.746  1.00  0.00    -0.362 A  
HETATM   10  C   UNL     1     -13.252  11.561  71.742  1.00  0.00    -0.456 A  
HETATM   11  C   UNL     1     -13.080  10.216  72.095  1.00  0.00    -0.463 A  
BRANCH   9  12
HETATM   12  C   UNL     1     -12.351  13.660  70.663  1.00  0.00    -0.368 C  
BRANCH  12  13
HETATM   13  N   UNL     1     -11.189  14.184  69.980  1.00  0.00    -0.471 N  
HETATM   14  H   UNL     1     -10.252  14.016  70.345  1.00  0.00     0.000 HD 
BRANCH  13  15
HETATM   15  C   UNL     1     -11.372  14.912  68.830  1.00  0.00    -0.283 C  
HETATM   16  O   UNL     1     -12.337  15.672  68.716  1.00  0.00    -0.107 OA 
BRANCH  15  17
HETATM   17  N   UNL     1     -10.404  14.776  67.828  1.00  0.00    -0.243 N  
BRANCH  17  18
HETATM   18  C   UNL     1      -9.338  15.818  67.853  1.00  0.00    -0.200 C  
BRANCH  18  19
HETATM   19  C   UNL     1      -9.822  17.265  67.719  1.00  0.00    -0.281 A  
HETATM   20  C   UNL     1     -10.057  20.028  67.432  1.00  0.00    -0.428 A  
HETATM   21  C   UNL     1     -10.178  17.819  66.480  1.00  0.00    -0.358 A  
HETATM   22  C   UNL     1     -10.261  19.205  66.332  1.00  0.00    -0.515 A  
HETATM   23  F   UNL     1     -10.014  21.359  67.263  1.00  0.00    -0.509 F  
HETATM   24  C   UNL     1      -9.855  19.493  68.696  1.00  0.00    -0.530 A  
HETATM   25  C   UNL     1      -9.761  18.109  68.847  1.00  0.00    -0.283 A  
ENDBRANCH  18  19
ENDBRANCH  17  18
BRANCH  17  26
HETATM   26  C   UNL     1     -10.499  13.835  66.650  1.00  0.00    -0.272 C  
HETATM   27  C   UNL     1     -11.792  13.008  66.535  1.00  0.00    -0.464 C  
HETATM   28  C   UNL     1     -10.172  14.439  65.248  1.00  0.00    -0.416 C  
HETATM   29  C   UNL     1     -12.343  12.785  63.649  1.00  0.00    -0.463 C  
HETATM   30  C   UNL     1     -12.898  13.752  65.805  1.00  0.00    -0.379 C  
HETATM   31  N   UNL     1     -12.531  14.016  64.417  1.00  0.00    -0.669 NA 
HETATM   32  C   UNL     1     -11.361  14.891  64.389  1.00  0.00    -0.201 C  
ENDBRANCH  17  26
ENDBRANCH  15  17
ENDBRANCH  13  15
ENDBRANCH  12  13
ENDBRANCH   9  12
ENDBRANCH   5   6
ENDBRANCH   4   5
TORSDOF 9
ENDMDL
MODEL        3
REMARK 921   NORMALIZED FREE ENERGY PREDICTED BY IDOCK:   -7.36 KCAL/MOL
REMARK 922        TOTAL FREE ENERGY PREDICTED BY IDOCK:  -12.70 KCAL/MOL
REMARK 923 INTER-LIGAND FREE ENERGY PREDICTED BY IDOCK:  -11.34 KCAL/MOL
REMARK 924 INTRA-LIGAND FREE ENERGY PREDICTED BY IDOCK:   -1.36 KCAL/MOL
REMARK 927      BINDING AFFINITY PREDICTED BY RF-SCORE:    0.00 PKD
ROOT
HETATM    1  C   UNL     1     -12.355   6.960  71.266  1.00  0.00    -0.422 C  
HETATM    2  C   UNL     1     -12.038   8.049  72.292  1.00  0.00    -0.392 C  
HETATM    3  C   UNL     1     -10.653   8.636  72.029  1.00  0.00    -0.421 C  
HETATM    4  C   UNL     1     -13.138   9.126  72.348  1.00  0.00    -0.423 C  
ENDROOT
BRANCH   4   5
HETATM    5  O   UNL     1     -13.284   9.843  71.113  1.00  0.00    -0.377 OA 
BRANCH   5   6
HETATM    6  C   UNL     1     -12.887  11.158  71.157  1.00  0.00    -0.374 A  
HETATM    7  C   UNL     1     -13.316  12.093  72.103  1.00  0.00    -0.438 A  
HETATM    8  C   UNL     1     -13.043  13.464  71.928  1.00  0.00    -0.476 A  
HETATM    9  C   UNL     1     -12.311  13.908  70.821  1.00  0.00    -0.449 A  
HETATM   10  C   UNL     1     -11.739  12.941  69.977  1.00  0.00    -0.284 A  
HETATM   11  C   UNL     1     -12.027  11.580  70.144  1.00  0.00    -0.452 A  
BRANCH   9  12
HETATM   12  C   UNL     1     -12.337  15.360  70.391  1.00  0.00    -0.402 C  
BRANCH  12  13
HETATM   13  N   UNL     1     -12.083  15.617  68.991  1.00  0.00    -0.583 N  
HETATM   14  H   UNL     1     -12.847  15.612  68.315  1.00  0.00     0.000 HD 
BRANCH  13  15
HETATM   15  C   UNL     1     -10.795  15.867  68.589  1.00  0.00    -0.291 C  
HETATM   16  O   UNL     1      -9.878  15.912  69.413  1.00  0.00    -0.251 OA 
BRANCH  15  17
HETATM   17  N   UNL     1     -10.575  16.032  67.215  1.00  0.00    -0.313 N  
BRANCH  17  18
HETATM   18  C   UNL     1     -10.803  17.417  66.716  1.00  0.00     0.024 C  
BRANCH  18  19
HETATM   19  C   UNL     1      -9.588  18.349  66.764  1.00  0.00    -0.308 A  
HETATM   20  C   UNL     1      -7.479  20.015  67.502  1.00  0.00    -0.287 A  
HETATM   21  C   UNL     1      -8.275  17.857  66.789  1.00  0.00    -0.273 A  
HETATM   22  C   UNL     1      -7.225  18.686  67.192  1.00  0.00    -0.216 A  
HETATM   23  F   UNL     1      -6.494  20.776  68.007  1.00  0.00    -0.299 F  
HETATM   24  C   UNL     1      -8.745  20.558  67.337  1.00  0.00    -0.373 A  
HETATM   25  C   UNL     1      -9.798  19.732  66.944  1.00  0.00    -0.520 A  
ENDBRANCH  18  19
ENDBRANCH  17  18
BRANCH  17  26
HETATM   26  C   UNL     1     -10.366  14.908  66.228  1.00  0.00    -0.294 C  
HETATM   27  C   UNL     1     -10.903  13.524  66.639  1.00  0.00    -0.283 C  
HETATM   28  C   UNL     1     -10.795  15.187  64.753  1.00  0.00    -0.378 C  
HETATM   29  C   UNL     1     -11.866  12.272  64.152  1.00  0.00    -0.419 C  
HETATM   30  C   UNL     1     -12.366  13.335  66.275  1.00  0.00    -0.317 C  
HETATM   31  N   UNL     1     -12.561  13.367  64.830  1.00  0.00    -0.637 NA 
HETATM   32  C   UNL     1     -12.180  14.684  64.324  1.00  0.00    -0.408 C  
ENDBRANCH  17  26
ENDBRANCH  15  17
ENDBRANCH  13  15
ENDBRANCH  12  13
ENDBRANCH   9  12
ENDBRANCH   5   6
ENDBRANCH   4   5
TORSDOF 9
ENDMDL
MODEL        4
REMARK 921   NORMALIZED FREE ENERGY PREDICTED BY IDOCK:   -7.30 KCAL/MOL
REMARK 922        TOTAL FREE ENERGY PREDICTED BY IDOCK:  -12.61 KCAL/MOL
REMARK 923 INTER-LIGAND FREE ENERGY PREDICTED BY IDOCK:  -10.41 KCAL/MOL
REMARK 924 INTRA-LIGAND FREE ENERGY PREDICTED BY IDOCK:   -2.21 KCAL/MOL
REMARK 927      BINDING AFFINITY PREDICTED BY RF-SCORE:    0.00 PKD
ROOT
HETATM    1  C   UNL     1     -12.249   6.931  71.383  1.00  0.00    -0.418 C  
HETATM    2  C   UNL     1     -11.905   8.061  72.355  1.00  0.00    -0.429 C  
HETATM    3  C   UNL     1     -10.510   8.606  72.059  1.00  0.00    -0.422 C  
HETATM    4  C   UNL     1     -12.983   9.162  72.364  1.00  0.00    -0.398 C  
ENDROOT
BRANCH   4   5
HETATM    5  O   UNL     1     -13.119   9.822  71.097  1.00  0.00    -0.363 OA 
BRANCH   5   6
HETATM    6  C   UNL     1     -12.780  11.153  71.098  1.00  0.00    -0.408 A  
HETATM    7  C   UNL     1     -13.249  12.099  72.015  1.00  0.00    -0.496 A  
HETATM    8  C   UNL     1     -13.036  13.474  71.796  1.00  0.00    -0.439 A  
HETATM    9  C   UNL     1     -12.323  13.914  70.675  1.00  0.00    -0.451 A  
HETATM   10  C   UNL     1     -11.710  12.947  69.861  1.00  0.00    -0.324 A  
HETATM   11  C   UNL     1     -11.939  11.581  70.072  1.00  0.00    -0.435 A  
BRANCH   9  12
HETATM   12  C   UNL     1     -12.412  15.350  70.200  1.00  0.00    -0.335 C  
BRANCH  12  13
HETATM   13  N   UNL     1     -12.381  15.552  68.768  1.00  0.00    -0.556 N  
HETATM   14  H   UNL     1     -13.161  15.252  68.184  1.00  0.00     0.000 HD 
BRANCH  13  15
HETATM   15  C   UNL     1     -11.280  16.155  68.211  1.00  0.00    -0.343 C  
HETATM   16  O   UNL     1     -10.862  17.228  68.652  1.00  0.00    -0.307 OA 
BRANCH  15  17
HETATM   17  N   UNL     1     -10.648  15.481  67.158  1.00  0.00    -0.296 N  
BRANCH  17  18
HETATM   18  C   UNL     1     -11.569  15.020  66.081  1.00  0.00    -0.159 C  
BRANCH  18  19
HETATM   19  C   UNL     1     -11.353  13.584  65.593  1.00  0.00    -0.312 A  
HETATM   20  C   UNL     1     -10.332  11.095  64.863  1.00  0.00    -0.313 A  
HETATM   21  C   UNL     1     -11.515  12.478  66.440  1.00  0.00    -0.418 A  
HETATM   22  C   UNL     1     -10.972  11.241  66.087  1.00  0.00    -0.252 A  
HETATM   23  F   UNL     1      -9.704   9.942  64.579  1.00  0.00    -0.344 F  
HETATM   24  C   UNL     1     -10.296  12.136  63.947  1.00  0.00    -0.441 A  
HETATM   25  C   UNL     1     -10.828  13.377  64.300  1.00  0.00    -0.383 A  
ENDBRANCH  18  19
ENDBRANCH  17  18
BRANCH  17  26
HETATM   26  C   UNL     1      -9.212  15.014  67.163  1.00  0.00    -0.216 C  
HETATM   27  C   UNL     1      -8.183  15.951  66.503  1.00  0.00    -0.307 C  
HETATM   28  C   UNL     1      -8.638  14.537  68.534  1.00  0.00    -0.175 C  
HETATM   29  C   UNL     1      -5.724  15.688  68.105  1.00  0.00    -0.126 C  
HETATM   30  C   UNL     1      -7.657  17.007  67.462  1.00  0.00    -0.165 C  
HETATM   31  N   UNL     1      -6.918  16.400  68.563  1.00  0.00    -0.147 NA 
HETATM   32  C   UNL     1      -7.822  15.556  69.341  1.00  0.00    -0.231 C  
ENDBRANCH  17  26
ENDBRANCH  15  17
ENDBRANCH  13  15
ENDBRANCH  12  13
ENDBRANCH   9  12
ENDBRANCH   5   6
ENDBRANCH   4   5
TORSDOF 9
ENDMDL
MODEL        5
REMARK 921   NORMALIZED FREE ENERGY PREDICTED BY IDOCK:   -7.30 KCAL/MOL
REMARK 922        TOTAL FREE ENERGY PREDICTED BY IDOCK:  -12.61 KCAL/MOL
REMARK 923 INTER-LIGAND FREE ENERGY PREDICTED BY IDOCK:  -10.88 KCAL/MOL
REMARK 924 INTRA-LIGAND FREE ENERGY PREDICTED BY IDOCK:   -1.73 KCAL/MOL
REMARK 927      BINDING AFFINITY PREDICTED BY RF-SCORE:    0.00 PKD
ROOT
HETATM    1  C   UNL     1     -11.250   5.068  73.164  1.00  0.00    -0.408 C  
HETATM    2  C   UNL     1     -10.435   5.989  72.255  1.00  0.00    -0.241 C  
HETATM    3  C   UNL     1     -10.774   5.720  70.790  1.00  0.00    -0.342 C  
HETATM    4  C   UNL     1     -10.599   7.471  72.639  1.00  0.00    -0.286 C  
ENDROOT
BRANCH   4   5
HETATM    5  O   UNL     1     -11.946   7.942  72.494  1.00  0.00    -0.340 OA 
BRANCH   5   6
HETATM    6  C   UNL     1     -12.081   9.094  71.757  1.00  0.00    -0.376 A  
HETATM    7  C   UNL     1     -11.194   9.517  70.762  1.00  0.00    -0.383 A  
HETATM    8  C   UNL     1     -11.285  10.818  70.230  1.00  0.00    -0.326 A  
HETATM    9  C   UNL     1     -12.283  11.697  70.665  1.00  0.00    -0.461 A  
HETATM   10  C   UNL     1     -13.270  11.198  71.532  1.00  0.00    -0.380 A  
HETATM   11  C   UNL     1     -13.166   9.909  72.073  1.00  0.00    -0.555 A  
BRANCH   9  12
HETATM   12  C   UNL     1     -12.177  13.188  70.425  1.00  0.00    -0.316 C  
BRANCH  12  13
HETATM   13  N   UNL     1     -11.191  13.611  69.455  1.00  0.00    -0.423 N  
HETATM   14  H   UNL     1     -10.360  13.046  69.279  1.00  0.00     0.000 HD 
BRANCH  13  15
HETATM   15  C   UNL     1     -11.394  14.787  68.777  1.00  0.00    -0.282 C  
HETATM   16  O   UNL     1     -11.590  15.840  69.391  1.00  0.00    -0.326 OA 
BRANCH  15  17
HETATM   17  N   UNL     1     -11.334  14.736  67.379  1.00  0.00    -0.340 N  
BRANCH  17  18
HETATM   18  C   UNL     1     -12.389  13.896  66.746  1.00  0.00    -0.330 C  
BRANCH  18  19
HETATM   19  C   UNL     1     -11.885  12.747  65.867  1.00  0.00    -0.490 A  
HETATM   20  C   UNL     1     -10.575  11.125  64.016  1.00  0.00    -0.368 A  
HETATM   21  C   UNL     1     -10.856  11.889  66.283  1.00  0.00    -0.323 A  
HETATM   22  C   UNL     1     -10.180  11.103  65.347  1.00  0.00    -0.327 A  
HETATM   23  F   UNL     1      -9.848  10.467  63.099  1.00  0.00    -0.331 F  
HETATM   24  C   UNL     1     -11.687  11.851  63.613  1.00  0.00    -0.572 A  
HETATM   25  C   UNL     1     -12.359  12.645  64.543  1.00  0.00    -0.537 A  
ENDBRANCH  18  19
ENDBRANCH  17  18
BRANCH  17  26
HETATM   26  C   UNL     1     -10.192  15.256  66.539  1.00  0.00    -0.275 C  
HETATM   27  C   UNL     1     -10.268  16.735  66.116  1.00  0.00    -0.363 C  
HETATM   28  C   UNL     1      -8.751  14.968  67.065  1.00  0.00    -0.262 C  
HETATM   29  C   UNL     1      -7.490  17.717  66.142  1.00  0.00    -0.287 C  
HETATM   30  C   UNL     1      -9.691  17.673  67.164  1.00  0.00    -0.291 C  
HETATM   31  N   UNL     1      -8.264  17.440  67.353  1.00  0.00    -0.199 NA 
HETATM   32  C   UNL     1      -8.062  16.084  67.861  1.00  0.00    -0.141 C  
ENDBRANCH  17  26
ENDBRANCH  15  17
ENDBRANCH  13  15
ENDBRANCH  12  13
ENDBRANCH   9  12
ENDBRANCH   5   6
ENDBRANCH   4   5
TORSDOF 9
ENDMDL
MODEL        6
REMARK 921   NORMALIZED FREE ENERGY PREDICTED BY IDOCK:   -7.25 KCAL/MOL
REMARK 922        TOTAL FREE ENERGY PREDICTED BY IDOCK:  -12.53 KCAL/MOL
REMARK 923 INTER-LIGAND FREE ENERGY PREDICTED BY IDOCK:  -10.74 KCAL/MOL
REMARK 924 INTRA-LIGAND FREE ENERGY PREDICTED BY IDOCK:   -1.79 KCAL/MOL
REMARK 927      BINDING AFFINITY PREDICTED BY RF-SCORE:    0.00 PKD
ROOT
HETATM    1  C   UNL     1     -13.043  10.118  71.581  1.00  0.00    -0.550 C  
HETATM    2  C   UNL     1     -13.146   8.735  72.225  1.00  0.00    -0.458 C  
HETATM    3  C   UNL     1     -14.391   8.009  71.722  1.00  0.00    -0.583 C  
HETATM    4  C   UNL     1     -11.859   7.911  72.029  1.00  0.00    -0.318 C  
ENDROOT
BRANCH   4   5
HETATM    5  O   UNL     1     -11.576   7.633  70.650  1.00  0.00    -0.285 OA 
BRANCH   5   6
HETATM    6  C   UNL     1     -10.605   8.425  70.087  1.00  0.00    -0.233 A  
HETATM    7  C   UNL     1      -9.507   8.955  70.771  1.00  0.00    -0.280 A  
HETATM    8  C   UNL     1      -8.700   9.942  70.172  1.00  0.00    -0.142 A  
HETATM    9  C   UNL     1      -8.966  10.386  68.872  1.00  0.00    -0.170 A  
HETATM   10  C   UNL     1      -9.961   9.719  68.137  1.00  0.00    -0.179 A  
HETATM   11  C   UNL     1     -10.772   8.750  68.742  1.00  0.00    -0.111 A  
BRANCH   9  12
HETATM   12  C   UNL     1      -8.393  11.689  68.352  1.00  0.00    -0.157 C  
BRANCH  12  13
HETATM   13  N   UNL     1      -9.130  12.888  68.685  1.00  0.00    -0.396 N  
HETATM   14  H   UNL     1      -9.447  13.055  69.640  1.00  0.00     0.000 HD 
BRANCH  13  15
HETATM   15  C   UNL     1      -9.396  13.796  67.690  1.00  0.00    -0.213 C  
HETATM   16  O   UNL     1      -8.475  14.344  67.079  1.00  0.00    -0.213 OA 
BRANCH  15  17
HETATM   17  N   UNL     1     -10.742  14.036  67.388  1.00  0.00    -0.281 N  
BRANCH  17  18
HETATM   18  C   UNL     1     -11.348  15.175  68.135  1.00  0.00    -0.335 C  
BRANCH  18  19
HETATM   19  C   UNL     1     -11.605  14.931  69.625  1.00  0.00    -0.337 A  
HETATM   20  C   UNL     1     -12.618  14.840  72.221  1.00  0.00    -0.335 A  
HETATM   21  C   UNL     1     -12.262  13.781  70.087  1.00  0.00    -0.425 A  
HETATM   22  C   UNL     1     -12.798  13.753  71.377  1.00  0.00    -0.449 A  
HETATM   23  F   UNL     1     -13.237  14.863  73.412  1.00  0.00    -0.531 F  
HETATM   24  C   UNL     1     -11.841  15.923  71.835  1.00  0.00    -0.595 A  
HETATM   25  C   UNL     1     -11.312  15.960  70.544  1.00  0.00    -0.409 A  
ENDBRANCH  18  19
ENDBRANCH  17  18
BRANCH  17  26
HETATM   26  C   UNL     1     -11.629  13.119  66.580  1.00  0.00    -0.356 C  
HETATM   27  C   UNL     1     -12.650  13.797  65.648  1.00  0.00    -0.551 C  
HETATM   28  C   UNL     1     -10.915  11.981  65.786  1.00  0.00    -0.351 C  
HETATM   29  C   UNL     1     -12.823  12.073  63.265  1.00  0.00    -0.190 C  
HETATM   30  C   UNL     1     -12.062  14.138  64.288  1.00  0.00    -0.444 C  
HETATM   31  N   UNL     1     -11.677  12.933  63.562  1.00  0.00    -0.514 NA 
HETATM   32  C   UNL     1     -10.622  12.243  64.302  1.00  0.00    -0.354 C  
ENDBRANCH  17  26
ENDBRANCH  15  17
ENDBRANCH  13  15
ENDBRANCH  12  13
ENDBRANCH   9  12
ENDBRANCH   5   6
ENDBRANCH   4   5
TORSDOF 9
ENDMDL
MODEL        7
REMARK 921   NORMALIZED FREE ENERGY PREDICTED BY IDOCK:   -7.24 KCAL/MOL
REMARK 922        TOTAL FREE ENERGY PREDICTED BY IDOCK:  -12.52 KCAL/MOL
REMARK 923 INTER-LIGAND FREE ENERGY PREDICTED BY IDOCK:  -10.86 KCAL/MOL
REMARK 924 INTRA-LIGAND FREE ENERGY PREDICTED BY IDOCK:   -1.66 KCAL/MOL
REMARK 927      BINDING AFFINITY PREDICTED BY RF-SCORE:    0.00 PKD
ROOT
HETATM    1  C   UNL     1     -10.661   6.518  68.977  1.00  0.00    -0.286 C  
HETATM    2  C   UNL     1     -11.283   5.919  70.240  1.00  0.00    -0.317 C  
HETATM    3  C   UNL     1     -10.206   5.256  71.096  1.00  0.00    -0.294 C  
HETATM    4  C   UNL     1     -12.108   6.958  71.024  1.00  0.00    -0.380 C  
ENDROOT
BRANCH   4   5
HETATM    5  O   UNL     1     -11.316   8.051  71.510  1.00  0.00    -0.248 OA 
BRANCH   5   6
HETATM    6  C   UNL     1     -11.760   9.297  71.140  1.00  0.00    -0.325 A  
HETATM    7  C   UNL     1     -11.313  10.008  70.021  1.00  0.00    -0.334 A  
HETATM    8  C   UNL     1     -11.649  11.365  69.856  1.00  0.00    -0.402 A  
HETATM    9  C   UNL     1     -12.461  12.017  70.791  1.00  0.00    -0.372 A  
HETATM   10  C   UNL     1     -13.044  11.245  71.811  1.00  0.00    -0.527 A  
HETATM   11  C   UNL     1     -12.693   9.899  71.982  1.00  0.00    -0.456 A  
BRANCH   9  12
HETATM   12  C   UNL     1     -12.517  13.529  70.868  1.00  0.00    -0.369 C  
BRANCH  12  13
HETATM   13  N   UNL     1     -11.376  14.238  70.332  1.00  0.00    -0.485 N  
HETATM   14  H   UNL     1     -10.428  13.900  70.499  1.00  0.00     0.000 HD 
BRANCH  13  15
HETATM   15  C   UNL     1     -11.593  15.375  69.593  1.00  0.00    -0.331 C  
HETATM   16  O   UNL     1     -12.603  16.058  69.777  1.00  0.00    -0.142 OA 
BRANCH  15  17
HETATM   17  N   UNL     1     -10.608  15.729  68.663  1.00  0.00    -0.241 N  
BRANCH  17  18
HETATM   18  C   UNL     1     -10.081  14.590  67.859  1.00  0.00    -0.227 C  
BRANCH  18  19
HETATM   19  C   UNL     1     -10.962  14.137  66.691  1.00  0.00    -0.303 A  
HETATM   20  C   UNL     1     -12.000  13.343  64.229  1.00  0.00    -0.430 A  
HETATM   21  C   UNL     1     -11.222  12.782  66.438  1.00  0.00    -0.339 A  
HETATM   22  C   UNL     1     -11.710  12.385  65.192  1.00  0.00    -0.430 A  
HETATM   23  F   UNL     1     -12.351  12.953  62.993  1.00  0.00    -0.583 F  
HETATM   24  C   UNL     1     -11.894  14.696  64.514  1.00  0.00    -0.442 A  
HETATM   25  C   UNL     1     -11.397  15.098  65.755  1.00  0.00    -0.238 A  
ENDBRANCH  18  19
ENDBRANCH  17  18
BRANCH  17  26
HETATM   26  C   UNL     1      -9.920  17.072  68.594  1.00  0.00    -0.294 C  
HETATM   27  C   UNL     1      -8.468  17.074  68.082  1.00  0.00    -0.227 C  
HETATM   28  C   UNL     1     -10.699  18.218  67.876  1.00  0.00    -0.335 C  
HETATM   29  C   UNL     1      -8.169  19.569  66.543  1.00  0.00    -0.318 C  
HETATM   30  C   UNL     1      -8.385  17.151  66.566  1.00  0.00    -0.274 C  
HETATM   31  N   UNL     1      -8.929  18.411  66.070  1.00  0.00    -0.494 NA 
HETATM   32  C   UNL     1     -10.349  18.485  66.406  1.00  0.00    -0.423 C  
ENDBRANCH  17  26
ENDBRANCH  15  17
ENDBRANCH  13  15
ENDBRANCH  12  13
ENDBRANCH   9  12
ENDBRANCH   5   6
ENDBRANCH   4   5
TORSDOF 9
ENDMDL
MODEL        8
REMARK 921   NORMALIZED FREE ENERGY PREDICTED BY IDOCK:   -7.22 KCAL/MOL
REMARK 922        TOTAL FREE ENERGY PREDICTED BY IDOCK:  -12.49 KCAL/MOL
REMARK 923 INTER-LIGAND FREE ENERGY PREDICTED BY IDOCK:  -10.83 KCAL/MOL
REMARK 924 INTRA-LIGAND FREE ENERGY PREDICTED BY IDOCK:   -1.66 KCAL/MOL
REMARK 927      BINDING AFFINITY PREDICTED BY RF-SCORE:    0.00 PKD
ROOT
HETATM    1  C   UNL     1     -12.281   6.915  71.493  1.00  0.00    -0.415 C  
HETATM    2  C   UNL     1     -11.924   8.076  72.424  1.00  0.00    -0.405 C  
HETATM    3  C   UNL     1     -10.549   8.636  72.066  1.00  0.00    -0.421 C  
HETATM    4  C   UNL     1     -13.020   9.158  72.442  1.00  0.00    -0.398 C  
ENDROOT
BRANCH   4   5
HETATM    5  O   UNL     1     -13.212   9.782  71.164  1.00  0.00    -0.371 OA 
BRANCH   5   6
HETATM    6  C   UNL     1     -12.857  11.108  71.109  1.00  0.00    -0.374 A  
HETATM    7  C   UNL     1     -13.335  12.102  71.968  1.00  0.00    -0.470 A  
HETATM    8  C   UNL     1     -13.101  13.463  71.688  1.00  0.00    -0.463 A  
HETATM    9  C   UNL     1     -12.359  13.840  70.562  1.00  0.00    -0.429 A  
HETATM   10  C   UNL     1     -11.739  12.828  69.810  1.00  0.00    -0.352 A  
HETATM   11  C   UNL     1     -11.989  11.476  70.082  1.00  0.00    -0.452 A  
BRANCH   9  12
HETATM   12  C   UNL     1     -12.420  15.252  70.017  1.00  0.00    -0.293 C  
BRANCH  12  13
HETATM   13  N   UNL     1     -12.306  15.387  68.581  1.00  0.00    -0.527 N  
HETATM   14  H   UNL     1     -13.060  15.078  67.968  1.00  0.00     0.000 HD 
BRANCH  13  15
HETATM   15  C   UNL     1     -11.162  15.940  68.060  1.00  0.00    -0.319 C  
HETATM   16  O   UNL     1     -10.975  17.158  68.109  1.00  0.00    -0.361 OA 
BRANCH  15  17
HETATM   17  N   UNL     1     -10.221  15.060  67.511  1.00  0.00    -0.233 N  
BRANCH  17  18
HETATM   18  C   UNL     1      -8.974  14.912  68.313  1.00  0.00    -0.177 C  
BRANCH  18  19
HETATM   19  C   UNL     1      -7.893  15.968  68.061  1.00  0.00    -0.142 A  
HETATM   20  C   UNL     1      -6.443  18.266  67.439  1.00  0.00    -0.185 A  
HETATM   21  C   UNL     1      -7.410  16.797  69.084  1.00  0.00    -0.213 A  
HETATM   22  C   UNL     1      -6.713  17.965  68.767  1.00  0.00    -0.240 A  
HETATM   23  F   UNL     1      -5.884  19.447  67.128  1.00  0.00    -0.173 F  
HETATM   24  C   UNL     1      -6.779  17.383  66.423  1.00  0.00    -0.297 A  
HETATM   25  C   UNL     1      -7.484  16.219  66.734  1.00  0.00    -0.266 A  
ENDBRANCH  18  19
ENDBRANCH  17  18
BRANCH  17  26
HETATM   26  C   UNL     1     -10.288  14.471  66.122  1.00  0.00    -0.297 C  
HETATM   27  C   UNL     1     -10.518  12.951  66.031  1.00  0.00    -0.290 C  
HETATM   28  C   UNL     1     -11.246  15.177  65.111  1.00  0.00    -0.392 C  
HETATM   29  C   UNL     1     -12.206  12.541  63.651  1.00  0.00    -0.550 C  
HETATM   30  C   UNL     1     -11.991  12.580  66.068  1.00  0.00    -0.392 C  
HETATM   31  N   UNL     1     -12.699  13.108  64.907  1.00  0.00    -0.697 NA 
HETATM   32  C   UNL     1     -12.644  14.568  64.934  1.00  0.00    -0.234 C  
ENDBRANCH  17  26
ENDBRANCH  15  17
ENDBRANCH  13  15
ENDBRANCH  12  13
ENDBRANCH   9  12
ENDBRANCH   5   6
ENDBRANCH   4   5
TORSDOF 9
ENDMDL
MODEL        9
REMARK 921   NORMALIZED FREE ENERGY PREDICTED BY IDOCK:   -7.18 KCAL/MOL
REMARK 922        TOTAL FREE ENERGY PREDICTED BY IDOCK:  -12.42 KCAL/MOL
REMARK 923 INTER-LIGAND FREE ENERGY PREDICTED BY IDOCK:  -10.92 KCAL/MOL
REMARK 924 INTRA-LIGAND FREE ENERGY PREDICTED BY IDOCK:   -1.50 KCAL/MOL
REMARK 927      BINDING AFFINITY PREDICTED BY RF-SCORE:    0.00 PKD
ROOT
HETATM    1  C   UNL     1      -9.322   6.505  70.874  1.00  0.00    -0.165 C  
HETATM    2  C   UNL     1     -10.662   6.084  71.479  1.00  0.00    -0.309 C  
HETATM    3  C   UNL     1     -10.478   5.677  72.939  1.00  0.00    -0.246 C  
HETATM    4  C   UNL     1     -11.743   7.166  71.296  1.00  0.00    -0.306 C  
ENDROOT
BRANCH   4   5
HETATM    5  O   UNL     1     -11.427   8.392  71.971  1.00  0.00    -0.301 OA 
BRANCH   5   6
HETATM    6  C   UNL     1     -11.704   9.534  71.257  1.00  0.00    -0.370 A  
HETATM    7  C   UNL     1     -11.053   9.921  70.082  1.00  0.00    -0.353 A  
HETATM    8  C   UNL     1     -11.240  11.215  69.555  1.00  0.00    -0.341 A  
HETATM    9  C   UNL     1     -12.103  12.121  70.182  1.00  0.00    -0.368 A  
HETATM   10  C   UNL     1     -12.881  11.657  71.256  1.00  0.00    -0.430 A  
HETATM   11  C   UNL     1     -12.680  10.376  71.788  1.00  0.00    -0.525 A  
BRANCH   9  12
HETATM   12  C   UNL     1     -12.030  13.606  69.892  1.00  0.00    -0.348 C  
BRANCH  12  13
HETATM   13  N   UNL     1     -10.774  14.093  69.366  1.00  0.00    -0.420 N  
HETATM   14  H   UNL     1      -9.892  13.850  69.817  1.00  0.00     0.000 HD 
BRANCH  13  15
HETATM   15  C   UNL     1     -10.792  14.889  68.247  1.00  0.00    -0.257 C  
HETATM   16  O   UNL     1     -11.667  15.746  68.101  1.00  0.00    -0.316 OA 
BRANCH  15  17
HETATM   17  N   UNL     1      -9.764  14.702  67.315  1.00  0.00    -0.228 N  
BRANCH  17  18
HETATM   18  C   UNL     1      -8.512  15.452  67.619  1.00  0.00    -0.162 C  
BRANCH  18  19
HETATM   19  C   UNL     1      -8.604  16.976  67.493  1.00  0.00    -0.212 A  
HETATM   20  C   UNL     1      -9.404  19.645  67.417  1.00  0.00    -0.326 A  
HETATM   21  C   UNL     1      -8.319  17.830  68.568  1.00  0.00    -0.298 A  
HETATM   22  C   UNL     1      -8.751  19.157  68.541  1.00  0.00    -0.401 A  
HETATM   23  F   UNL     1      -9.927  20.882  67.441  1.00  0.00    -0.598 F  
HETATM   24  C   UNL     1      -9.560  18.860  66.285  1.00  0.00    -0.344 A  
HETATM   25  C   UNL     1      -9.139  17.530  66.311  1.00  0.00    -0.221 A  
ENDBRANCH  18  19
ENDBRANCH  17  18
BRANCH  17  26
HETATM   26  C   UNL     1      -9.917  14.019  65.977  1.00  0.00    -0.315 C  
HETATM   27  C   UNL     1     -10.517  12.601  65.995  1.00  0.00    -0.288 C  
HETATM   28  C   UNL     1     -10.622  14.840  64.851  1.00  0.00    -0.431 C  
HETATM   29  C   UNL     1     -12.150  12.395  63.550  1.00  0.00    -0.558 C  
HETATM   30  C   UNL     1     -12.037  12.610  65.965  1.00  0.00    -0.364 C  
HETATM   31  N   UNL     1     -12.538  13.183  64.721  1.00  0.00    -0.644 NA 
HETATM   32  C   UNL     1     -12.119  14.580  64.633  1.00  0.00    -0.473 C  
ENDBRANCH  17  26
ENDBRANCH  15  17
ENDBRANCH  13  15
ENDBRANCH  12  13
ENDBRANCH   9  12
ENDBRANCH   5   6
ENDBRANCH   4   5
TORSDOF 9
ENDMDL
MODEL       10
REMARK 921   NORMALIZED FREE ENERGY PREDICTED BY IDOCK:   -7.16 KCAL/MOL
REMARK 922        TOTAL FREE ENERGY PREDICTED BY IDOCK:  -12.40 KCAL/MOL
REMARK 923 INTER-LIGAND FREE ENERGY PREDICTED BY IDOCK:  -10.10 KCAL/MOL
REMARK 924 INTRA-LIGAND FREE ENERGY PREDICTED BY IDOCK:   -2.30 KCAL/MOL
REMARK 927      BINDING AFFINITY PREDICTED BY RF-SCORE:    0.00 PKD
ROOT
HETATM    1  C   UNL     1     -14.405   8.356  71.963  1.00  0.00    -0.555 C  
HETATM    2  C   UNL     1     -12.877   8.416  71.997  1.00  0.00    -0.389 C  
HETATM    3  C   UNL     1     -12.285   7.335  71.096  1.00  0.00    -0.376 C  
HETATM    4  C   UNL     1     -12.348   9.824  71.661  1.00  0.00    -0.408 C  
ENDROOT
BRANCH   4   5
HETATM    5  O   UNL     1     -12.684  10.245  70.332  1.00  0.00    -0.273 OA 
BRANCH   5   6
HETATM    6  C   UNL     1     -11.607  10.500  69.516  1.00  0.00    -0.260 A  
HETATM    7  C   UNL     1     -10.269  10.302  69.870  1.00  0.00    -0.250 A  
HETATM    8  C   UNL     1      -9.234  10.811  69.062  1.00  0.00    -0.157 A  
HETATM    9  C   UNL     1      -9.526  11.495  67.877  1.00  0.00    -0.178 A  
HETATM   10  C   UNL     1     -10.864  11.531  67.448  1.00  0.00    -0.294 A  
HETATM   11  C   UNL     1     -11.892  11.039  68.262  1.00  0.00    -0.221 A  
BRANCH   9  12
HETATM   12  C   UNL     1      -8.497  12.381  67.205  1.00  0.00    -0.183 C  
BRANCH  12  13
HETATM   13  N   UNL     1      -8.934  13.714  66.854  1.00  0.00    -0.315 N  
HETATM   14  H   UNL     1      -9.155  13.950  65.886  1.00  0.00     0.000 HD 
BRANCH  13  15
HETATM   15  C   UNL     1      -9.045  14.656  67.846  1.00  0.00    -0.189 C  
HETATM   16  O   UNL     1      -8.253  14.667  68.792  1.00  0.00    -0.150 OA 
BRANCH  15  17
HETATM   17  N   UNL     1     -10.065  15.606  67.713  1.00  0.00    -0.225 N  
BRANCH  17  18
HETATM   18  C   UNL     1     -11.413  15.127  68.130  1.00  0.00    -0.342 C  
BRANCH  18  19
HETATM   19  C   UNL     1     -11.620  14.955  69.638  1.00  0.00    -0.337 A  
HETATM   20  C   UNL     1     -12.539  15.002  72.270  1.00  0.00    -0.340 A  
HETATM   21  C   UNL     1     -12.279  13.840  70.176  1.00  0.00    -0.425 A  
HETATM   22  C   UNL     1     -12.767  13.880  71.484  1.00  0.00    -0.440 A  
HETATM   23  F   UNL     1     -13.113  15.090  73.480  1.00  0.00    -0.531 F  
HETATM   24  C   UNL     1     -11.759  16.051  71.806  1.00  0.00    -0.593 A  
HETATM   25  C   UNL     1     -11.277  16.020  70.497  1.00  0.00    -0.397 A  
ENDBRANCH  18  19
ENDBRANCH  17  18
BRANCH  17  26
HETATM   26  C   UNL     1      -9.933  16.928  66.994  1.00  0.00    -0.279 C  
HETATM   27  C   UNL     1     -10.657  18.130  67.628  1.00  0.00    -0.424 C  
HETATM   28  C   UNL     1      -8.487  17.370  66.608  1.00  0.00    -0.291 C  
HETATM   29  C   UNL     1      -8.921  20.458  67.133  1.00  0.00    -0.336 C  
HETATM   30  C   UNL     1      -9.818  18.824  68.688  1.00  0.00    -0.392 C  
HETATM   31  N   UNL     1      -8.614  19.411  68.108  1.00  0.00    -0.326 NA 
HETATM   32  C   UNL     1      -7.779  18.346  67.557  1.00  0.00    -0.228 C  
ENDBRANCH  17  26
ENDBRANCH  15  17
ENDBRANCH  13  15
ENDBRANCH  12  13
ENDBRANCH   9  12
ENDBRANCH   5   6
ENDBRANCH   4   5
TORSDOF 9
ENDMDL
MODEL       11
REMARK 921   NORMALIZED FREE ENERGY PREDICTED BY IDOCK:   -7.15 KCAL/MOL
REMARK 922        TOTAL FREE ENERGY PREDICTED BY IDOCK:  -12.38 KCAL/MOL
REMARK 923 INTER-LIGAND FREE ENERGY PREDICTED BY IDOCK:  -10.99 KCAL/MOL
REMARK 924 INTRA-LIGAND FREE ENERGY PREDICTED BY IDOCK:   -1.38 KCAL/MOL
REMARK 927      BINDING AFFINITY PREDICTED BY RF-SCORE:    0.00 PKD
ROOT
HETATM    1  C   UNL     1     -11.402   4.648  73.313  1.00  0.00    -0.393 C  
HETATM    2  C   UNL     1     -10.325   5.652  72.897  1.00  0.00    -0.224 C  
HETATM    3  C   UNL     1      -9.927   5.425  71.441  1.00  0.00    -0.241 C  
HETATM    4  C   UNL     1     -10.753   7.105  73.177  1.00  0.00    -0.346 C  
ENDROOT
BRANCH   4   5
HETATM    5  O   UNL     1     -11.908   7.503  72.426  1.00  0.00    -0.298 OA 
BRANCH   5   6
HETATM    6  C   UNL     1     -11.840   8.764  71.884  1.00  0.00    -0.367 A  
HETATM    7  C   UNL     1     -12.819   9.752  72.028  1.00  0.00    -0.491 A  
HETATM    8  C   UNL     1     -12.773  10.923  71.246  1.00  0.00    -0.542 A  
HETATM    9  C   UNL     1     -11.730  11.131  70.337  1.00  0.00    -0.415 A  
HETATM   10  C   UNL     1     -10.664  10.215  70.333  1.00  0.00    -0.329 A  
HETATM   11  C   UNL     1     -10.722   9.043  71.099  1.00  0.00    -0.358 A  
BRANCH   9  12
HETATM   12  C   UNL     1     -11.849  12.150  69.223  1.00  0.00    -0.313 C  
BRANCH  12  13
HETATM   13  N   UNL     1     -10.835  13.182  69.190  1.00  0.00    -0.428 N  
HETATM   14  H   UNL     1      -9.959  13.066  69.699  1.00  0.00     0.000 HD 
BRANCH  13  15
HETATM   15  C   UNL     1     -11.075  14.319  68.460  1.00  0.00    -0.257 C  
HETATM   16  O   UNL     1     -12.072  15.009  68.683  1.00  0.00    -0.265 OA 
BRANCH  15  17
HETATM   17  N   UNL     1     -10.126  14.667  67.490  1.00  0.00    -0.224 N  
BRANCH  17  18
HETATM   18  C   UNL     1      -9.089  15.629  67.958  1.00  0.00    -0.183 C  
BRANCH  18  19
HETATM   19  C   UNL     1      -9.312  17.091  67.561  1.00  0.00    -0.233 A  
HETATM   20  C   UNL     1      -9.240  19.864  67.280  1.00  0.00    -0.348 A  
HETATM   21  C   UNL     1      -8.652  17.674  66.468  1.00  0.00    -0.287 A  
HETATM   22  C   UNL     1      -8.590  19.064  66.350  1.00  0.00    -0.320 A  
HETATM   23  F   UNL     1      -9.076  21.196  67.236  1.00  0.00    -0.447 F  
HETATM   24  C   UNL     1     -10.023  19.305  68.279  1.00  0.00    -0.497 A  
HETATM   25  C   UNL     1     -10.080  17.916  68.408  1.00  0.00    -0.385 A  
ENDBRANCH  18  19
ENDBRANCH  17  18
BRANCH  17  26
HETATM   26  C   UNL     1     -10.223  14.332  66.020  1.00  0.00    -0.315 C  
HETATM   27  C   UNL     1     -10.260  12.836  65.658  1.00  0.00    -0.292 C  
HETATM   28  C   UNL     1     -11.340  15.064  65.211  1.00  0.00    -0.349 C  
HETATM   29  C   UNL     1     -12.059  12.622  63.334  1.00  0.00    -0.525 C  
HETATM   30  C   UNL     1     -11.665  12.259  65.701  1.00  0.00    -0.382 C  
HETATM   31  N   UNL     1     -12.523  12.880  64.697  1.00  0.00    -0.589 NA 
HETATM   32  C   UNL     1     -12.656  14.305  64.995  1.00  0.00    -0.347 C  
ENDBRANCH  17  26
ENDBRANCH  15  17
ENDBRANCH  13  15
ENDBRANCH  12  13
ENDBRANCH   9  12
ENDBRANCH   5   6
ENDBRANCH   4   5
TORSDOF 9
ENDMDL
MODEL       12
REMARK 921   NORMALIZED FREE ENERGY PREDICTED BY IDOCK:   -7.11 KCAL/MOL
REMARK 922        TOTAL FREE ENERGY PREDICTED BY IDOCK:  -12.32 KCAL/MOL
REMARK 923 INTER-LIGAND FREE ENERGY PREDICTED BY IDOCK:  -10.28 KCAL/MOL
REMARK 924 INTRA-LIGAND FREE ENERGY PREDICTED BY IDOCK:   -2.04 KCAL/MOL
REMARK 927      BINDING AFFINITY PREDICTED BY RF-SCORE:    0.00 PKD
ROOT
HETATM    1  C   UNL     1     -10.408  19.500  65.913  1.00  0.00    -0.562 C  
HETATM    2  C   UNL     1      -9.663  19.109  67.190  1.00  0.00    -0.393 C  
HETATM    3  C   UNL     1     -10.356  19.710  68.411  1.00  0.00    -0.502 C  
HETATM    4  C   UNL     1      -9.475  17.584  67.305  1.00  0.00    -0.253 C  
ENDROOT
BRANCH   4   5
HETATM    5  O   UNL     1     -10.717  16.873  67.395  1.00  0.00    -0.316 OA 
BRANCH   5   6
HETATM    6  C   UNL     1     -10.646  15.539  67.069  1.00  0.00    -0.311 A  
HETATM    7  C   UNL     1     -11.743  14.731  66.757  1.00  0.00    -0.309 A  
HETATM    8  C   UNL     1     -11.597  13.333  66.668  1.00  0.00    -0.408 A  
HETATM    9  C   UNL     1     -10.347  12.733  66.860  1.00  0.00    -0.245 A  
HETATM   10  C   UNL     1      -9.227  13.571  66.996  1.00  0.00    -0.248 A  
HETATM   11  C   UNL     1      -9.378  14.960  67.102  1.00  0.00    -0.227 A  
BRANCH   9  12
HETATM   12  C   UNL     1     -10.222  11.254  67.163  1.00  0.00    -0.201 C  
BRANCH  12  13
HETATM   13  N   UNL     1      -9.994  10.903  68.547  1.00  0.00    -0.175 N  
HETATM   14  H   UNL     1      -9.400  11.484  69.140  1.00  0.00     0.000 HD 
BRANCH  13  15
HETATM   15  C   UNL     1     -10.592   9.774  69.049  1.00  0.00    -0.219 C  
HETATM   16  O   UNL     1     -10.387   8.673  68.532  1.00  0.00    -0.199 OA 
BRANCH  15  17
HETATM   17  N   UNL     1     -11.405   9.931  70.179  1.00  0.00    -0.266 N  
BRANCH  17  18
HETATM   18  C   UNL     1     -12.572  10.836  69.978  1.00  0.00    -0.181 C  
BRANCH  18  19
HETATM   19  C   UNL     1     -12.511  12.173  70.723  1.00  0.00    -0.362 A  
HETATM   20  C   UNL     1     -12.882  14.772  71.659  1.00  0.00    -0.332 A  
HETATM   21  C   UNL     1     -13.240  12.403  71.899  1.00  0.00    -0.486 A  
HETATM   22  C   UNL     1     -13.452  13.709  72.346  1.00  0.00    -0.685 A  
HETATM   23  F   UNL     1     -13.188  16.030  72.016  1.00  0.00    -0.506 F  
HETATM   24  C   UNL     1     -12.033  14.555  70.584  1.00  0.00    -0.387 A  
HETATM   25  C   UNL     1     -11.827  13.252  70.127  1.00  0.00    -0.333 A  
ENDBRANCH  18  19
ENDBRANCH  17  18
BRANCH  17  26
HETATM   26  C   UNL     1     -11.060   9.457  71.570  1.00  0.00    -0.376 C  
HETATM   27  C   UNL     1     -12.065   8.501  72.240  1.00  0.00    -0.455 C  
HETATM   28  C   UNL     1      -9.622   8.883  71.775  1.00  0.00    -0.353 C  
HETATM   29  C   UNL     1     -10.443   6.622  73.828  1.00  0.00    -0.333 C  
HETATM   30  C   UNL     1     -11.819   7.047  71.874  1.00  0.00    -0.305 C  
HETATM   31  N   UNL     1     -10.525   6.589  72.367  1.00  0.00    -0.200 NA 
HETATM   32  C   UNL     1      -9.465   7.358  71.719  1.00  0.00    -0.149 C  
ENDBRANCH  17  26
ENDBRANCH  15  17
ENDBRANCH  13  15
ENDBRANCH  12  13
ENDBRANCH   9  12
ENDBRANCH   5   6
ENDBRANCH   4   5
TORSDOF 9
ENDMDL
MODEL       13
REMARK 921   NORMALIZED FREE ENERGY PREDICTED BY IDOCK:   -7.11 KCAL/MOL
REMARK 922        TOTAL FREE ENERGY PREDICTED BY IDOCK:  -12.31 KCAL/MOL
REMARK 923 INTER-LIGAND FREE ENERGY PREDICTED BY IDOCK:   -9.84 KCAL/MOL
REMARK 924 INTRA-LIGAND FREE ENERGY PREDICTED BY IDOCK:   -2.47 KCAL/MOL
REMARK 927      BINDING AFFINITY PREDICTED BY RF-SCORE:    0.00 PKD
ROOT
HETATM    1  C   UNL     1     -12.501   7.953  71.644  1.00  0.00    -0.344 C  
HETATM    2  C   UNL     1     -11.266   8.406  72.425  1.00  0.00    -0.438 C  
HETATM    3  C   UNL     1     -10.686   7.237  73.219  1.00  0.00    -0.428 C  
HETATM    4  C   UNL     1     -10.222   9.080  71.514  1.00  0.00    -0.344 C  
ENDROOT
BRANCH   4   5
HETATM    5  O   UNL     1      -9.697   8.196  70.514  1.00  0.00    -0.173 OA 
BRANCH   5   6
HETATM    6  C   UNL     1      -9.508   8.766  69.278  1.00  0.00    -0.161 A  
HETATM    7  C   UNL     1      -8.552   9.744  68.985  1.00  0.00    -0.146 A  
HETATM    8  C   UNL     1      -8.590  10.436  67.759  1.00  0.00    -0.122 A  
HETATM    9  C   UNL     1      -9.564  10.133  66.800  1.00  0.00    -0.222 A  
HETATM   10  C   UNL     1     -10.404   9.031  67.038  1.00  0.00    -0.339 A  
HETATM   11  C   UNL     1     -10.375   8.357  68.266  1.00  0.00    -0.244 A  
BRANCH   9  12
HETATM   12  C   UNL     1      -9.883  11.092  65.672  1.00  0.00    -0.239 C  
BRANCH  12  13
HETATM   13  N   UNL     1      -9.483  12.467  65.870  1.00  0.00    -0.417 N  
HETATM   14  H   UNL     1      -8.510  12.702  66.068  1.00  0.00     0.000 HD 
BRANCH  13  15
HETATM   15  C   UNL     1     -10.438  13.450  65.789  1.00  0.00    -0.290 C  
HETATM   16  O   UNL     1     -11.204  13.502  64.823  1.00  0.00    -0.325 OA 
BRANCH  15  17
HETATM   17  N   UNL     1     -10.517  14.354  66.856  1.00  0.00    -0.268 N  
BRANCH  17  18
HETATM   18  C   UNL     1     -11.833  14.369  67.555  1.00  0.00    -0.386 C  
BRANCH  18  19
HETATM   19  C   UNL     1     -11.896  13.587  68.870  1.00  0.00    -0.384 A  
HETATM   20  C   UNL     1     -12.653  12.128  71.122  1.00  0.00    -0.260 A  
HETATM   21  C   UNL     1     -11.671  12.203  68.924  1.00  0.00    -0.381 A  
HETATM   22  C   UNL     1     -12.083  11.471  70.040  1.00  0.00    -0.408 A  
HETATM   23  F   UNL     1     -13.160  11.411  72.138  1.00  0.00    -0.582 F  
HETATM   24  C   UNL     1     -12.744  13.512  71.150  1.00  0.00    -0.425 A  
HETATM   25  C   UNL     1     -12.343  14.247  70.034  1.00  0.00    -0.403 A  
ENDBRANCH  18  19
ENDBRANCH  17  18
BRANCH  17  26
HETATM   26  C   UNL     1      -9.493  15.417  67.172  1.00  0.00    -0.213 C  
HETATM   27  C   UNL     1      -9.341  16.552  66.142  1.00  0.00    -0.339 C  
HETATM   28  C   UNL     1      -9.562  16.051  68.597  1.00  0.00    -0.222 C  
HETATM   29  C   UNL     1      -8.774  18.982  67.708  1.00  0.00    -0.298 C  
HETATM   30  C   UNL     1     -10.328  17.684  66.370  1.00  0.00    -0.345 C  
HETATM   31  N   UNL     1     -10.090  18.344  67.650  1.00  0.00    -0.342 NA 
HETATM   32  C   UNL     1     -10.307  17.386  68.731  1.00  0.00    -0.357 C  
ENDBRANCH  17  26
ENDBRANCH  15  17
ENDBRANCH  13  15
ENDBRANCH  12  13
ENDBRANCH   9  12
ENDBRANCH   5   6
ENDBRANCH   4   5
TORSDOF 9
ENDMDL
MODEL       14
REMARK 921   NORMALIZED FREE ENERGY PREDICTED BY IDOCK:   -7.10 KCAL/MOL
REMARK 922        TOTAL FREE ENERGY PREDICTED BY IDOCK:  -12.30 KCAL/MOL
REMARK 923 INTER-LIGAND FREE ENERGY PREDICTED BY IDOCK:  -10.80 KCAL/MOL
REMARK 924 INTRA-LIGAND FREE ENERGY PREDICTED BY IDOCK:   -1.50 KCAL/MOL
REMARK 927      BINDING AFFINITY PREDICTED BY RF-SCORE:    0.00 PKD
ROOT
HETATM    1  C   UNL     1      -9.918   6.928  73.262  1.00  0.00    -0.243 C  
HETATM    2  C   UNL     1     -10.602   5.851  72.419  1.00  0.00    -0.257 C  
HETATM    3  C   UNL     1     -11.404   4.909  73.314  1.00  0.00    -0.408 C  
HETATM    4  C   UNL     1     -11.450   6.457  71.285  1.00  0.00    -0.314 C  
ENDROOT
BRANCH   4   5
HETATM    5  O   UNL     1     -12.535   7.263  71.767  1.00  0.00    -0.320 OA 
BRANCH   5   6
HETATM    6  C   UNL     1     -12.377   8.616  71.584  1.00  0.00    -0.333 A  
HETATM    7  C   UNL     1     -13.206   9.600  72.131  1.00  0.00    -0.535 A  
HETATM    8  C   UNL     1     -13.109  10.937  71.699  1.00  0.00    -0.538 A  
HETATM    9  C   UNL     1     -12.161  11.308  70.738  1.00  0.00    -0.450 A  
HETATM   10  C   UNL     1     -11.222  10.344  70.331  1.00  0.00    -0.399 A  
HETATM   11  C   UNL     1     -11.333   9.012  70.750  1.00  0.00    -0.329 A  
BRANCH   9  12
HETATM   12  C   UNL     1     -12.283  12.609  69.973  1.00  0.00    -0.197 C  
BRANCH  12  13
HETATM   13  N   UNL     1     -11.170  13.526  70.089  1.00  0.00    -0.463 N  
HETATM   14  H   UNL     1     -10.360  13.289  70.662  1.00  0.00     0.000 HD 
BRANCH  13  15
HETATM   15  C   UNL     1     -11.226  14.720  69.414  1.00  0.00    -0.284 C  
HETATM   16  O   UNL     1     -12.121  15.534  69.653  1.00  0.00    -0.351 OA 
BRANCH  15  17
HETATM   17  N   UNL     1     -10.212  14.974  68.482  1.00  0.00    -0.222 N  
BRANCH  17  18
HETATM   18  C   UNL     1      -9.185  15.952  68.939  1.00  0.00    -0.232 C  
BRANCH  18  19
HETATM   19  C   UNL     1      -9.217  17.320  68.250  1.00  0.00    -0.265 A  
HETATM   20  C   UNL     1      -9.580  19.473  66.517  1.00  0.00    -0.378 A  
HETATM   21  C   UNL     1     -10.250  18.242  68.476  1.00  0.00    -0.402 A  
HETATM   22  C   UNL     1     -10.450  19.300  67.586  1.00  0.00    -0.557 A  
HETATM   23  F   UNL     1      -9.844  20.413  65.595  1.00  0.00    -0.475 F  
HETATM   24  C   UNL     1      -8.465  18.663  66.366  1.00  0.00    -0.286 A  
HETATM   25  C   UNL     1      -8.267  17.598  67.246  1.00  0.00    -0.225 A  
ENDBRANCH  18  19
ENDBRANCH  17  18
BRANCH  17  26
HETATM   26  C   UNL     1     -10.225  14.527  67.040  1.00  0.00    -0.262 C  
HETATM   27  C   UNL     1      -9.692  13.110  66.755  1.00  0.00    -0.246 C  
HETATM   28  C   UNL     1     -11.567  14.714  66.264  1.00  0.00    -0.344 C  
HETATM   29  C   UNL     1     -11.350  12.059  64.558  1.00  0.00    -0.330 C  
HETATM   30  C   UNL     1     -10.761  12.042  66.913  1.00  0.00    -0.244 C  
HETATM   31  N   UNL     1     -11.828  12.213  65.933  1.00  0.00    -0.546 NA 
HETATM   32  C   UNL     1     -12.492  13.494  66.166  1.00  0.00    -0.365 C  
ENDBRANCH  17  26
ENDBRANCH  15  17
ENDBRANCH  13  15
ENDBRANCH  12  13
ENDBRANCH   9  12
ENDBRANCH   5   6
ENDBRANCH   4   5
TORSDOF 9
ENDMDL
MODEL       15
REMARK 921   NORMALIZED FREE ENERGY PREDICTED BY IDOCK:   -7.08 KCAL/MOL
REMARK 922        TOTAL FREE ENERGY PREDICTED BY IDOCK:  -12.26 KCAL/MOL
REMARK 923 INTER-LIGAND FREE ENERGY PREDICTED BY IDOCK:  -10.53 KCAL/MOL
REMARK 924 INTRA-LIGAND FREE ENERGY PREDICTED BY IDOCK:   -1.74 KCAL/MOL
REMARK 927      BINDING AFFINITY PREDICTED BY RF-SCORE:    0.00 PKD
ROOT
HETATM    1  C   UNL     1      -9.925   6.926  73.529  1.00  0.00    -0.293 C  
HETATM    2  C   UNL     1     -10.454   5.936  72.490  1.00  0.00    -0.238 C  
HETATM    3  C   UNL     1     -11.321   4.875  73.164  1.00  0.00    -0.395 C  
HETATM    4  C   UNL     1     -11.181   6.648  71.332  1.00  0.00    -0.274 C  
ENDROOT
BRANCH   4   5
HETATM    5  O   UNL     1     -12.350   7.361  71.760  1.00  0.00    -0.308 OA 
BRANCH   5   6
HETATM    6  C   UNL     1     -12.285   8.725  71.604  1.00  0.00    -0.339 A  
HETATM    7  C   UNL     1     -13.143   9.644  72.216  1.00  0.00    -0.468 A  
HETATM    8  C   UNL     1     -13.150  10.993  71.813  1.00  0.00    -0.554 A  
HETATM    9  C   UNL     1     -12.276  11.444  70.816  1.00  0.00    -0.475 A  
HETATM   10  C   UNL     1     -11.302  10.549  70.339  1.00  0.00    -0.411 A  
HETATM   11  C   UNL     1     -11.310   9.204  70.729  1.00  0.00    -0.337 A  
BRANCH   9  12
HETATM   12  C   UNL     1     -12.516  12.751  70.091  1.00  0.00    -0.056 C  
BRANCH  12  13
HETATM   13  N   UNL     1     -11.341  13.435  69.599  1.00  0.00    -0.460 N  
HETATM   14  H   UNL     1     -10.411  13.040  69.744  1.00  0.00     0.000 HD 
BRANCH  13  15
HETATM   15  C   UNL     1     -11.499  14.625  68.934  1.00  0.00    -0.298 C  
HETATM   16  O   UNL     1     -11.826  15.646  69.544  1.00  0.00    -0.347 OA 
BRANCH  15  17
HETATM   17  N   UNL     1     -11.241  14.626  67.557  1.00  0.00    -0.320 N  
BRANCH  17  18
HETATM   18  C   UNL     1     -12.278  13.941  66.735  1.00  0.00    -0.399 C  
BRANCH  18  19
HETATM   19  C   UNL     1     -11.805  12.702  65.968  1.00  0.00    -0.492 A  
HETATM   20  C   UNL     1     -10.415  10.822  64.449  1.00  0.00    -0.274 A  
HETATM   21  C   UNL     1     -11.112  11.657  66.598  1.00  0.00    -0.364 A  
HETATM   22  C   UNL     1     -10.390  10.737  65.835  1.00  0.00    -0.302 A  
HETATM   23  F   UNL     1      -9.623  10.017  63.722  1.00  0.00    -0.316 F  
HETATM   24  C   UNL     1     -11.216  11.754  63.805  1.00  0.00    -0.518 A  
HETATM   25  C   UNL     1     -11.932  12.682  64.564  1.00  0.00    -0.464 A  
ENDBRANCH  18  19
ENDBRANCH  17  18
BRANCH  17  26
HETATM   26  C   UNL     1      -9.939  15.045  66.918  1.00  0.00    -0.244 C  
HETATM   27  C   UNL     1     -10.029  16.113  65.812  1.00  0.00    -0.370 C  
HETATM   28  C   UNL     1      -8.779  15.435  67.887  1.00  0.00    -0.160 C  
HETATM   29  C   UNL     1      -7.608  17.767  66.101  1.00  0.00    -0.267 C  
HETATM   30  C   UNL     1     -10.009  17.529  66.365  1.00  0.00    -0.325 C  
HETATM   31  N   UNL     1      -8.741  17.820  67.026  1.00  0.00    -0.237 NA 
HETATM   32  C   UNL     1      -8.583  16.930  68.174  1.00  0.00    -0.221 C  
ENDBRANCH  17  26
ENDBRANCH  15  17
ENDBRANCH  13  15
ENDBRANCH  12  13
ENDBRANCH   9  12
ENDBRANCH   5   6
ENDBRANCH   4   5
TORSDOF 9
ENDMDL
MODEL       16
REMARK 921   NORMALIZED FREE ENERGY PREDICTED BY IDOCK:   -6.99 KCAL/MOL
REMARK 922        TOTAL FREE ENERGY PREDICTED BY IDOCK:  -12.14 KCAL/MOL
REMARK 923 INTER-LIGAND FREE ENERGY PREDICTED BY IDOCK:   -9.63 KCAL/MOL
REMARK 924 INTRA-LIGAND FREE ENERGY PREDICTED BY IDOCK:   -2.51 KCAL/MOL
REMARK 927      BINDING AFFINITY PREDICTED BY RF-SCORE:    0.00 PKD
ROOT
HETATM    1  C   UNL     1     -11.859   7.186  70.664  1.00  0.00    -0.334 C  
HETATM    2  C   UNL     1     -11.762   8.243  71.765  1.00  0.00    -0.357 C  
HETATM    3  C   UNL     1     -10.861   7.748  72.895  1.00  0.00    -0.453 C  
HETATM    4  C   UNL     1     -11.323   9.613  71.213  1.00  0.00    -0.388 C  
ENDROOT
BRANCH   4   5
HETATM    5  O   UNL     1     -10.009   9.588  70.636  1.00  0.00    -0.263 OA 
BRANCH   5   6
HETATM    6  C   UNL     1      -9.918  10.139  69.380  1.00  0.00    -0.228 A  
HETATM    7  C   UNL     1      -8.810  10.836  68.889  1.00  0.00    -0.154 A  
HETATM    8  C   UNL     1      -8.899  11.563  67.686  1.00  0.00    -0.152 A  
HETATM    9  C   UNL     1     -10.087  11.573  66.947  1.00  0.00    -0.241 A  
HETATM   10  C   UNL     1     -11.130  10.728  67.361  1.00  0.00    -0.363 A  
HETATM   11  C   UNL     1     -11.045  10.021  68.568  1.00  0.00    -0.219 A  
BRANCH   9  12
HETATM   12  C   UNL     1     -10.348  12.629  65.893  1.00  0.00    -0.276 C  
BRANCH  12  13
HETATM   13  N   UNL     1     -11.363  13.610  66.209  1.00  0.00    -0.306 N  
HETATM   14  H   UNL     1     -12.334  13.329  66.343  1.00  0.00     0.000 HD 
BRANCH  13  15
HETATM   15  C   UNL     1     -10.993  14.928  66.326  1.00  0.00    -0.338 C  
HETATM   16  O   UNL     1     -11.125  15.703  65.375  1.00  0.00    -0.325 OA 
BRANCH  15  17
HETATM   17  N   UNL     1     -10.500  15.345  67.569  1.00  0.00    -0.269 N  
BRANCH  17  18
HETATM   18  C   UNL     1     -11.534  15.900  68.487  1.00  0.00    -0.377 C  
BRANCH  18  19
HETATM   19  C   UNL     1     -11.844  15.055  69.727  1.00  0.00    -0.357 A  
HETATM   20  C   UNL     1     -13.031  13.578  71.772  1.00  0.00    -0.348 A  
HETATM   21  C   UNL     1     -11.807  13.653  69.699  1.00  0.00    -0.396 A  
HETATM   22  C   UNL     1     -12.432  12.917  70.707  1.00  0.00    -0.370 A  
HETATM   23  F   UNL     1     -13.737  12.877  72.673  1.00  0.00    -0.619 F  
HETATM   24  C   UNL     1     -12.946  14.957  71.894  1.00  0.00    -0.414 A  
HETATM   25  C   UNL     1     -12.331  15.698  70.884  1.00  0.00    -0.479 A  
ENDBRANCH  18  19
ENDBRANCH  17  18
BRANCH  17  26
HETATM   26  C   UNL     1      -9.039  15.479  67.923  1.00  0.00    -0.175 C  
HETATM   27  C   UNL     1      -8.054  15.596  66.745  1.00  0.00    -0.280 C  
HETATM   28  C   UNL     1      -8.675  16.569  68.980  1.00  0.00    -0.215 C  
HETATM   29  C   UNL     1      -5.939  17.435  67.652  1.00  0.00    -0.138 C  
HETATM   30  C   UNL     1      -7.887  17.028  66.263  1.00  0.00    -0.311 C  
HETATM   31  N   UNL     1      -7.291  17.867  67.297  1.00  0.00    -0.190 NA 
HETATM   32  C   UNL     1      -8.192  17.924  68.447  1.00  0.00    -0.300 C  
ENDBRANCH  17  26
ENDBRANCH  15  17
ENDBRANCH  13  15
ENDBRANCH  12  13
ENDBRANCH   9  12
ENDBRANCH   5   6
ENDBRANCH   4   5
TORSDOF 9
ENDMDL
MODEL       17
REMARK 921   NORMALIZED FREE ENERGY PREDICTED BY IDOCK:   -6.97 KCAL/MOL
REMARK 922        TOTAL FREE ENERGY PREDICTED BY IDOCK:  -12.11 KCAL/MOL
REMARK 923 INTER-LIGAND FREE ENERGY PREDICTED BY IDOCK:  -10.82 KCAL/MOL
REMARK 924 INTRA-LIGAND FREE ENERGY PREDICTED BY IDOCK:   -1.29 KCAL/MOL
REMARK 927      BINDING AFFINITY PREDICTED BY RF-SCORE:    0.00 PKD
ROOT
HETATM    1  C   UNL     1     -10.227   7.224  73.580  1.00  0.00    -0.404 C  
HETATM    2  C   UNL     1     -10.478   6.113  72.559  1.00  0.00    -0.228 C  
HETATM    3  C   UNL     1     -11.420   5.062  73.143  1.00  0.00    -0.362 C  
HETATM    4  C   UNL     1     -10.972   6.670  71.210  1.00  0.00    -0.253 C  
ENDROOT
BRANCH   4   5
HETATM    5  O   UNL     1     -12.236   7.341  71.311  1.00  0.00    -0.321 OA 
BRANCH   5   6
HETATM    6  C   UNL     1     -12.168   8.713  71.266  1.00  0.00    -0.281 A  
HETATM    7  C   UNL     1     -13.019   9.581  71.957  1.00  0.00    -0.514 A  
HETATM    8  C   UNL     1     -13.025  10.959  71.664  1.00  0.00    -0.569 A  
HETATM    9  C   UNL     1     -12.157  11.486  70.701  1.00  0.00    -0.450 A  
HETATM   10  C   UNL     1     -11.190  10.631  70.146  1.00  0.00    -0.378 A  
HETATM   11  C   UNL     1     -11.198   9.258  70.425  1.00  0.00    -0.290 A  
BRANCH   9  12
HETATM   12  C   UNL     1     -12.399  12.849  70.086  1.00  0.00    -0.179 C  
BRANCH  12  13
HETATM   13  N   UNL     1     -11.297  13.783  70.150  1.00  0.00    -0.488 N  
HETATM   14  H   UNL     1     -10.419  13.522  70.598  1.00  0.00     0.000 HD 
BRANCH  13  15
HETATM   15  C   UNL     1     -11.456  15.030  69.597  1.00  0.00    -0.294 C  
HETATM   16  O   UNL     1     -12.380  15.763  69.958  1.00  0.00    -0.354 OA 
BRANCH  15  17
HETATM   17  N   UNL     1     -10.511  15.431  68.644  1.00  0.00    -0.232 N  
BRANCH  17  18
HETATM   18  C   UNL     1      -9.904  14.312  67.869  1.00  0.00    -0.226 C  
BRANCH  18  19
HETATM   19  C   UNL     1     -10.732  13.794  66.690  1.00  0.00    -0.277 A  
HETATM   20  C   UNL     1     -11.853  13.256  64.194  1.00  0.00    -0.443 A  
HETATM   21  C   UNL     1     -10.393  12.620  66.001  1.00  0.00    -0.287 A  
HETATM   22  C   UNL     1     -10.931  12.371  64.737  1.00  0.00    -0.340 A  
HETATM   23  F   UNL     1     -12.274  13.082  62.931  1.00  0.00    -0.574 F  
HETATM   24  C   UNL     1     -12.315  14.342  64.924  1.00  0.00    -0.435 A  
HETATM   25  C   UNL     1     -11.773  14.600  66.184  1.00  0.00    -0.316 A  
ENDBRANCH  18  19
ENDBRANCH  17  18
BRANCH  17  26
HETATM   26  C   UNL     1      -9.932  16.820  68.526  1.00  0.00    -0.271 C  
HETATM   27  C   UNL     1      -8.470  16.916  68.051  1.00  0.00    -0.213 C  
HETATM   28  C   UNL     1     -10.778  17.864  67.731  1.00  0.00    -0.339 C  
HETATM   29  C   UNL     1      -8.327  19.350  66.397  1.00  0.00    -0.331 C  
HETATM   30  C   UNL     1      -8.348  16.928  66.536  1.00  0.00    -0.280 C  
HETATM   31  N   UNL     1      -8.977  18.113  65.964  1.00  0.00    -0.511 NA 
HETATM   32  C   UNL     1     -10.408  18.087  66.259  1.00  0.00    -0.382 C  
ENDBRANCH  17  26
ENDBRANCH  15  17
ENDBRANCH  13  15
ENDBRANCH  12  13
ENDBRANCH   9  12
ENDBRANCH   5   6
ENDBRANCH   4   5
TORSDOF 9
ENDMDL
MODEL       18
REMARK 921   NORMALIZED FREE ENERGY PREDICTED BY IDOCK:   -6.97 KCAL/MOL
REMARK 922        TOTAL FREE ENERGY PREDICTED BY IDOCK:  -12.11 KCAL/MOL
REMARK 923 INTER-LIGAND FREE ENERGY PREDICTED BY IDOCK:   -9.10 KCAL/MOL
REMARK 924 INTRA-LIGAND FREE ENERGY PREDICTED BY IDOCK:   -3.00 KCAL/MOL
REMARK 927      BINDING AFFINITY PREDICTED BY RF-SCORE:    0.00 PKD
ROOT
HETATM    1  C   UNL     1      -7.982  20.781  67.156  1.00  0.00    -0.258 C  
HETATM    2  C   UNL     1      -9.424  20.333  67.398  1.00  0.00    -0.547 C  
HETATM    3  C   UNL     1     -10.007  19.722  66.126  1.00  0.00    -0.573 C  
HETATM    4  C   UNL     1      -9.540  19.394  68.614  1.00  0.00    -0.426 C  
ENDROOT
BRANCH   4   5
HETATM    5  O   UNL     1      -8.817  18.166  68.445  1.00  0.00    -0.283 OA 
BRANCH   5   6
HETATM    6  C   UNL     1      -9.586  17.029  68.507  1.00  0.00    -0.273 A  
HETATM    7  C   UNL     1     -10.938  16.955  68.159  1.00  0.00    -0.290 A  
HETATM    8  C   UNL     1     -11.697  15.813  68.478  1.00  0.00    -0.328 A  
HETATM    9  C   UNL     1     -11.103  14.720  69.120  1.00  0.00    -0.278 A  
HETATM   10  C   UNL     1      -9.710  14.739  69.303  1.00  0.00    -0.098 A  
HETATM   11  C   UNL     1      -8.961  15.884  69.000  1.00  0.00    -0.245 A  
BRANCH   9  12
HETATM   12  C   UNL     1     -11.939  13.670  69.822  1.00  0.00    -0.341 C  
BRANCH  12  13
HETATM   13  N   UNL     1     -11.304  12.389  70.041  1.00  0.00    -0.507 N  
HETATM   14  H   UNL     1     -10.726  12.231  70.866  1.00  0.00     0.000 HD 
BRANCH  13  15
HETATM   15  C   UNL     1     -11.494  11.392  69.118  1.00  0.00    -0.299 C  
HETATM   16  O   UNL     1     -12.529  10.720  69.124  1.00  0.00    -0.377 OA 
BRANCH  15  17
HETATM   17  N   UNL     1     -10.486  11.204  68.165  1.00  0.00    -0.181 N  
BRANCH  17  18
HETATM   18  C   UNL     1     -10.944  11.319  66.751  1.00  0.00    -0.281 C  
BRANCH  18  19
HETATM   19  C   UNL     1     -11.177  12.745  66.243  1.00  0.00    -0.339 A  
HETATM   20  C   UNL     1     -11.473  15.068  64.730  1.00  0.00    -0.403 A  
HETATM   21  C   UNL     1     -12.457  13.218  65.917  1.00  0.00    -0.433 A  
HETATM   22  C   UNL     1     -12.600  14.363  65.131  1.00  0.00    -0.323 A  
HETATM   23  F   UNL     1     -11.603  16.094  63.874  1.00  0.00    -0.400 F  
HETATM   24  C   UNL     1     -10.208  14.702  65.169  1.00  0.00    -0.414 A  
HETATM   25  C   UNL     1     -10.060  13.552  65.947  1.00  0.00    -0.311 A  
ENDBRANCH  18  19
ENDBRANCH  17  18
BRANCH  17  26
HETATM   26  C   UNL     1      -9.097  10.687  68.459  1.00  0.00    -0.159 C  
HETATM   27  C   UNL     1      -8.997   9.517  69.454  1.00  0.00    -0.174 C  
HETATM   28  C   UNL     1      -8.198  10.365  67.224  1.00  0.00    -0.121 C  
HETATM   29  C   UNL     1      -6.780   7.834  68.485  1.00  0.00    -0.058 C  
HETATM   30  C   UNL     1      -9.166   8.164  68.783  1.00  0.00    -0.144 C  
HETATM   31  N   UNL     1      -8.089   7.905  67.833  1.00  0.00    -0.127 NA 
HETATM   32  C   UNL     1      -8.141   8.901  66.766  1.00  0.00    -0.111 C  
ENDBRANCH  17  26
ENDBRANCH  15  17
ENDBRANCH  13  15
ENDBRANCH  12  13
ENDBRANCH   9  12
ENDBRANCH   5   6
ENDBRANCH   4   5
TORSDOF 9
ENDMDL
MODEL       19
REMARK 921   NORMALIZED FREE ENERGY PREDICTED BY IDOCK:   -6.96 KCAL/MOL
REMARK 922        TOTAL FREE ENERGY PREDICTED BY IDOCK:  -12.10 KCAL/MOL
REMARK 923 INTER-LIGAND FREE ENERGY PREDICTED BY IDOCK:   -9.62 KCAL/MOL
REMARK 924 INTRA-LIGAND FREE ENERGY PREDICTED BY IDOCK:   -2.48 KCAL/MOL
REMARK 927      BINDING AFFINITY PREDICTED BY RF-SCORE:    0.00 PKD
ROOT
HETATM    1  C   UNL     1     -13.200  10.728  71.592  1.00  0.00    -0.487 C  
HETATM    2  C   UNL     1     -12.983   9.362  72.245  1.00  0.00    -0.479 C  
HETATM    3  C   UNL     1     -14.192   8.463  72.003  1.00  0.00    -0.528 C  
HETATM    4  C   UNL     1     -11.660   8.713  71.797  1.00  0.00    -0.332 C  
ENDROOT
BRANCH   4   5
HETATM    5  O   UNL     1     -11.621   8.436  70.390  1.00  0.00    -0.201 OA 
BRANCH   5   6
HETATM    6  C   UNL     1     -10.698   9.167  69.681  1.00  0.00    -0.225 A  
HETATM    7  C   UNL     1      -9.342   9.277  70.006  1.00  0.00    -0.232 A  
HETATM    8  C   UNL     1      -8.529  10.231  69.365  1.00  0.00    -0.170 A  
HETATM    9  C   UNL     1      -9.056  11.062  68.369  1.00  0.00    -0.161 A  
HETATM   10  C   UNL     1     -10.369  10.818  67.933  1.00  0.00    -0.216 A  
HETATM   11  C   UNL     1     -11.181   9.881  68.585  1.00  0.00    -0.122 A  
BRANCH   9  12
HETATM   12  C   UNL     1      -8.347  12.333  67.949  1.00  0.00    -0.163 C  
BRANCH  12  13
HETATM   13  N   UNL     1      -8.476  13.462  68.844  1.00  0.00    -0.358 N  
HETATM   14  H   UNL     1      -8.490  13.325  69.854  1.00  0.00     0.000 HD 
BRANCH  13  15
HETATM   15  C   UNL     1      -8.578  14.721  68.307  1.00  0.00    -0.164 C  
HETATM   16  O   UNL     1      -7.679  15.549  68.475  1.00  0.00    -0.124 OA 
BRANCH  15  17
HETATM   17  N   UNL     1      -9.719  14.999  67.544  1.00  0.00    -0.214 N  
BRANCH  17  18
HETATM   18  C   UNL     1      -9.462  15.152  66.084  1.00  0.00    -0.319 C  
BRANCH  18  19
HETATM   19  C   UNL     1     -10.358  14.320  65.161  1.00  0.00    -0.440 A  
HETATM   20  C   UNL     1     -12.241  12.590  64.052  1.00  0.00    -0.480 A  
HETATM   21  C   UNL     1     -11.559  14.824  64.639  1.00  0.00    -0.401 A  
HETATM   22  C   UNL     1     -12.514  13.950  64.115  1.00  0.00    -0.286 A  
HETATM   23  F   UNL     1     -13.205  11.739  63.664  1.00  0.00    -0.583 F  
HETATM   24  C   UNL     1     -11.001  12.092  64.423  1.00  0.00    -0.375 A  
HETATM   25  C   UNL     1     -10.047  12.960  64.956  1.00  0.00    -0.235 A  
ENDBRANCH  18  19
ENDBRANCH  17  18
BRANCH  17  26
HETATM   26  C   UNL     1     -11.072  15.366  68.105  1.00  0.00    -0.309 C  
HETATM   27  C   UNL     1     -12.017  14.197  68.437  1.00  0.00    -0.366 C  
HETATM   28  C   UNL     1     -11.081  16.364  69.306  1.00  0.00    -0.297 C  
HETATM   29  C   UNL     1     -13.498  15.027  70.846  1.00  0.00    -0.349 C  
HETATM   30  C   UNL     1     -11.787  13.637  69.832  1.00  0.00    -0.320 C  
HETATM   31  N   UNL     1     -12.090  14.630  70.857  1.00  0.00    -0.307 NA 
HETATM   32  C   UNL     1     -11.177  15.761  70.714  1.00  0.00    -0.375 C  
ENDBRANCH  17  26
ENDBRANCH  15  17
ENDBRANCH  13  15
ENDBRANCH  12  13
ENDBRANCH   9  12
ENDBRANCH   5   6
ENDBRANCH   4   5
TORSDOF 9
ENDMDL
MODEL       20
REMARK 921   NORMALIZED FREE ENERGY PREDICTED BY IDOCK:   -6.90 KCAL/MOL
REMARK 922        TOTAL FREE ENERGY PREDICTED BY IDOCK:  -12.00 KCAL/MOL
REMARK 923 INTER-LIGAND FREE ENERGY PREDICTED BY IDOCK:   -9.27 KCAL/MOL
REMARK 924 INTRA-LIGAND FREE ENERGY PREDICTED BY IDOCK:   -2.73 KCAL/MOL
REMARK 927      BINDING AFFINITY PREDICTED BY RF-SCORE:    0.00 PKD
ROOT
HETATM    1  C   UNL     1     -13.794  13.678  72.362  1.00  0.00    -0.691 C  
HETATM    2  C   UNL     1     -13.349  15.124  72.582  1.00  0.00    -0.564 C  
HETATM    3  C   UNL     1     -12.494  15.228  73.843  1.00  0.00    -0.752 C  
HETATM    4  C   UNL     1     -12.648  15.707  71.340  1.00  0.00    -0.457 C  
ENDROOT
BRANCH   4   5
HETATM    5  O   UNL     1     -11.436  15.017  71.006  1.00  0.00    -0.299 OA 
BRANCH   5   6
HETATM    6  C   UNL     1     -11.228  14.828  69.661  1.00  0.00    -0.275 A  
HETATM    7  C   UNL     1     -12.233  14.570  68.724  1.00  0.00    -0.173 A  
HETATM    8  C   UNL     1     -11.904  14.159  67.417  1.00  0.00    -0.447 A  
HETATM    9  C   UNL     1     -10.566  14.033  67.027  1.00  0.00    -0.279 A  
HETATM   10  C   UNL     1      -9.573  14.465  67.923  1.00  0.00    -0.219 A  
HETATM   11  C   UNL     1      -9.904  14.856  69.227  1.00  0.00    -0.164 A  
BRANCH   9  12
HETATM   12  C   UNL     1     -10.176  13.234  65.801  1.00  0.00    -0.292 C  
BRANCH  12  13
HETATM   13  N   UNL     1      -9.152  12.230  65.991  1.00  0.00    -0.422 N  
HETATM   14  H   UNL     1      -8.165  12.480  65.951  1.00  0.00     0.000 HD 
BRANCH  13  15
HETATM   15  C   UNL     1      -9.536  10.933  66.227  1.00  0.00    -0.200 C  
HETATM   16  O   UNL     1     -10.375  10.386  65.507  1.00  0.00    -0.264 OA 
BRANCH  15  17
HETATM   17  N   UNL     1      -8.912  10.265  67.289  1.00  0.00    -0.132 N  
BRANCH  17  18
HETATM   18  C   UNL     1      -9.074  10.927  68.614  1.00  0.00    -0.175 C  
BRANCH  18  19
HETATM   19  C   UNL     1     -10.280  10.469  69.441  1.00  0.00    -0.245 A  
HETATM   20  C   UNL     1     -12.246  10.081  71.378  1.00  0.00    -0.416 A  
HETATM   21  C   UNL     1     -11.550  11.043  69.283  1.00  0.00    -0.384 A  
HETATM   22  C   UNL     1     -12.521  10.873  70.272  1.00  0.00    -0.383 A  
HETATM   23  F   UNL     1     -13.133  10.019  72.385  1.00  0.00    -0.482 F  
HETATM   24  C   UNL     1     -11.051   9.383  71.477  1.00  0.00    -0.446 A  
HETATM   25  C   UNL     1     -10.074   9.557  70.497  1.00  0.00    -0.347 A  
ENDBRANCH  18  19
ENDBRANCH  17  18
BRANCH  17  26
HETATM   26  C   UNL     1      -7.943   9.116  67.142  1.00  0.00    -0.106 C  
HETATM   27  C   UNL     1      -8.492   7.711  67.452  1.00  0.00    -0.122 C  
HETATM   28  C   UNL     1      -7.138   9.048  65.806  1.00  0.00    -0.085 C  
HETATM   29  C   UNL     1      -7.153   5.895  65.557  1.00  0.00    -0.069 C  
HETATM   30  C   UNL     1      -9.162   7.068  66.249  1.00  0.00    -0.126 C  
HETATM   31  N   UNL     1      -8.206   6.837  65.172  1.00  0.00    -0.131 NA 
HETATM   32  C   UNL     1      -7.682   8.121  64.711  1.00  0.00    -0.123 C  
ENDBRANCH  17  26
ENDBRANCH  15  17
ENDBRANCH  13  15
ENDBRANCH  12  13
ENDBRANCH   9  12
ENDBRANCH   5   6
ENDBRANCH   4   5
TORSDOF 9
ENDMDL
MODEL       21
REMARK 921   NORMALIZED FREE ENERGY PREDICTED BY IDOCK:   -6.90 KCAL/MOL
REMARK 922        TOTAL FREE ENERGY PREDICTED BY IDOCK:  -11.99 KCAL/MOL
REMARK 923 INTER-LIGAND FREE ENERGY PREDICTED BY IDOCK:  -11.27 KCAL/MOL
REMARK 924 INTRA-LIGAND FREE ENERGY PREDICTED BY IDOCK:   -0.72 KCAL/MOL
REMARK 927      BINDING AFFINITY PREDICTED BY RF-SCORE:    0.00 PKD
ROOT
HETATM    1  C   UNL     1      -9.693   6.080  73.603  1.00  0.00    -0.165 C  
HETATM    2  C   UNL     1     -10.498   5.180  72.664  1.00  0.00    -0.262 C  
HETATM    3  C   UNL     1     -11.397   4.245  73.470  1.00  0.00    -0.316 C  
HETATM    4  C   UNL     1     -11.278   5.994  71.614  1.00  0.00    -0.268 C  
ENDROOT
BRANCH   4   5
HETATM    5  O   UNL     1     -12.263   6.860  72.196  1.00  0.00    -0.285 OA 
BRANCH   5   6
HETATM    6  C   UNL     1     -12.110   8.193  71.898  1.00  0.00    -0.323 A  
HETATM    7  C   UNL     1     -13.064   9.185  72.149  1.00  0.00    -0.516 A  
HETATM    8  C   UNL     1     -12.917  10.473  71.598  1.00  0.00    -0.581 A  
HETATM    9  C   UNL     1     -11.800  10.790  70.817  1.00  0.00    -0.443 A  
HETATM   10  C   UNL     1     -10.769   9.840  70.723  1.00  0.00    -0.393 A  
HETATM   11  C   UNL     1     -10.926   8.554  71.257  1.00  0.00    -0.316 A  
BRANCH   9  12
HETATM   12  C   UNL     1     -11.797  11.996  69.901  1.00  0.00    -0.331 C  
BRANCH  12  13
HETATM   13  N   UNL     1     -10.595  12.206  69.125  1.00  0.00    -0.427 N  
HETATM   14  H   UNL     1      -9.966  11.430  68.921  1.00  0.00     0.000 HD 
BRANCH  13  15
HETATM   15  C   UNL     1     -10.316  13.471  68.669  1.00  0.00    -0.214 C  
HETATM   16  O   UNL     1      -9.210  13.980  68.866  1.00  0.00    -0.101 OA 
BRANCH  15  17
HETATM   17  N   UNL     1     -11.324  14.127  67.951  1.00  0.00    -0.279 N  
BRANCH  17  18
HETATM   18  C   UNL     1     -11.774  15.414  68.555  1.00  0.00    -0.338 C  
BRANCH  18  19
HETATM   19  C   UNL     1     -12.164  15.353  70.035  1.00  0.00    -0.392 A  
HETATM   20  C   UNL     1     -13.074  15.861  72.620  1.00  0.00    -0.472 A  
HETATM   21  C   UNL     1     -13.405  14.856  70.457  1.00  0.00    -0.145 A  
HETATM   22  C   UNL     1     -13.873  15.141  71.741  1.00  0.00    -0.605 A  
HETATM   23  F   UNL     1     -13.573  16.240  73.808  1.00  0.00    -0.549 F  
HETATM   24  C   UNL     1     -11.783  16.229  72.273  1.00  0.00    -0.530 A  
HETATM   25  C   UNL     1     -11.315  15.955  70.987  1.00  0.00    -0.434 A  
ENDBRANCH  18  19
ENDBRANCH  17  18
BRANCH  17  26
HETATM   26  C   UNL     1     -12.103  13.530  66.803  1.00  0.00    -0.375 C  
HETATM   27  C   UNL     1     -12.265  14.413  65.552  1.00  0.00    -0.352 C  
HETATM   28  C   UNL     1     -11.683  12.098  66.346  1.00  0.00    -0.394 C  
HETATM   29  C   UNL     1     -12.167  12.568  63.256  1.00  0.00    -0.413 C  
HETATM   30  C   UNL     1     -11.093  14.286  64.592  1.00  0.00    -0.363 C  
HETATM   31  N   UNL     1     -10.995  12.934  64.052  1.00  0.00    -0.399 NA 
HETATM   32  C   UNL     1     -10.733  11.999  65.145  1.00  0.00    -0.288 C  
ENDBRANCH  17  26
ENDBRANCH  15  17
ENDBRANCH  13  15
ENDBRANCH  12  13
ENDBRANCH   9  12
ENDBRANCH   5   6
ENDBRANCH   4   5
TORSDOF 9
ENDMDL
MODEL       22
REMARK 921   NORMALIZED FREE ENERGY PREDICTED BY IDOCK:   -6.89 KCAL/MOL
REMARK 922        TOTAL FREE ENERGY PREDICTED BY IDOCK:  -11.98 KCAL/MOL
REMARK 923 INTER-LIGAND FREE ENERGY PREDICTED BY IDOCK:   -9.72 KCAL/MOL
REMARK 924 INTRA-LIGAND FREE ENERGY PREDICTED BY IDOCK:   -2.26 KCAL/MOL
REMARK 927      BINDING AFFINITY PREDICTED BY RF-SCORE:    0.00 PKD
ROOT
HETATM    1  C   UNL     1     -13.872  13.696  72.261  1.00  0.00    -0.689 C  
HETATM    2  C   UNL     1     -13.755  15.210  72.075  1.00  0.00    -0.576 C  
HETATM    3  C   UNL     1     -13.105  15.844  73.302  1.00  0.00    -0.694 C  
HETATM    4  C   UNL     1     -13.032  15.575  70.764  1.00  0.00    -0.434 C  
ENDROOT
BRANCH   4   5
HETATM    5  O   UNL     1     -11.674  15.113  70.727  1.00  0.00    -0.279 OA 
BRANCH   5   6
HETATM    6  C   UNL     1     -11.286  14.553  69.533  1.00  0.00    -0.275 A  
HETATM    7  C   UNL     1     -12.110  13.788  68.702  1.00  0.00    -0.333 A  
HETATM    8  C   UNL     1     -11.562  13.063  67.626  1.00  0.00    -0.403 A  
HETATM    9  C   UNL     1     -10.191  13.121  67.351  1.00  0.00    -0.232 A  
HETATM   10  C   UNL     1      -9.410  14.030  68.085  1.00  0.00    -0.201 A  
HETATM   11  C   UNL     1      -9.954  14.737  69.166  1.00  0.00    -0.184 A  
BRANCH   9  12
HETATM   12  C   UNL     1      -9.517  12.079  66.484  1.00  0.00    -0.228 C  
BRANCH  12  13
HETATM   13  N   UNL     1      -8.934  10.951  67.177  1.00  0.00    -0.138 N  
HETATM   14  H   UNL     1      -8.000  11.017  67.583  1.00  0.00     0.000 HD 
BRANCH  13  15
HETATM   15  C   UNL     1      -9.660   9.791  67.277  1.00  0.00    -0.157 C  
HETATM   16  O   UNL     1     -10.409   9.439  66.363  1.00  0.00    -0.242 OA 
BRANCH  15  17
HETATM   17  N   UNL     1      -9.482   9.024  68.435  1.00  0.00    -0.145 N  
BRANCH  17  18
HETATM   18  C   UNL     1      -9.331   9.821  69.685  1.00  0.00    -0.219 C  
BRANCH  18  19
HETATM   19  C   UNL     1     -10.549   9.837  70.614  1.00  0.00    -0.382 A  
HETATM   20  C   UNL     1     -12.992   9.407  71.887  1.00  0.00    -0.417 A  
HETATM   21  C   UNL     1     -10.614   9.045  71.769  1.00  0.00    -0.426 A  
HETATM   22  C   UNL     1     -11.845   8.804  72.384  1.00  0.00    -0.356 A  
HETATM   23  F   UNL     1     -14.188   9.078  72.401  1.00  0.00    -0.458 F  
HETATM   24  C   UNL     1     -12.925  10.314  70.839  1.00  0.00    -0.456 A  
HETATM   25  C   UNL     1     -11.699  10.550  70.215  1.00  0.00    -0.420 A  
ENDBRANCH  18  19
ENDBRANCH  17  18
BRANCH  17  26
HETATM   26  C   UNL     1      -9.211   7.539  68.461  1.00  0.00    -0.143 C  
HETATM   27  C   UNL     1     -10.443   6.616  68.427  1.00  0.00    -0.248 C  
HETATM   28  C   UNL     1      -8.164   7.003  67.435  1.00  0.00    -0.119 C  
HETATM   29  C   UNL     1      -9.638   4.270  66.836  1.00  0.00    -0.203 C  
HETATM   30  C   UNL     1     -10.916   6.326  67.012  1.00  0.00    -0.364 C  
HETATM   31  N   UNL     1      -9.908   5.587  66.258  1.00  0.00    -0.159 NA 
HETATM   32  C   UNL     1      -8.708   6.410  66.129  1.00  0.00    -0.146 C  
ENDBRANCH  17  26
ENDBRANCH  15  17
ENDBRANCH  13  15
ENDBRANCH  12  13
ENDBRANCH   9  12
ENDBRANCH   5   6
ENDBRANCH   4   5
TORSDOF 9
ENDMDL
MODEL       23
REMARK 921   NORMALIZED FREE ENERGY PREDICTED BY IDOCK:   -6.80 KCAL/MOL
REMARK 922        TOTAL FREE ENERGY PREDICTED BY IDOCK:  -11.85 KCAL/MOL
REMARK 923 INTER-LIGAND FREE ENERGY PREDICTED BY IDOCK:   -9.54 KCAL/MOL
REMARK 924 INTRA-LIGAND FREE ENERGY PREDICTED BY IDOCK:   -2.31 KCAL/MOL
REMARK 927      BINDING AFFINITY PREDICTED BY RF-SCORE:    0.00 PKD
ROOT
HETATM    1  C   UNL     1     -10.035  20.176  66.741  1.00  0.00    -0.604 C  
HETATM    2  C   UNL     1     -10.472  18.798  67.241  1.00  0.00    -0.489 C  
HETATM    3  C   UNL     1     -10.381  17.774  66.112  1.00  0.00    -0.340 C  
HETATM    4  C   UNL     1      -9.694  18.368  68.498  1.00  0.00    -0.361 C  
ENDROOT
BRANCH   4   5
HETATM    5  O   UNL     1      -8.286  18.222  68.263  1.00  0.00    -0.285 OA 
BRANCH   5   6
HETATM    6  C   UNL     1      -7.797  16.951  68.444  1.00  0.00    -0.229 A  
HETATM    7  C   UNL     1      -6.615  16.459  67.881  1.00  0.00    -0.148 A  
HETATM    8  C   UNL     1      -6.320  15.083  67.928  1.00  0.00    -0.179 A  
HETATM    9  C   UNL     1      -7.189  14.190  68.567  1.00  0.00    -0.110 A  
HETATM   10  C   UNL     1      -8.278  14.722  69.277  1.00  0.00    -0.065 A  
HETATM   11  C   UNL     1      -8.578  16.089  69.213  1.00  0.00    -0.224 A  
BRANCH   9  12
HETATM   12  C   UNL     1      -7.119  12.700  68.303  1.00  0.00    -0.105 C  
BRANCH  12  13
HETATM   13  N   UNL     1      -8.202  11.905  68.837  1.00  0.00    -0.359 N  
HETATM   14  H   UNL     1      -8.353  11.842  69.844  1.00  0.00     0.000 HD 
BRANCH  13  15
HETATM   15  C   UNL     1      -9.023  11.236  67.964  1.00  0.00    -0.156 C  
HETATM   16  O   UNL     1      -8.764  10.080  67.620  1.00  0.00    -0.122 OA 
BRANCH  15  17
HETATM   17  N   UNL     1     -10.168  11.910  67.520  1.00  0.00    -0.195 N  
BRANCH  17  18
HETATM   18  C   UNL     1     -11.447  11.392  68.082  1.00  0.00    -0.305 C  
BRANCH  18  19
HETATM   19  C   UNL     1     -11.774  11.839  69.510  1.00  0.00    -0.408 A  
HETATM   20  C   UNL     1     -12.972  12.744  71.859  1.00  0.00    -0.295 A  
HETATM   21  C   UNL     1     -12.154  10.927  70.506  1.00  0.00    -0.464 A  
HETATM   22  C   UNL     1     -12.784  11.382  71.666  1.00  0.00    -0.427 A  
HETATM   23  F   UNL     1     -13.687  13.171  72.912  1.00  0.00    -0.548 F  
HETATM   24  C   UNL     1     -12.467  13.669  70.957  1.00  0.00    -0.456 A  
HETATM   25  C   UNL     1     -11.845  13.219  69.791  1.00  0.00    -0.394 A  
ENDBRANCH  18  19
ENDBRANCH  17  18
BRANCH  17  26
HETATM   26  C   UNL     1     -10.202  12.914  66.392  1.00  0.00    -0.267 C  
HETATM   27  C   UNL     1     -10.794  12.426  65.057  1.00  0.00    -0.331 C  
HETATM   28  C   UNL     1     -10.813  14.312  66.721  1.00  0.00    -0.298 C  
HETATM   29  C   UNL     1     -12.211  14.745  63.917  1.00  0.00     0.012 C  
HETATM   30  C   UNL     1     -12.306  12.575  65.000  1.00  0.00    -0.453 C  
HETATM   31  N   UNL     1     -12.702  13.977  65.063  1.00  0.00    -0.685 NA 
HETATM   32  C   UNL     1     -12.284  14.537  66.346  1.00  0.00    -0.252 C  
ENDBRANCH  17  26
ENDBRANCH  15  17
ENDBRANCH  13  15
ENDBRANCH  12  13
ENDBRANCH   9  12
ENDBRANCH   5   6
ENDBRANCH   4   5
TORSDOF 9
ENDMDL
MODEL       24
REMARK 921   NORMALIZED FREE ENERGY PREDICTED BY IDOCK:   -6.78 KCAL/MOL
REMARK 922        TOTAL FREE ENERGY PREDICTED BY IDOCK:  -11.81 KCAL/MOL
REMARK 923 INTER-LIGAND FREE ENERGY PREDICTED BY IDOCK:  -10.31 KCAL/MOL
REMARK 924 INTRA-LIGAND FREE ENERGY PREDICTED BY IDOCK:   -1.50 KCAL/MOL
REMARK 927      BINDING AFFINITY PREDICTED BY RF-SCORE:    0.00 PKD
ROOT
HETATM    1  C   UNL     1     -10.746  20.166  65.459  1.00  0.00    -0.191 C  
HETATM    2  C   UNL     1     -10.581  19.667  66.895  1.00  0.00    -0.603 C  
HETATM    3  C   UNL     1     -10.759  18.152  66.952  1.00  0.00    -0.246 C  
HETATM    4  C   UNL     1      -9.251  20.132  67.518  1.00  0.00    -0.368 C  
ENDROOT
BRANCH   4   5
HETATM    5  O   UNL     1      -8.101  19.613  66.835  1.00  0.00    -0.266 OA 
BRANCH   5   6
HETATM    6  C   UNL     1      -7.733  18.341  67.205  1.00  0.00    -0.219 A  
HETATM    7  C   UNL     1      -7.515  17.281  66.321  1.00  0.00    -0.354 A  
HETATM    8  C   UNL     1      -7.374  15.965  66.804  1.00  0.00    -0.140 A  
HETATM    9  C   UNL     1      -7.417  15.703  68.178  1.00  0.00    -0.129 A  
HETATM   10  C   UNL     1      -7.459  16.798  69.059  1.00  0.00    -0.228 A  
HETATM   11  C   UNL     1      -7.618  18.103  68.574  1.00  0.00    -0.298 A  
BRANCH   9  12
HETATM   12  C   UNL     1      -7.666  14.305  68.705  1.00  0.00    -0.134 C  
BRANCH  12  13
HETATM   13  N   UNL     1      -9.038  13.976  69.024  1.00  0.00    -0.392 N  
HETATM   14  H   UNL     1      -9.592  14.587  69.623  1.00  0.00     0.000 HD 
BRANCH  13  15
HETATM   15  C   UNL     1      -9.579  12.826  68.505  1.00  0.00    -0.110 C  
HETATM   16  O   UNL     1      -8.850  11.920  68.094  1.00  0.00    -0.166 OA 
BRANCH  15  17
HETATM   17  N   UNL     1     -10.975  12.724  68.498  1.00  0.00    -0.247 N  
BRANCH  17  18
HETATM   18  C   UNL     1     -11.566  12.262  69.785  1.00  0.00    -0.243 C  
BRANCH  18  19
HETATM   19  C   UNL     1     -12.409  13.295  70.539  1.00  0.00    -0.389 A  
HETATM   20  C   UNL     1     -13.437  15.162  72.337  1.00  0.00    -0.449 A  
HETATM   21  C   UNL     1     -12.333  14.667  70.254  1.00  0.00    -0.406 A  
HETATM   22  C   UNL     1     -12.819  15.599  71.173  1.00  0.00    -0.540 A  
HETATM   23  F   UNL     1     -13.791  16.055  73.274  1.00  0.00    -0.654 F  
HETATM   24  C   UNL     1     -13.657  13.811  72.564  1.00  0.00    -0.680 A  
HETATM   25  C   UNL     1     -13.164  12.875  71.653  1.00  0.00    -0.416 A  
ENDBRANCH  18  19
ENDBRANCH  17  18
BRANCH  17  26
HETATM   26  C   UNL     1     -11.848  12.820  67.269  1.00  0.00    -0.350 C  
HETATM   27  C   UNL     1     -11.955  14.207  66.609  1.00  0.00    -0.470 C  
HETATM   28  C   UNL     1     -11.596  11.760  66.151  1.00  0.00    -0.215 C  
HETATM   29  C   UNL     1     -12.124  13.701  63.711  1.00  0.00    -0.382 C  
HETATM   30  C   UNL     1     -10.833  14.470  65.617  1.00  0.00    -0.326 C  
HETATM   31  N   UNL     1     -10.896  13.544  64.491  1.00  0.00    -0.399 NA 
HETATM   32  C   UNL     1     -10.700  12.181  64.979  1.00  0.00    -0.297 C  
ENDBRANCH  17  26
ENDBRANCH  15  17
ENDBRANCH  13  15
ENDBRANCH  12  13
ENDBRANCH   9  12
ENDBRANCH   5   6
ENDBRANCH   4   5
TORSDOF 9
ENDMDL
MODEL       25
REMARK 921   NORMALIZED FREE ENERGY PREDICTED BY IDOCK:   -6.76 KCAL/MOL
REMARK 922        TOTAL FREE ENERGY PREDICTED BY IDOCK:  -11.78 KCAL/MOL
REMARK 923 INTER-LIGAND FREE ENERGY PREDICTED BY IDOCK:  -10.17 KCAL/MOL
REMARK 924 INTRA-LIGAND FREE ENERGY PREDICTED BY IDOCK:   -1.62 KCAL/MOL
REMARK 927      BINDING AFFINITY PREDICTED BY RF-SCORE:    0.00 PKD
ROOT
HETATM    1  C   UNL     1     -11.155   6.340  69.741  1.00  0.00    -0.473 C  
HETATM    2  C   UNL     1     -11.888   6.529  71.070  1.00  0.00    -0.390 C  
HETATM    3  C   UNL     1     -11.167   5.769  72.182  1.00  0.00    -0.327 C  
HETATM    4  C   UNL     1     -12.097   8.017  71.408  1.00  0.00    -0.305 C  
ENDROOT
BRANCH   4   5
HETATM    5  O   UNL     1     -10.864   8.729  71.585  1.00  0.00    -0.276 OA 
BRANCH   5   6
HETATM    6  C   UNL     1     -10.504   9.535  70.532  1.00  0.00    -0.296 A  
HETATM    7  C   UNL     1      -9.223   9.601  69.975  1.00  0.00    -0.275 A  
HETATM    8  C   UNL     1      -8.893  10.620  69.061  1.00  0.00    -0.154 A  
HETATM    9  C   UNL     1      -9.850  11.565  68.671  1.00  0.00    -0.184 A  
HETATM   10  C   UNL     1     -11.175  11.379  69.103  1.00  0.00    -0.335 A  
HETATM   11  C   UNL     1     -11.495  10.374  70.025  1.00  0.00    -0.382 A  
BRANCH   9  12
HETATM   12  C   UNL     1      -9.447  12.873  68.024  1.00  0.00    -0.213 C  
BRANCH  12  13
HETATM   13  N   UNL     1     -10.221  13.283  66.874  1.00  0.00    -0.248 N  
HETATM   14  H   UNL     1     -10.044  12.874  65.956  1.00  0.00     0.000 HD 
BRANCH  13  15
HETATM   15  C   UNL     1     -11.198  14.233  67.040  1.00  0.00    -0.323 C  
HETATM   16  O   UNL     1     -12.355  14.013  66.675  1.00  0.00    -0.451 OA 
BRANCH  15  17
HETATM   17  N   UNL     1     -10.825  15.429  67.665  1.00  0.00    -0.297 N  
BRANCH  17  18
HETATM   18  C   UNL     1     -11.872  16.014  68.550  1.00  0.00    -0.120 C  
BRANCH  18  19
HETATM   19  C   UNL     1     -11.937  15.442  69.970  1.00  0.00    -0.383 A  
HETATM   20  C   UNL     1     -12.616  14.750  72.584  1.00  0.00    -0.355 A  
HETATM   21  C   UNL     1     -12.516  14.194  70.242  1.00  0.00    -0.416 A  
HETATM   22  C   UNL     1     -12.885  13.865  71.548  1.00  0.00    -0.441 A  
HETATM   23  F   UNL     1     -13.081  14.488  73.816  1.00  0.00    -0.497 F  
HETATM   24  C   UNL     1     -11.908  15.921  72.356  1.00  0.00    -0.618 A  
HETATM   25  C   UNL     1     -11.546  16.259  71.051  1.00  0.00    -0.343 A  
ENDBRANCH  18  19
ENDBRANCH  17  18
BRANCH  17  26
HETATM   26  C   UNL     1      -9.593  16.237  67.333  1.00  0.00    -0.230 C  
HETATM   27  C   UNL     1      -9.627  17.027  66.012  1.00  0.00    -0.215 C  
HETATM   28  C   UNL     1      -9.050  17.175  68.456  1.00  0.00    -0.265 C  
HETATM   29  C   UNL     1      -8.148  19.521  66.537  1.00  0.00    -0.310 C  
HETATM   30  C   UNL     1     -10.267  18.397  66.167  1.00  0.00    -0.389 C  
HETATM   31  N   UNL     1      -9.487  19.247  67.060  1.00  0.00    -0.312 NA 
HETATM   32  C   UNL     1      -9.467  18.651  68.394  1.00  0.00    -0.343 C  
ENDBRANCH  17  26
ENDBRANCH  15  17
ENDBRANCH  13  15
ENDBRANCH  12  13
ENDBRANCH   9  12
ENDBRANCH   5   6
ENDBRANCH   4   5
TORSDOF 9
ENDMDL
MODEL       26
REMARK 921   NORMALIZED FREE ENERGY PREDICTED BY IDOCK:   -6.73 KCAL/MOL
REMARK 922        TOTAL FREE ENERGY PREDICTED BY IDOCK:  -11.74 KCAL/MOL
REMARK 923 INTER-LIGAND FREE ENERGY PREDICTED BY IDOCK:   -9.34 KCAL/MOL
REMARK 924 INTRA-LIGAND FREE ENERGY PREDICTED BY IDOCK:   -2.40 KCAL/MOL
REMARK 927      BINDING AFFINITY PREDICTED BY RF-SCORE:    0.00 PKD
ROOT
HETATM    1  C   UNL     1     -13.466  15.970  73.324  1.00  0.00    -0.570 C  
HETATM    2  C   UNL     1     -13.146  15.665  71.860  1.00  0.00    -0.545 C  
HETATM    3  C   UNL     1     -11.636  15.699  71.632  1.00  0.00    -0.519 C  
HETATM    4  C   UNL     1     -13.787  14.345  71.392  1.00  0.00    -0.337 C  
ENDROOT
BRANCH   4   5
HETATM    5  O   UNL     1     -13.294  13.200  72.103  1.00  0.00    -0.482 OA 
BRANCH   5   6
HETATM    6  C   UNL     1     -12.850  12.172  71.306  1.00  0.00    -0.250 A  
HETATM    7  C   UNL     1     -12.940  10.814  71.627  1.00  0.00    -0.581 A  
HETATM    8  C   UNL     1     -12.249   9.852  70.863  1.00  0.00    -0.420 A  
HETATM    9  C   UNL     1     -11.488  10.237  69.753  1.00  0.00    -0.320 A  
HETATM   10  C   UNL     1     -11.552  11.579  69.342  1.00  0.00    -0.388 A  
HETATM   11  C   UNL     1     -12.225  12.536  70.114  1.00  0.00    -0.307 A  
BRANCH   9  12
HETATM   12  C   UNL     1     -10.439   9.318  69.162  1.00  0.00    -0.217 C  
BRANCH  12  13
HETATM   13  N   UNL     1      -9.708   9.832  68.025  1.00  0.00    -0.143 N  
HETATM   14  H   UNL     1      -9.008  10.563  68.145  1.00  0.00     0.000 HD 
BRANCH  13  15
HETATM   15  C   UNL     1      -9.976   9.316  66.781  1.00  0.00    -0.245 C  
HETATM   16  O   UNL     1     -10.601   8.259  66.661  1.00  0.00    -0.268 OA 
BRANCH  15  17
HETATM   17  N   UNL     1      -9.539  10.057  65.676  1.00  0.00    -0.231 N  
BRANCH  17  18
HETATM   18  C   UNL     1     -10.609  10.846  65.001  1.00  0.00    -0.217 C  
BRANCH  18  19
HETATM   19  C   UNL     1     -10.833  12.260  65.545  1.00  0.00    -0.319 A  
HETATM   20  C   UNL     1     -11.429  14.511  67.078  1.00  0.00    -0.370 A  
HETATM   21  C   UNL     1      -9.803  12.997  66.148  1.00  0.00    -0.275 A  
HETATM   22  C   UNL     1     -10.109  14.104  66.943  1.00  0.00    -0.258 A  
HETATM   23  F   UNL     1     -11.733  15.496  67.939  1.00  0.00    -0.341 F  
HETATM   24  C   UNL     1     -12.445  13.888  66.368  1.00  0.00    -0.414 A  
HETATM   25  C   UNL     1     -12.146  12.775  65.580  1.00  0.00    -0.514 A  
ENDBRANCH  18  19
ENDBRANCH  17  18
BRANCH  17  26
HETATM   26  C   UNL     1      -8.185   9.926  65.022  1.00  0.00    -0.143 C  
HETATM   27  C   UNL     1      -7.313   8.742  65.479  1.00  0.00    -0.085 C  
HETATM   28  C   UNL     1      -8.154   9.987  63.462  1.00  0.00    -0.159 C  
HETATM   29  C   UNL     1      -5.856   7.849  63.079  1.00  0.00    -0.063 C  
HETATM   30  C   UNL     1      -7.612   7.465  64.710  1.00  0.00    -0.103 C  
HETATM   31  N   UNL     1      -7.284   7.611  63.296  1.00  0.00    -0.078 NA 
HETATM   32  C   UNL     1      -8.130   8.648  62.712  1.00  0.00    -0.178 C  
ENDBRANCH  17  26
ENDBRANCH  15  17
ENDBRANCH  13  15
ENDBRANCH  12  13
ENDBRANCH   9  12
ENDBRANCH   5   6
ENDBRANCH   4   5
TORSDOF 9
ENDMDL
MODEL       27
REMARK 921   NORMALIZED FREE ENERGY PREDICTED BY IDOCK:   -6.68 KCAL/MOL
REMARK 922        TOTAL FREE ENERGY PREDICTED BY IDOCK:  -11.66 KCAL/MOL
REMARK 923 INTER-LIGAND FREE ENERGY PREDICTED BY IDOCK:  -10.36 KCAL/MOL
REMARK 924 INTRA-LIGAND FREE ENERGY PREDICTED BY IDOCK:   -1.31 KCAL/MOL
REMARK 927      BINDING AFFINITY PREDICTED BY RF-SCORE:    0.00 PKD
ROOT
HETATM    1  C   UNL     1     -10.138   6.344  73.921  1.00  0.00    -0.305 C  
HETATM    2  C   UNL     1     -10.662   5.382  72.854  1.00  0.00    -0.296 C  
HETATM    3  C   UNL     1     -11.630   4.379  73.477  1.00  0.00    -0.193 C  
HETATM    4  C   UNL     1     -11.273   6.129  71.653  1.00  0.00    -0.286 C  
ENDROOT
BRANCH   4   5
HETATM    5  O   UNL     1     -12.420   6.915  72.007  1.00  0.00    -0.312 OA 
BRANCH   5   6
HETATM    6  C   UNL     1     -12.265   8.271  71.844  1.00  0.00    -0.337 A  
HETATM    7  C   UNL     1     -13.164   9.240  72.302  1.00  0.00    -0.535 A  
HETATM    8  C   UNL     1     -13.042  10.580  71.884  1.00  0.00    -0.567 A  
HETATM    9  C   UNL     1     -12.003  10.969  71.032  1.00  0.00    -0.334 A  
HETATM   10  C   UNL     1     -11.011  10.022  70.725  1.00  0.00    -0.375 A  
HETATM   11  C   UNL     1     -11.144   8.686  71.127  1.00  0.00    -0.324 A  
BRANCH   9  12
HETATM   12  C   UNL     1     -12.064  12.270  70.260  1.00  0.00    -0.295 C  
BRANCH  12  13
HETATM   13  N   UNL     1     -11.087  12.435  69.206  1.00  0.00    -0.413 N  
HETATM   14  H   UNL     1     -10.124  12.691  69.425  1.00  0.00     0.000 HD 
BRANCH  13  15
HETATM   15  C   UNL     1     -11.480  12.240  67.905  1.00  0.00    -0.330 C  
HETATM   16  O   UNL     1     -12.148  11.251  67.593  1.00  0.00    -0.600 OA 
BRANCH  15  17
HETATM   17  N   UNL     1     -11.120  13.224  66.976  1.00  0.00    -0.276 N  
BRANCH  17  18
HETATM   18  C   UNL     1     -12.010  14.420  66.967  1.00  0.00    -0.395 C  
BRANCH  18  19
HETATM   19  C   UNL     1     -11.356  15.738  67.392  1.00  0.00    -0.106 A  
HETATM   20  C   UNL     1      -9.656  17.744  68.316  1.00  0.00    -0.312 A  
HETATM   21  C   UNL     1     -10.666  16.553  66.483  1.00  0.00    -0.144 A  
HETATM   22  C   UNL     1      -9.789  17.534  66.950  1.00  0.00    -0.302 A  
HETATM   23  F   UNL     1      -8.724  18.600  68.766  1.00  0.00    -0.339 F  
HETATM   24  C   UNL     1     -10.443  17.053  69.225  1.00  0.00    -0.293 A  
HETATM   25  C   UNL     1     -11.313  16.064  68.764  1.00  0.00    -0.380 A  
ENDBRANCH  18  19
ENDBRANCH  17  18
BRANCH  17  26
HETATM   26  C   UNL     1     -10.091  13.053  65.884  1.00  0.00    -0.288 C  
HETATM   27  C   UNL     1      -9.434  11.665  65.772  1.00  0.00    -0.244 C  
HETATM   28  C   UNL     1     -10.506  13.520  64.454  1.00  0.00    -0.366 C  
HETATM   29  C   UNL     1      -9.006  11.217  62.891  1.00  0.00    -0.256 C  
HETATM   30  C   UNL     1     -10.243  10.704  64.915  1.00  0.00    -0.324 C  
HETATM   31  N   UNL     1     -10.320  11.165  63.533  1.00  0.00    -0.378 NA 
HETATM   32  C   UNL     1     -11.026  12.443  63.492  1.00  0.00    -0.450 C  
ENDBRANCH  17  26
ENDBRANCH  15  17
ENDBRANCH  13  15
ENDBRANCH  12  13
ENDBRANCH   9  12
ENDBRANCH   5   6
ENDBRANCH   4   5
TORSDOF 9
ENDMDL
MODEL       28
REMARK 921   NORMALIZED FREE ENERGY PREDICTED BY IDOCK:   -6.61 KCAL/MOL
REMARK 922        TOTAL FREE ENERGY PREDICTED BY IDOCK:  -11.56 KCAL/MOL
REMARK 923 INTER-LIGAND FREE ENERGY PREDICTED BY IDOCK:   -9.29 KCAL/MOL
REMARK 924 INTRA-LIGAND FREE ENERGY PREDICTED BY IDOCK:   -2.27 KCAL/MOL
REMARK 927      BINDING AFFINITY PREDICTED BY RF-SCORE:    0.00 PKD
ROOT
HETATM    1  C   UNL     1     -11.325  15.702  64.719  1.00  0.00    -0.348 C  
HETATM    2  C   UNL     1     -11.671  14.218  64.861  1.00  0.00    -0.399 C  
HETATM    3  C   UNL     1     -10.406  13.369  64.753  1.00  0.00    -0.397 C  
HETATM    4  C   UNL     1     -12.469  13.933  66.148  1.00  0.00    -0.436 C  
ENDROOT
BRANCH   4   5
HETATM    5  O   UNL     1     -11.732  14.236  67.342  1.00  0.00    -0.354 OA 
BRANCH   5   6
HETATM    6  C   UNL     1     -11.756  13.252  68.301  1.00  0.00    -0.353 A  
HETATM    7  C   UNL     1     -11.593  11.886  68.052  1.00  0.00    -0.401 A  
HETATM    8  C   UNL     1     -11.867  10.939  69.058  1.00  0.00    -0.370 A  
HETATM    9  C   UNL     1     -12.274  11.351  70.332  1.00  0.00    -0.450 A  
HETATM   10  C   UNL     1     -12.261  12.727  70.616  1.00  0.00    -0.374 A  
HETATM   11  C   UNL     1     -12.006  13.666  69.609  1.00  0.00    -0.402 A  
BRANCH   9  12
HETATM   12  C   UNL     1     -12.946  10.391  71.292  1.00  0.00    -0.419 C  
BRANCH  12  13
HETATM   13  N   UNL     1     -12.158   9.254  71.715  1.00  0.00    -0.369 N  
HETATM   14  H   UNL     1     -11.230   9.386  72.118  1.00  0.00     0.000 HD 
BRANCH  13  15
HETATM   15  C   UNL     1     -12.682   7.995  71.562  1.00  0.00    -0.307 C  
HETATM   16  O   UNL     1     -13.903   7.824  71.515  1.00  0.00    -0.371 OA 
BRANCH  15  17
HETATM   17  N   UNL     1     -11.773   6.937  71.429  1.00  0.00    -0.297 N  
BRANCH  17  18
HETATM   18  C   UNL     1     -11.601   6.444  70.033  1.00  0.00    -0.377 C  
BRANCH  18  19
HETATM   19  C   UNL     1     -10.576   7.201  69.183  1.00  0.00    -0.227 A  
HETATM   20  C   UNL     1      -9.161   9.061  67.663  1.00  0.00    -0.136 A  
HETATM   21  C   UNL     1      -9.527   7.932  69.759  1.00  0.00    -0.163 A  
HETATM   22  C   UNL     1      -8.843   8.887  69.004  1.00  0.00    -0.136 A  
HETATM   23  F   UNL     1      -8.591  10.061  66.972  1.00  0.00    -0.123 F  
HETATM   24  C   UNL     1     -10.090   8.242  67.038  1.00  0.00    -0.353 A  
HETATM   25  C   UNL     1     -10.783   7.293  67.791  1.00  0.00    -0.267 A  
ENDBRANCH  18  19
ENDBRANCH  17  18
BRANCH  17  26
HETATM   26  C   UNL     1     -11.174   6.157  72.575  1.00  0.00    -0.287 C  
HETATM   27  C   UNL     1     -10.364   4.902  72.201  1.00  0.00    -0.263 C  
HETATM   28  C   UNL     1     -10.361   6.975  73.626  1.00  0.00    -0.412 C  
HETATM   29  C   UNL     1      -8.159   4.766  74.152  1.00  0.00    -0.100 C  
HETATM   30  C   UNL     1      -8.910   5.217  71.888  1.00  0.00    -0.135 C  
HETATM   31  N   UNL     1      -8.218   5.741  73.061  1.00  0.00    -0.118 NA 
HETATM   32  C   UNL     1      -8.836   7.004  73.459  1.00  0.00    -0.143 C  
ENDBRANCH  17  26
ENDBRANCH  15  17
ENDBRANCH  13  15
ENDBRANCH  12  13
ENDBRANCH   9  12
ENDBRANCH   5   6
ENDBRANCH   4   5
TORSDOF 9
ENDMDL
MODEL       29
REMARK 921   NORMALIZED FREE ENERGY PREDICTED BY IDOCK:   -6.58 KCAL/MOL
REMARK 922        TOTAL FREE ENERGY PREDICTED BY IDOCK:  -11.51 KCAL/MOL
REMARK 923 INTER-LIGAND FREE ENERGY PREDICTED BY IDOCK:   -9.89 KCAL/MOL
REMARK 924 INTRA-LIGAND FREE ENERGY PREDICTED BY IDOCK:   -1.63 KCAL/MOL
REMARK 927      BINDING AFFINITY PREDICTED BY RF-SCORE:    0.00 PKD
ROOT
HETATM    1  C   UNL     1     -10.119  20.010  67.587  1.00  0.00    -0.562 C  
HETATM    2  C   UNL     1      -9.137  18.838  67.650  1.00  0.00    -0.304 C  
HETATM    3  C   UNL     1      -7.977  19.171  68.585  1.00  0.00    -0.398 C  
HETATM    4  C   UNL     1      -9.839  17.518  68.021  1.00  0.00    -0.299 C  
ENDROOT
BRANCH   4   5
HETATM    5  O   UNL     1     -10.432  17.547  69.328  1.00  0.00    -0.321 OA 
BRANCH   5   6
HETATM    6  C   UNL     1     -11.132  16.415  69.671  1.00  0.00    -0.306 A  
HETATM    7  C   UNL     1     -11.405  16.009  70.981  1.00  0.00    -0.423 A  
HETATM    8  C   UNL     1     -11.918  14.722  71.237  1.00  0.00    -0.404 A  
HETATM    9  C   UNL     1     -12.193  13.843  70.184  1.00  0.00    -0.425 A  
HETATM   10  C   UNL     1     -12.080  14.330  68.870  1.00  0.00    -0.314 A  
HETATM   11  C   UNL     1     -11.553  15.603  68.619  1.00  0.00    -0.391 A  
BRANCH   9  12
HETATM   12  C   UNL     1     -12.360  12.356  70.423  1.00  0.00    -0.227 C  
BRANCH  12  13
HETATM   13  N   UNL     1     -11.238  11.520  70.057  1.00  0.00    -0.489 N  
HETATM   14  H   UNL     1     -10.555  11.232  70.757  1.00  0.00     0.000 HD 
BRANCH  13  15
HETATM   15  C   UNL     1     -11.110  11.123  68.749  1.00  0.00    -0.236 C  
HETATM   16  O   UNL     1     -12.097  11.064  68.012  1.00  0.00    -0.615 OA 
BRANCH  15  17
HETATM   17  N   UNL     1      -9.819  10.826  68.296  1.00  0.00    -0.161 N  
BRANCH  17  18
HETATM   18  C   UNL     1      -9.184  11.908  67.492  1.00  0.00    -0.177 C  
BRANCH  18  19
HETATM   19  C   UNL     1      -9.837  12.200  66.137  1.00  0.00    -0.254 A  
HETATM   20  C   UNL     1     -11.552  12.448  63.954  1.00  0.00    -0.441 A  
HETATM   21  C   UNL     1     -10.452  13.429  65.859  1.00  0.00    -0.287 A  
HETATM   22  C   UNL     1     -11.337  13.540  64.784  1.00  0.00    -0.362 A  
HETATM   23  F   UNL     1     -12.494  12.518  62.999  1.00  0.00    -0.547 F  
HETATM   24  C   UNL     1     -10.838  11.271  64.123  1.00  0.00    -0.407 A  
HETATM   25  C   UNL     1      -9.960  11.152  65.202  1.00  0.00    -0.323 A  
ENDBRANCH  18  19
ENDBRANCH  17  18
BRANCH  17  26
HETATM   26  C   UNL     1      -9.164   9.467  68.365  1.00  0.00    -0.127 C  
HETATM   27  C   UNL     1      -8.226   9.217  69.561  1.00  0.00    -0.120 C  
HETATM   28  C   UNL     1     -10.105   8.231  68.210  1.00  0.00    -0.231 C  
HETATM   29  C   UNL     1      -8.593   6.384  70.284  1.00  0.00    -0.135 C  
HETATM   30  C   UNL     1      -8.969   8.727  70.793  1.00  0.00    -0.192 C  
HETATM   31  N   UNL     1      -9.584   7.425  70.557  1.00  0.00    -0.172 NA 
HETATM   32  C   UNL     1     -10.585   7.552  69.500  1.00  0.00    -0.236 C  
ENDBRANCH  17  26
ENDBRANCH  15  17
ENDBRANCH  13  15
ENDBRANCH  12  13
ENDBRANCH   9  12
ENDBRANCH   5   6
ENDBRANCH   4   5
TORSDOF 9
ENDMDL
MODEL       30
REMARK 921   NORMALIZED FREE ENERGY PREDICTED BY IDOCK:   -6.58 KCAL/MOL
REMARK 922        TOTAL FREE ENERGY PREDICTED BY IDOCK:  -11.51 KCAL/MOL
REMARK 923 INTER-LIGAND FREE ENERGY PREDICTED BY IDOCK:   -9.39 KCAL/MOL
REMARK 924 INTRA-LIGAND FREE ENERGY PREDICTED BY IDOCK:   -2.11 KCAL/MOL
REMARK 927      BINDING AFFINITY PREDICTED BY RF-SCORE:    0.00 PKD
ROOT
HETATM    1  C   UNL     1     -12.740  16.249  73.878  1.00  0.00    -0.586 C  
HETATM    2  C   UNL     1     -12.979  15.125  72.868  1.00  0.00    -0.561 C  
HETATM    3  C   UNL     1     -14.296  15.350  72.130  1.00  0.00    -0.642 C  
HETATM    4  C   UNL     1     -11.785  14.945  71.911  1.00  0.00    -0.313 C  
ENDROOT
BRANCH   4   5
HETATM    5  O   UNL     1     -11.543  16.101  71.096  1.00  0.00    -0.419 OA 
BRANCH   5   6
HETATM    6  C   UNL     1     -11.308  15.833  69.768  1.00  0.00    -0.339 A  
HETATM    7  C   UNL     1     -12.182  15.144  68.923  1.00  0.00    -0.138 A  
HETATM    8  C   UNL     1     -11.755  14.713  67.651  1.00  0.00    -0.389 A  
HETATM    9  C   UNL     1     -10.461  14.997  67.201  1.00  0.00    -0.277 A  
HETATM   10  C   UNL     1      -9.658  15.840  67.988  1.00  0.00    -0.210 A  
HETATM   11  C   UNL     1     -10.079  16.251  69.260  1.00  0.00    -0.267 A  
BRANCH   9  12
HETATM   12  C   UNL     1      -9.844  14.234  66.047  1.00  0.00    -0.314 C  
BRANCH  12  13
HETATM   13  N   UNL     1      -8.744  13.355  66.377  1.00  0.00    -0.425 N  
HETATM   14  H   UNL     1      -7.855  13.428  65.884  1.00  0.00     0.000 HD 
BRANCH  13  15
HETATM   15  C   UNL     1      -8.921  12.420  67.367  1.00  0.00    -0.185 C  
HETATM   16  O   UNL     1      -8.471  12.612  68.499  1.00  0.00    -0.140 OA 
BRANCH  15  17
HETATM   17  N   UNL     1      -9.655  11.273  67.038  1.00  0.00    -0.177 N  
BRANCH  17  18
HETATM   18  C   UNL     1     -11.052  11.265  67.557  1.00  0.00    -0.286 C  
BRANCH  18  19
HETATM   19  C   UNL     1     -11.213  10.855  69.024  1.00  0.00    -0.327 A  
HETATM   20  C   UNL     1     -12.085   9.877  71.484  1.00  0.00    -0.410 A  
HETATM   21  C   UNL     1     -10.722   9.636  69.514  1.00  0.00    -0.252 A  
HETATM   22  C   UNL     1     -11.188   9.133  70.731  1.00  0.00    -0.336 A  
HETATM   23  F   UNL     1     -12.626   9.340  72.590  1.00  0.00    -0.409 F  
HETATM   24  C   UNL     1     -12.464  11.152  71.090  1.00  0.00    -0.498 A  
HETATM   25  C   UNL     1     -12.009  11.655  69.870  1.00  0.00    -0.414 A  
ENDBRANCH  18  19
ENDBRANCH  17  18
BRANCH  17  26
HETATM   26  C   UNL     1      -9.078  10.017  66.430  1.00  0.00    -0.149 C  
HETATM   27  C   UNL     1      -9.475   9.714  64.973  1.00  0.00    -0.312 C  
HETATM   28  C   UNL     1      -7.537   9.817  66.574  1.00  0.00    -0.098 C  
HETATM   29  C   UNL     1      -7.097   8.490  63.737  1.00  0.00    -0.092 C  
HETATM   30  C   UNL     1      -8.570  10.405  63.966  1.00  0.00    -0.175 C  
HETATM   31  N   UNL     1      -7.200   9.913  64.062  1.00  0.00    -0.130 NA 
HETATM   32  C   UNL     1      -6.665  10.237  65.383  1.00  0.00    -0.123 C  
ENDBRANCH  17  26
ENDBRANCH  15  17
ENDBRANCH  13  15
ENDBRANCH  12  13
ENDBRANCH   9  12
ENDBRANCH   5   6
ENDBRANCH   4   5
TORSDOF 9
ENDMDL
MODEL       31
REMARK 921   NORMALIZED FREE ENERGY PREDICTED BY IDOCK:   -6.53 KCAL/MOL
REMARK 922        TOTAL FREE ENERGY PREDICTED BY IDOCK:  -11.43 KCAL/MOL
REMARK 923 INTER-LIGAND FREE ENERGY PREDICTED BY IDOCK:   -8.82 KCAL/MOL
REMARK 924 INTRA-LIGAND FREE ENERGY PREDICTED BY IDOCK:   -2.60 KCAL/MOL
REMARK 927      BINDING AFFINITY PREDICTED BY RF-SCORE:    0.00 PKD
ROOT
HETATM    1  C   UNL     1     -10.005   5.339  70.719  1.00  0.00    -0.279 C  
HETATM    2  C   UNL     1     -11.052   6.061  69.870  1.00  0.00    -0.469 C  
HETATM    3  C   UNL     1     -11.882   7.001  70.742  1.00  0.00    -0.401 C  
HETATM    4  C   UNL     1     -10.421   6.776  68.660  1.00  0.00    -0.206 C  
ENDROOT
BRANCH   4   5
HETATM    5  O   UNL     1      -9.505   7.813  69.039  1.00  0.00    -0.150 OA 
BRANCH   5   6
HETATM    6  C   UNL     1      -9.294   8.777  68.082  1.00  0.00    -0.140 A  
HETATM    7  C   UNL     1      -8.332   9.789  68.161  1.00  0.00    -0.110 A  
HETATM    8  C   UNL     1      -8.349  10.864  67.252  1.00  0.00    -0.123 A  
HETATM    9  C   UNL     1      -9.309  10.921  66.235  1.00  0.00    -0.203 A  
HETATM   10  C   UNL     1     -10.154   9.812  66.062  1.00  0.00    -0.322 A  
HETATM   11  C   UNL     1     -10.146   8.753  66.978  1.00  0.00    -0.335 A  
BRANCH   9  12
HETATM   12  C   UNL     1      -9.608  12.215  65.507  1.00  0.00    -0.128 C  
BRANCH  12  13
HETATM   13  N   UNL     1     -10.927  12.773  65.711  1.00  0.00    -0.272 N  
HETATM   14  H   UNL     1     -11.760  12.205  65.560  1.00  0.00     0.000 HD 
BRANCH  13  15
HETATM   15  C   UNL     1     -11.035  14.082  66.111  1.00  0.00    -0.295 C  
HETATM   16  O   UNL     1     -11.401  14.952  65.317  1.00  0.00    -0.344 OA 
BRANCH  15  17
HETATM   17  N   UNL     1     -10.747  14.365  67.452  1.00  0.00    -0.277 N  
BRANCH  17  18
HETATM   18  C   UNL     1     -11.925  14.298  68.363  1.00  0.00    -0.309 C  
BRANCH  18  19
HETATM   19  C   UNL     1     -11.886  13.187  69.417  1.00  0.00    -0.383 A  
HETATM   20  C   UNL     1     -12.429  11.047  71.119  1.00  0.00    -0.397 A  
HETATM   21  C   UNL     1     -11.372  11.913  69.135  1.00  0.00    -0.338 A  
HETATM   22  C   UNL     1     -11.675  10.837  69.972  1.00  0.00    -0.417 A  
HETATM   23  F   UNL     1     -12.822   9.995  71.855  1.00  0.00    -0.425 F  
HETATM   24  C   UNL     1     -12.816  12.325  71.494  1.00  0.00    -0.384 A  
HETATM   25  C   UNL     1     -12.526  13.402  70.655  1.00  0.00    -0.385 A  
ENDBRANCH  18  19
ENDBRANCH  17  18
BRANCH  17  26
HETATM   26  C   UNL     1      -9.444  14.933  67.959  1.00  0.00    -0.198 C  
HETATM   27  C   UNL     1      -8.386  15.282  66.896  1.00  0.00    -0.278 C  
HETATM   28  C   UNL     1      -9.546  16.125  68.963  1.00  0.00    -0.251 C  
HETATM   29  C   UNL     1      -7.017  17.694  67.892  1.00  0.00    -0.187 C  
HETATM   30  C   UNL     1      -8.570  16.680  66.326  1.00  0.00    -0.324 C  
HETATM   31  N   UNL     1      -8.378  17.698  67.353  1.00  0.00    -0.208 NA 
HETATM   32  C   UNL     1      -9.401  17.539  68.384  1.00  0.00    -0.287 C  
ENDBRANCH  17  26
ENDBRANCH  15  17
ENDBRANCH  13  15
ENDBRANCH  12  13
ENDBRANCH   9  12
ENDBRANCH   5   6
ENDBRANCH   4   5
TORSDOF 9
ENDMDL
MODEL       32
REMARK 921   NORMALIZED FREE ENERGY PREDICTED BY IDOCK:   -6.52 KCAL/MOL
REMARK 922        TOTAL FREE ENERGY PREDICTED BY IDOCK:  -11.41 KCAL/MOL
REMARK 923 INTER-LIGAND FREE ENERGY PREDICTED BY IDOCK:   -9.76 KCAL/MOL
REMARK 924 INTRA-LIGAND FREE ENERGY PREDICTED BY IDOCK:   -1.65 KCAL/MOL
REMARK 927      BINDING AFFINITY PREDICTED BY RF-SCORE:    0.00 PKD
ROOT
HETATM    1  C   UNL     1     -10.138   6.668  70.383  1.00  0.00    -0.205 C  
HETATM    2  C   UNL     1     -11.412   6.224  71.105  1.00  0.00    -0.362 C  
HETATM    3  C   UNL     1     -11.063   5.596  72.453  1.00  0.00    -0.324 C  
HETATM    4  C   UNL     1     -12.432   7.371  71.231  1.00  0.00    -0.346 C  
ENDROOT
BRANCH   4   5
HETATM    5  O   UNL     1     -11.948   8.467  72.020  1.00  0.00    -0.313 OA 
BRANCH   5   6
HETATM    6  C   UNL     1     -12.154   9.711  71.473  1.00  0.00    -0.401 A  
HETATM    7  C   UNL     1     -11.420  10.250  70.412  1.00  0.00    -0.415 A  
HETATM    8  C   UNL     1     -11.545  11.613  70.077  1.00  0.00    -0.338 A  
HETATM    9  C   UNL     1     -12.428  12.441  70.780  1.00  0.00    -0.356 A  
HETATM   10  C   UNL     1     -13.284  11.845  71.722  1.00  0.00    -0.426 A  
HETATM   11  C   UNL     1     -13.145  10.493  72.065  1.00  0.00    -0.511 A  
BRANCH   9  12
HETATM   12  C   UNL     1     -12.306  13.949  70.724  1.00  0.00    -0.378 C  
BRANCH  12  13
HETATM   13  N   UNL     1     -12.675  14.575  69.474  1.00  0.00    -0.527 N  
HETATM   14  H   UNL     1     -13.602  14.429  69.074  1.00  0.00     0.000 HD 
BRANCH  13  15
HETATM   15  C   UNL     1     -11.754  15.368  68.835  1.00  0.00    -0.359 C  
HETATM   16  O   UNL     1     -11.309  16.379  69.384  1.00  0.00    -0.296 OA 
BRANCH  15  17
HETATM   17  N   UNL     1     -11.330  14.957  67.565  1.00  0.00    -0.333 N  
BRANCH  17  18
HETATM   18  C   UNL     1     -10.097  15.637  67.077  1.00  0.00    -0.253 C  
BRANCH  18  19
HETATM   19  C   UNL     1      -8.777  15.110  67.649  1.00  0.00    -0.177 A  
HETATM   20  C   UNL     1      -6.692  14.208  69.265  1.00  0.00    -0.122 A  
HETATM   21  C   UNL     1      -8.508  13.738  67.754  1.00  0.00    -0.181 A  
HETATM   22  C   UNL     1      -7.484  13.288  68.591  1.00  0.00    -0.099 A  
HETATM   23  F   UNL     1      -5.792  13.775  70.163  1.00  0.00    -0.105 F  
HETATM   24  C   UNL     1      -6.845  15.571  69.055  1.00  0.00    -0.139 A  
HETATM   25  C   UNL     1      -7.873  16.025  68.227  1.00  0.00    -0.144 A  
ENDBRANCH  18  19
ENDBRANCH  17  18
BRANCH  17  26
HETATM   26  C   UNL     1     -12.129  14.094  66.618  1.00  0.00    -0.451 C  
HETATM   27  C   UNL     1     -12.183  14.554  65.150  1.00  0.00    -0.346 C  
HETATM   28  C   UNL     1     -11.826  12.563  66.645  1.00  0.00    -0.422 C  
HETATM   29  C   UNL     1     -12.192  12.085  63.541  1.00  0.00    -0.547 C  
HETATM   30  C   UNL     1     -11.004  14.047  64.336  1.00  0.00    -0.265 C  
HETATM   31  N   UNL     1     -11.012  12.591  64.244  1.00  0.00    -0.333 NA 
HETATM   32  C   UNL     1     -10.859  12.025  65.582  1.00  0.00    -0.282 C  
ENDBRANCH  17  26
ENDBRANCH  15  17
ENDBRANCH  13  15
ENDBRANCH  12  13
ENDBRANCH   9  12
ENDBRANCH   5   6
ENDBRANCH   4   5
TORSDOF 9
ENDMDL
MODEL       33
REMARK 921   NORMALIZED FREE ENERGY PREDICTED BY IDOCK:   -6.51 KCAL/MOL
REMARK 922        TOTAL FREE ENERGY PREDICTED BY IDOCK:  -11.40 KCAL/MOL
REMARK 923 INTER-LIGAND FREE ENERGY PREDICTED BY IDOCK:   -8.82 KCAL/MOL
REMARK 924 INTRA-LIGAND FREE ENERGY PREDICTED BY IDOCK:   -2.58 KCAL/MOL
REMARK 927      BINDING AFFINITY PREDICTED BY RF-SCORE:    0.00 PKD
ROOT
HETATM    1  C   UNL     1     -11.631   4.975  73.002  1.00  0.00    -0.299 C  
HETATM    2  C   UNL     1     -11.311   6.316  72.340  1.00  0.00    -0.333 C  
HETATM    3  C   UNL     1      -9.958   6.833  72.822  1.00  0.00    -0.190 C  
HETATM    4  C   UNL     1     -11.403   6.238  70.804  1.00  0.00    -0.332 C  
ENDROOT
BRANCH   4   5
HETATM    5  O   UNL     1     -10.451   5.331  70.232  1.00  0.00    -0.279 OA 
BRANCH   5   6
HETATM    6  C   UNL     1      -9.939   5.719  69.016  1.00  0.00    -0.169 A  
HETATM    7  C   UNL     1      -8.581   5.728  68.685  1.00  0.00    -0.109 A  
HETATM    8  C   UNL     1      -8.138   6.362  67.508  1.00  0.00    -0.117 A  
HETATM    9  C   UNL     1      -9.051   6.964  66.635  1.00  0.00    -0.172 A  
HETATM   10  C   UNL     1     -10.422   6.792  66.894  1.00  0.00    -0.350 A  
HETATM   11  C   UNL     1     -10.859   6.177  68.074  1.00  0.00    -0.398 A  
BRANCH   9  12
HETATM   12  C   UNL     1      -8.602   7.973  65.599  1.00  0.00    -0.145 C  
BRANCH  12  13
HETATM   13  N   UNL     1      -9.513   9.064  65.333  1.00  0.00    -0.450 N  
HETATM   14  H   UNL     1     -10.441   8.885  64.949  1.00  0.00     0.000 HD 
BRANCH  13  15
HETATM   15  C   UNL     1      -9.105  10.346  65.605  1.00  0.00    -0.176 C  
HETATM   16  O   UNL     1      -7.930  10.680  65.435  1.00  0.00    -0.148 OA 
BRANCH  15  17
HETATM   17  N   UNL     1     -10.083  11.248  66.044  1.00  0.00    -0.230 N  
BRANCH  17  18
HETATM   18  C   UNL     1     -11.233  10.615  66.750  1.00  0.00     0.076 C  
BRANCH  18  19
HETATM   19  C   UNL     1     -11.131  10.572  68.278  1.00  0.00    -0.340 A  
HETATM   20  C   UNL     1     -11.397  10.015  70.997  1.00  0.00    -0.357 A  
HETATM   21  C   UNL     1     -10.167   9.795  68.937  1.00  0.00    -0.213 A  
HETATM   22  C   UNL     1     -10.322   9.490  70.292  1.00  0.00    -0.321 A  
HETATM   23  F   UNL     1     -11.613   9.622  72.263  1.00  0.00    -0.314 F  
HETATM   24  C   UNL     1     -12.275  10.908  70.400  1.00  0.00    -0.453 A  
HETATM   25  C   UNL     1     -12.130  11.207  69.044  1.00  0.00    -0.315 A  
ENDBRANCH  18  19
ENDBRANCH  17  18
BRANCH  17  26
HETATM   26  C   UNL     1     -10.155  12.707  65.660  1.00  0.00    -0.272 C  
HETATM   27  C   UNL     1     -10.512  13.014  64.194  1.00  0.00    -0.395 C  
HETATM   28  C   UNL     1     -11.015  13.628  66.581  1.00  0.00    -0.295 C  
HETATM   29  C   UNL     1     -12.151  15.461  64.268  1.00  0.00    -0.166 C  
HETATM   30  C   UNL     1     -12.013  13.058  63.956  1.00  0.00    -0.456 C  
HETATM   31  N   UNL     1     -12.634  14.149  64.699  1.00  0.00    -0.667 NA 
HETATM   32  C   UNL     1     -12.453  13.917  66.131  1.00  0.00    -0.436 C  
ENDBRANCH  17  26
ENDBRANCH  15  17
ENDBRANCH  13  15
ENDBRANCH  12  13
ENDBRANCH   9  12
ENDBRANCH   5   6
ENDBRANCH   4   5
TORSDOF 9
ENDMDL
MODEL       34
REMARK 921   NORMALIZED FREE ENERGY PREDICTED BY IDOCK:   -6.50 KCAL/MOL
REMARK 922        TOTAL FREE ENERGY PREDICTED BY IDOCK:  -11.38 KCAL/MOL
REMARK 923 INTER-LIGAND FREE ENERGY PREDICTED BY IDOCK:   -9.85 KCAL/MOL
REMARK 924 INTRA-LIGAND FREE ENERGY PREDICTED BY IDOCK:   -1.54 KCAL/MOL
REMARK 927      BINDING AFFINITY PREDICTED BY RF-SCORE:    0.00 PKD
ROOT
HETATM    1  C   UNL     1     -13.195  10.913  71.682  1.00  0.00    -0.471 C  
HETATM    2  C   UNL     1     -12.998   9.528  72.300  1.00  0.00    -0.466 C  
HETATM    3  C   UNL     1     -14.197   8.635  71.988  1.00  0.00    -0.524 C  
HETATM    4  C   UNL     1     -11.659   8.893  71.877  1.00  0.00    -0.371 C  
ENDROOT
BRANCH   4   5
HETATM    5  O   UNL     1     -11.572   8.660  70.464  1.00  0.00    -0.243 OA 
BRANCH   5   6
HETATM    6  C   UNL     1     -10.523   9.290  69.837  1.00  0.00    -0.227 A  
HETATM    7  C   UNL     1      -9.183   9.190  70.223  1.00  0.00    -0.249 A  
HETATM    8  C   UNL     1      -8.215  10.052  69.672  1.00  0.00    -0.185 A  
HETATM    9  C   UNL     1      -8.572  11.000  68.707  1.00  0.00    -0.144 A  
HETATM   10  C   UNL     1      -9.885  10.968  68.204  1.00  0.00    -0.185 A  
HETATM   11  C   UNL     1     -10.849  10.121  68.767  1.00  0.00    -0.259 A  
BRANCH   9  12
HETATM   12  C   UNL     1      -7.675  12.179  68.391  1.00  0.00    -0.134 C  
BRANCH  12  13
HETATM   13  N   UNL     1      -8.225  13.490  68.656  1.00  0.00    -0.308 N  
HETATM   14  H   UNL     1      -8.805  13.653  69.479  1.00  0.00     0.000 HD 
BRANCH  13  15
HETATM   15  C   UNL     1      -7.953  14.510  67.778  1.00  0.00    -0.159 C  
HETATM   16  O   UNL     1      -6.832  14.621  67.274  1.00  0.00    -0.254 OA 
BRANCH  15  17
HETATM   17  N   UNL     1      -9.004  15.380  67.464  1.00  0.00    -0.180 N  
BRANCH  17  18
HETATM   18  C   UNL     1     -10.361  14.776  67.584  1.00  0.00    -0.237 C  
BRANCH  18  19
HETATM   19  C   UNL     1     -10.942  14.187  66.294  1.00  0.00    -0.303 A  
HETATM   20  C   UNL     1     -11.826  12.543  64.224  1.00  0.00    -0.395 A  
HETATM   21  C   UNL     1     -12.307  13.891  66.161  1.00  0.00    -0.504 A  
HETATM   22  C   UNL     1     -12.741  13.039  65.142  1.00  0.00    -0.461 A  
HETATM   23  F   UNL     1     -12.222  11.629  63.323  1.00  0.00    -0.589 F  
HETATM   24  C   UNL     1     -10.499  12.946  64.248  1.00  0.00    -0.430 A  
HETATM   25  C   UNL     1     -10.058  13.789  65.270  1.00  0.00    -0.312 A  
ENDBRANCH  18  19
ENDBRANCH  17  18
BRANCH  17  26
HETATM   26  C   UNL     1      -8.847  16.737  66.822  1.00  0.00    -0.230 C  
HETATM   27  C   UNL     1     -10.145  17.470  66.437  1.00  0.00    -0.346 C  
HETATM   28  C   UNL     1      -7.907  17.749  67.550  1.00  0.00    -0.214 C  
HETATM   29  C   UNL     1      -9.619  20.330  66.912  1.00  0.00    -0.427 C  
HETATM   30  C   UNL     1     -10.723  18.277  67.588  1.00  0.00    -0.348 C  
HETATM   31  N   UNL     1      -9.822  19.354  67.983  1.00  0.00    -0.345 NA 
HETATM   32  C   UNL     1      -8.572  18.778  68.474  1.00  0.00    -0.344 C  
ENDBRANCH  17  26
ENDBRANCH  15  17
ENDBRANCH  13  15
ENDBRANCH  12  13
ENDBRANCH   9  12
ENDBRANCH   5   6
ENDBRANCH   4   5
TORSDOF 9
ENDMDL
MODEL       35
REMARK 921   NORMALIZED FREE ENERGY PREDICTED BY IDOCK:   -6.48 KCAL/MOL
REMARK 922        TOTAL FREE ENERGY PREDICTED BY IDOCK:  -11.36 KCAL/MOL
REMARK 923 INTER-LIGAND FREE ENERGY PREDICTED BY IDOCK:   -9.63 KCAL/MOL
REMARK 924 INTRA-LIGAND FREE ENERGY PREDICTED BY IDOCK:   -1.73 KCAL/MOL
REMARK 927      BINDING AFFINITY PREDICTED BY RF-SCORE:    0.00 PKD
ROOT
HETATM    1  C   UNL     1      -9.339  19.165  68.623  1.00  0.00    -0.439 C  
HETATM    2  C   UNL     1      -9.374  17.779  67.976  1.00  0.00    -0.276 C  
HETATM    3  C   UNL     1      -8.207  16.932  68.478  1.00  0.00    -0.249 C  
HETATM    4  C   UNL     1     -10.736  17.087  68.171  1.00  0.00    -0.374 C  
ENDROOT
BRANCH   4   5
HETATM    5  O   UNL     1     -11.045  16.836  69.549  1.00  0.00    -0.240 OA 
BRANCH   5   6
HETATM    6  C   UNL     1     -11.604  15.606  69.803  1.00  0.00    -0.352 A  
HETATM    7  C   UNL     1     -12.066  15.178  71.051  1.00  0.00    -0.389 A  
HETATM    8  C   UNL     1     -12.401  13.827  71.264  1.00  0.00    -0.394 A  
HETATM    9  C   UNL     1     -12.309  12.898  70.221  1.00  0.00    -0.294 A  
HETATM   10  C   UNL     1     -12.015  13.378  68.933  1.00  0.00    -0.362 A  
HETATM   11  C   UNL     1     -11.664  14.719  68.730  1.00  0.00    -0.354 A  
BRANCH   9  12
HETATM   12  C   UNL     1     -12.274  11.408  70.495  1.00  0.00    -0.386 C  
BRANCH  12  13
HETATM   13  N   UNL     1     -11.963  10.559  69.367  1.00  0.00    -0.513 N  
HETATM   14  H   UNL     1     -12.682  10.319  68.683  1.00  0.00     0.000 HD 
BRANCH  13  15
HETATM   15  C   UNL     1     -10.683  10.081  69.233  1.00  0.00    -0.224 C  
HETATM   16  O   UNL     1      -9.972   9.905  70.226  1.00  0.00    -0.254 OA 
BRANCH  15  17
HETATM   17  N   UNL     1     -10.247   9.777  67.937  1.00  0.00    -0.182 N  
BRANCH  17  18
HETATM   18  C   UNL     1      -9.756  10.950  67.160  1.00  0.00    -0.174 C  
BRANCH  18  19
HETATM   19  C   UNL     1     -10.598  11.337  65.940  1.00  0.00    -0.309 A  
HETATM   20  C   UNL     1     -11.817  12.620  63.786  1.00  0.00    -0.498 A  
HETATM   21  C   UNL     1     -10.170  11.078  64.630  1.00  0.00    -0.392 A  
HETATM   22  C   UNL     1     -10.761  11.749  63.556  1.00  0.00    -0.501 A  
HETATM   23  F   UNL     1     -12.301  13.355  62.772  1.00  0.00    -0.498 F  
HETATM   24  C   UNL     1     -12.353  12.772  65.056  1.00  0.00    -0.559 A  
HETATM   25  C   UNL     1     -11.760  12.113  66.134  1.00  0.00    -0.384 A  
ENDBRANCH  18  19
ENDBRANCH  17  18
BRANCH  17  26
HETATM   26  C   UNL     1     -10.455   8.454  67.239  1.00  0.00    -0.303 C  
HETATM   27  C   UNL     1      -9.255   7.900  66.448  1.00  0.00    -0.241 C  
HETATM   28  C   UNL     1     -11.055   7.298  68.099  1.00  0.00     0.041 C  
HETATM   29  C   UNL     1      -9.364   4.974  66.781  1.00  0.00    -0.135 C  
HETATM   30  C   UNL     1      -8.306   7.091  67.318  1.00  0.00    -0.122 C  
HETATM   31  N   UNL     1      -8.958   5.896  67.842  1.00  0.00    -0.112 NA 
HETATM   32  C   UNL     1     -10.067   6.294  68.707  1.00  0.00    -0.161 C  
ENDBRANCH  17  26
ENDBRANCH  15  17
ENDBRANCH  13  15
ENDBRANCH  12  13
ENDBRANCH   9  12
ENDBRANCH   5   6
ENDBRANCH   4   5
TORSDOF 9
ENDMDL
MODEL       36
REMARK 921   NORMALIZED FREE ENERGY PREDICTED BY IDOCK:   -6.48 KCAL/MOL
REMARK 922        TOTAL FREE ENERGY PREDICTED BY IDOCK:  -11.35 KCAL/MOL
REMARK 923 INTER-LIGAND FREE ENERGY PREDICTED BY IDOCK:  -10.20 KCAL/MOL
REMARK 924 INTRA-LIGAND FREE ENERGY PREDICTED BY IDOCK:   -1.15 KCAL/MOL
REMARK 927      BINDING AFFINITY PREDICTED BY RF-SCORE:    0.00 PKD
ROOT
HETATM    1  C   UNL     1      -5.198  21.096  68.530  1.00  0.00    -0.301 C  
HETATM    2  C   UNL     1      -5.461  19.627  68.190  1.00  0.00    -0.207 C  
HETATM    3  C   UNL     1      -6.369  18.996  69.244  1.00  0.00    -0.314 C  
HETATM    4  C   UNL     1      -6.002  19.454  66.759  1.00  0.00    -0.165 C  
ENDROOT
BRANCH   4   5
HETATM    5  O   UNL     1      -7.273  20.090  66.560  1.00  0.00    -0.239 OA 
BRANCH   5   6
HETATM    6  C   UNL     1      -8.364  19.277  66.754  1.00  0.00    -0.296 A  
HETATM    7  C   UNL     1      -9.556  19.668  67.372  1.00  0.00    -0.455 A  
HETATM    8  C   UNL     1     -10.520  18.708  67.736  1.00  0.00    -0.457 A  
HETATM    9  C   UNL     1     -10.316  17.352  67.456  1.00  0.00    -0.351 A  
HETATM   10  C   UNL     1      -9.199  16.999  66.680  1.00  0.00    -0.277 A  
HETATM   11  C   UNL     1      -8.233  17.953  66.336  1.00  0.00    -0.287 A  
BRANCH   9  12
HETATM   12  C   UNL     1     -11.112  16.275  68.164  1.00  0.00    -0.329 C  
BRANCH  12  13
HETATM   13  N   UNL     1     -10.347  15.312  68.925  1.00  0.00    -0.234 N  
HETATM   14  H   UNL     1      -9.861  15.592  69.778  1.00  0.00     0.000 HD 
BRANCH  13  15
HETATM   15  C   UNL     1     -10.287  14.015  68.479  1.00  0.00    -0.247 C  
HETATM   16  O   UNL     1      -9.200  13.480  68.250  1.00  0.00    -0.197 OA 
BRANCH  15  17
HETATM   17  N   UNL     1     -11.502  13.333  68.335  1.00  0.00    -0.291 N  
BRANCH  17  18
HETATM   18  C   UNL     1     -12.189  13.017  69.619  1.00  0.00    -0.158 C  
BRANCH  18  19
HETATM   19  C   UNL     1     -12.009  11.585  70.133  1.00  0.00    -0.452 A  
HETATM   20  C   UNL     1     -11.244   9.263  71.473  1.00  0.00    -0.386 A  
HETATM   21  C   UNL     1     -12.827  11.047  71.137  1.00  0.00    -0.491 A  
HETATM   22  C   UNL     1     -12.424   9.903  71.829  1.00  0.00    -0.487 A  
HETATM   23  F   UNL     1     -10.796   8.239  72.217  1.00  0.00    -0.304 F  
HETATM   24  C   UNL     1     -10.500   9.692  70.384  1.00  0.00    -0.352 A  
HETATM   25  C   UNL     1     -10.893  10.841  69.695  1.00  0.00    -0.294 A  
ENDBRANCH  18  19
ENDBRANCH  17  18
BRANCH  17  26
HETATM   26  C   UNL     1     -12.010  12.726  67.048  1.00  0.00    -0.295 C  
HETATM   27  C   UNL     1     -12.530  13.710  65.984  1.00  0.00    -0.477 C  
HETATM   28  C   UNL     1     -11.075  11.690  66.349  1.00  0.00    -0.347 C  
HETATM   29  C   UNL     1     -11.769  12.547  63.385  1.00  0.00    -0.488 C  
HETATM   30  C   UNL     1     -11.422  14.241  65.089  1.00  0.00    -0.351 C  
HETATM   31  N   UNL     1     -10.816  13.169  64.305  1.00  0.00    -0.394 NA 
HETATM   32  C   UNL     1     -10.187  12.209  65.210  1.00  0.00    -0.274 C  
ENDBRANCH  17  26
ENDBRANCH  15  17
ENDBRANCH  13  15
ENDBRANCH  12  13
ENDBRANCH   9  12
ENDBRANCH   5   6
ENDBRANCH   4   5
TORSDOF 9
ENDMDL
MODEL       37
REMARK 921   NORMALIZED FREE ENERGY PREDICTED BY IDOCK:   -6.46 KCAL/MOL
REMARK 922        TOTAL FREE ENERGY PREDICTED BY IDOCK:  -11.33 KCAL/MOL
REMARK 923 INTER-LIGAND FREE ENERGY PREDICTED BY IDOCK:   -9.90 KCAL/MOL
REMARK 924 INTRA-LIGAND FREE ENERGY PREDICTED BY IDOCK:   -1.43 KCAL/MOL
REMARK 927      BINDING AFFINITY PREDICTED BY RF-SCORE:    0.00 PKD
ROOT
HETATM    1  C   UNL     1      -8.334  20.331  67.227  1.00  0.00    -0.404 C  
HETATM    2  C   UNL     1      -9.834  20.136  67.451  1.00  0.00    -0.573 C  
HETATM    3  C   UNL     1     -10.501  19.646  66.167  1.00  0.00    -0.624 C  
HETATM    4  C   UNL     1     -10.123  19.220  68.656  1.00  0.00    -0.419 C  
ENDROOT
BRANCH   4   5
HETATM    5  O   UNL     1      -9.621  17.888  68.480  1.00  0.00    -0.301 OA 
BRANCH   5   6
HETATM    6  C   UNL     1     -10.486  16.889  68.856  1.00  0.00    -0.346 A  
HETATM    7  C   UNL     1     -10.968  16.693  70.154  1.00  0.00    -0.110 A  
HETATM    8  C   UNL     1     -11.656  15.510  70.490  1.00  0.00    -0.371 A  
HETATM    9  C   UNL     1     -11.898  14.528  69.523  1.00  0.00    -0.374 A  
HETATM   10  C   UNL     1     -11.565  14.819  68.189  1.00  0.00    -0.356 A  
HETATM   11  C   UNL     1     -10.864  15.988  67.862  1.00  0.00    -0.333 A  
BRANCH   9  12
HETATM   12  C   UNL     1     -12.267  13.112  69.914  1.00  0.00    -0.225 C  
BRANCH  12  13
HETATM   13  N   UNL     1     -11.201  12.136  69.859  1.00  0.00    -0.488 N  
HETATM   14  H   UNL     1     -10.450  12.147  70.550  1.00  0.00     0.000 HD 
BRANCH  13  15
HETATM   15  C   UNL     1     -11.218  11.196  68.859  1.00  0.00    -0.256 C  
HETATM   16  O   UNL     1     -12.234  11.018  68.182  1.00  0.00    -0.578 OA 
BRANCH  15  17
HETATM   17  N   UNL     1     -10.032  10.487  68.629  1.00  0.00    -0.173 N  
BRANCH  17  18
HETATM   18  C   UNL     1      -9.592   9.635  69.770  1.00  0.00    -0.219 C  
BRANCH  18  19
HETATM   19  C   UNL     1     -10.658   8.701  70.352  1.00  0.00    -0.244 A  
HETATM   20  C   UNL     1     -12.082   6.742  71.731  1.00  0.00    -0.350 A  
HETATM   21  C   UNL     1     -11.401   9.040  71.491  1.00  0.00    -0.416 A  
HETATM   22  C   UNL     1     -12.086   8.049  72.199  1.00  0.00    -0.391 A  
HETATM   23  F   UNL     1     -12.635   5.771  72.476  1.00  0.00    -0.295 F  
HETATM   24  C   UNL     1     -11.480   6.417  70.525  1.00  0.00    -0.444 A  
HETATM   25  C   UNL     1     -10.786   7.401  69.819  1.00  0.00    -0.252 A  
ENDBRANCH  18  19
ENDBRANCH  17  18
BRANCH  17  26
HETATM   26  C   UNL     1      -9.103  10.703  67.459  1.00  0.00    -0.139 C  
HETATM   27  C   UNL     1      -8.840   9.483  66.556  1.00  0.00    -0.156 C  
HETATM   28  C   UNL     1      -9.404  11.935  66.548  1.00  0.00    -0.222 C  
HETATM   29  C   UNL     1      -8.594  10.553  63.821  1.00  0.00    -0.151 C  
HETATM   30  C   UNL     1      -9.889   9.326  65.468  1.00  0.00    -0.085 C  
HETATM   31  N   UNL     1      -9.864  10.453  64.542  1.00  0.00    -0.330 NA 
HETATM   32  C   UNL     1     -10.206  11.676  65.266  1.00  0.00    -0.272 C  
ENDBRANCH  17  26
ENDBRANCH  15  17
ENDBRANCH  13  15
ENDBRANCH  12  13
ENDBRANCH   9  12
ENDBRANCH   5   6
ENDBRANCH   4   5
TORSDOF 9
ENDMDL
MODEL       38
REMARK 921   NORMALIZED FREE ENERGY PREDICTED BY IDOCK:   -6.44 KCAL/MOL
REMARK 922        TOTAL FREE ENERGY PREDICTED BY IDOCK:  -11.30 KCAL/MOL
REMARK 923 INTER-LIGAND FREE ENERGY PREDICTED BY IDOCK:   -9.56 KCAL/MOL
REMARK 924 INTRA-LIGAND FREE ENERGY PREDICTED BY IDOCK:   -1.74 KCAL/MOL
REMARK 927      BINDING AFFINITY PREDICTED BY RF-SCORE:    0.00 PKD
ROOT
HETATM    1  C   UNL     1     -12.487  10.384  71.637  1.00  0.00    -0.471 C  
HETATM    2  C   UNL     1     -12.860   9.083  72.350  1.00  0.00    -0.454 C  
HETATM    3  C   UNL     1     -14.208   8.573  71.845  1.00  0.00    -0.536 C  
HETATM    4  C   UNL     1     -11.746   8.025  72.239  1.00  0.00    -0.371 C  
ENDROOT
BRANCH   4   5
HETATM    5  O   UNL     1     -11.491   7.621  70.886  1.00  0.00    -0.277 OA 
BRANCH   5   6
HETATM    6  C   UNL     1     -10.446   8.272  70.275  1.00  0.00    -0.218 A  
HETATM    7  C   UNL     1      -9.313   8.762  70.931  1.00  0.00    -0.266 A  
HETATM    8  C   UNL     1      -8.415   9.617  70.264  1.00  0.00    -0.221 A  
HETATM    9  C   UNL     1      -8.624   9.965  68.924  1.00  0.00    -0.135 A  
HETATM   10  C   UNL     1      -9.666   9.324  68.232  1.00  0.00    -0.167 A  
HETATM   11  C   UNL     1     -10.568   8.488  68.903  1.00  0.00    -0.166 A  
BRANCH   9  12
HETATM   12  C   UNL     1      -7.932  11.160  68.304  1.00  0.00    -0.127 C  
BRANCH  12  13
HETATM   13  N   UNL     1      -8.428  12.461  68.697  1.00  0.00    -0.356 N  
HETATM   14  H   UNL     1      -8.499  12.714  69.682  1.00  0.00     0.000 HD 
BRANCH  13  15
HETATM   15  C   UNL     1      -8.803  13.347  67.718  1.00  0.00    -0.199 C  
HETATM   16  O   UNL     1      -7.957  14.017  67.120  1.00  0.00    -0.157 OA 
BRANCH  15  17
HETATM   17  N   UNL     1     -10.169  13.423  67.415  1.00  0.00    -0.235 N  
BRANCH  17  18
HETATM   18  C   UNL     1     -10.939  14.368  68.272  1.00  0.00    -0.247 C  
BRANCH  18  19
HETATM   19  C   UNL     1     -10.804  15.851  67.915  1.00  0.00    -0.327 A  
HETATM   20  C   UNL     1      -9.914  18.433  67.354  1.00  0.00    -0.334 A  
HETATM   21  C   UNL     1     -10.698  16.289  66.586  1.00  0.00    -0.197 A  
HETATM   22  C   UNL     1     -10.219  17.571  66.309  1.00  0.00    -0.356 A  
HETATM   23  F   UNL     1      -9.339  19.617  67.089  1.00  0.00    -0.342 F  
HETATM   24  C   UNL     1     -10.157  18.071  68.671  1.00  0.00    -0.401 A  
HETATM   25  C   UNL     1     -10.625  16.787  68.954  1.00  0.00    -0.350 A  
ENDBRANCH  18  19
ENDBRANCH  17  18
BRANCH  17  26
HETATM   26  C   UNL     1     -10.906  12.487  66.487  1.00  0.00    -0.256 C  
HETATM   27  C   UNL     1     -12.285  12.960  65.990  1.00  0.00    -0.431 C  
HETATM   28  C   UNL     1     -10.103  11.939  65.266  1.00  0.00    -0.290 C  
HETATM   29  C   UNL     1     -12.517  11.972  63.223  1.00  0.00    -0.425 C  
HETATM   30  C   UNL     1     -12.191  13.832  64.749  1.00  0.00    -0.406 C  
HETATM   31  N   UNL     1     -11.652  13.085  63.617  1.00  0.00    -0.464 NA 
HETATM   32  C   UNL     1     -10.287  12.665  63.927  1.00  0.00    -0.377 C  
ENDBRANCH  17  26
ENDBRANCH  15  17
ENDBRANCH  13  15
ENDBRANCH  12  13
ENDBRANCH   9  12
ENDBRANCH   5   6
ENDBRANCH   4   5
TORSDOF 9
ENDMDL
MODEL       39
REMARK 921   NORMALIZED FREE ENERGY PREDICTED BY IDOCK:   -6.44 KCAL/MOL
REMARK 922        TOTAL FREE ENERGY PREDICTED BY IDOCK:  -11.30 KCAL/MOL
REMARK 923 INTER-LIGAND FREE ENERGY PREDICTED BY IDOCK:   -8.57 KCAL/MOL
REMARK 924 INTRA-LIGAND FREE ENERGY PREDICTED BY IDOCK:   -2.73 KCAL/MOL
REMARK 927      BINDING AFFINITY PREDICTED BY RF-SCORE:    0.00 PKD
ROOT
HETATM    1  C   UNL     1     -11.142   2.343  73.454  1.00  0.00    -0.294 C  
HETATM    2  C   UNL     1     -10.460   3.398  74.326  1.00  0.00    -0.258 C  
HETATM    3  C   UNL     1      -8.970   3.092  74.458  1.00  0.00    -0.091 C  
HETATM    4  C   UNL     1     -10.729   4.827  73.819  1.00  0.00    -0.295 C  
ENDROOT
BRANCH   4   5
HETATM    5  O   UNL     1     -10.200   5.065  72.507  1.00  0.00    -0.182 OA 
BRANCH   5   6
HETATM    6  C   UNL     1     -10.487   6.302  71.982  1.00  0.00    -0.207 A  
HETATM    7  C   UNL     1      -9.853   7.494  72.345  1.00  0.00    -0.219 A  
HETATM    8  C   UNL     1     -10.373   8.735  71.929  1.00  0.00    -0.414 A  
HETATM    9  C   UNL     1     -11.514   8.795  71.121  1.00  0.00    -0.344 A  
HETATM   10  C   UNL     1     -12.033   7.588  70.622  1.00  0.00    -0.161 A  
HETATM   11  C   UNL     1     -11.524   6.355  71.051  1.00  0.00    -0.394 A  
BRANCH   9  12
HETATM   12  C   UNL     1     -12.318  10.071  70.987  1.00  0.00    -0.360 C  
BRANCH  12  13
HETATM   13  N   UNL     1     -12.409  10.632  69.657  1.00  0.00    -0.531 N  
HETATM   14  H   UNL     1     -12.968  10.173  68.937  1.00  0.00     0.000 HD 
BRANCH  13  15
HETATM   15  C   UNL     1     -11.729  11.792  69.381  1.00  0.00    -0.341 C  
HETATM   16  O   UNL     1     -11.573  12.650  70.253  1.00  0.00    -0.169 OA 
BRANCH  15  17
HETATM   17  N   UNL     1     -11.201  11.931  68.091  1.00  0.00    -0.237 N  
BRANCH  17  18
HETATM   18  C   UNL     1      -9.768  11.544  67.966  1.00  0.00    -0.186 C  
BRANCH  18  19
HETATM   19  C   UNL     1      -9.493  10.041  67.859  1.00  0.00    -0.159 A  
HETATM   20  C   UNL     1      -9.367   7.278  68.207  1.00  0.00    -0.135 A  
HETATM   21  C   UNL     1     -10.290   9.193  67.076  1.00  0.00    -0.333 A  
HETATM   22  C   UNL     1     -10.249   7.812  67.277  1.00  0.00    -0.343 A  
HETATM   23  F   UNL     1      -9.415   5.965  68.487  1.00  0.00    -0.119 F  
HETATM   24  C   UNL     1      -8.464   8.087  68.881  1.00  0.00    -0.131 A  
HETATM   25  C   UNL     1      -8.508   9.469  68.691  1.00  0.00    -0.119 A  
ENDBRANCH  18  19
ENDBRANCH  17  18
BRANCH  17  26
HETATM   26  C   UNL     1     -11.887  12.632  66.943  1.00  0.00    -0.355 C  
HETATM   27  C   UNL     1     -12.046  14.159  67.067  1.00  0.00    -0.449 C  
HETATM   28  C   UNL     1     -11.358  12.306  65.511  1.00  0.00    -0.394 C  
HETATM   29  C   UNL     1     -11.727  15.219  64.336  1.00  0.00    -0.285 C  
HETATM   30  C   UNL     1     -10.825  14.916  66.569  1.00  0.00    -0.322 C  
HETATM   31  N   UNL     1     -10.618  14.704  65.140  1.00  0.00    -0.391 NA 
HETATM   32  C   UNL     1     -10.349  13.288  64.899  1.00  0.00    -0.351 C  
ENDBRANCH  17  26
ENDBRANCH  15  17
ENDBRANCH  13  15
ENDBRANCH  12  13
ENDBRANCH   9  12
ENDBRANCH   5   6
ENDBRANCH   4   5
TORSDOF 9
ENDMDL
MODEL       40
REMARK 921   NORMALIZED FREE ENERGY PREDICTED BY IDOCK:   -6.43 KCAL/MOL
REMARK 922        TOTAL FREE ENERGY PREDICTED BY IDOCK:  -11.29 KCAL/MOL
REMARK 923 INTER-LIGAND FREE ENERGY PREDICTED BY IDOCK:   -9.57 KCAL/MOL
REMARK 924 INTRA-LIGAND FREE ENERGY PREDICTED BY IDOCK:   -1.72 KCAL/MOL
REMARK 927      BINDING AFFINITY PREDICTED BY RF-SCORE:    0.00 PKD
ROOT
HETATM    1  C   UNL     1     -10.117   6.510  73.978  1.00  0.00    -0.348 C  
HETATM    2  C   UNL     1     -10.485   5.458  72.930  1.00  0.00    -0.250 C  
HETATM    3  C   UNL     1     -11.405   4.403  73.541  1.00  0.00    -0.334 C  
HETATM    4  C   UNL     1     -11.075   6.095  71.658  1.00  0.00    -0.276 C  
ENDROOT
BRANCH   4   5
HETATM    5  O   UNL     1     -12.306   6.792  71.899  1.00  0.00    -0.339 OA 
BRANCH   5   6
HETATM    6  C   UNL     1     -12.233   8.159  71.768  1.00  0.00    -0.319 A  
HETATM    7  C   UNL     1     -13.209   9.059  72.206  1.00  0.00    -0.519 A  
HETATM    8  C   UNL     1     -13.157  10.412  71.819  1.00  0.00    -0.567 A  
HETATM    9  C   UNL     1     -12.112  10.884  71.016  1.00  0.00    -0.425 A  
HETATM   10  C   UNL     1     -11.050  10.009  70.733  1.00  0.00    -0.407 A  
HETATM   11  C   UNL     1     -11.113   8.659  71.105  1.00  0.00    -0.324 A  
BRANCH   9  12
HETATM   12  C   UNL     1     -12.226  12.195  70.267  1.00  0.00    -0.264 C  
BRANCH  12  13
HETATM   13  N   UNL     1     -11.122  12.531  69.395  1.00  0.00    -0.452 N  
HETATM   14  H   UNL     1     -10.234  12.851  69.782  1.00  0.00     0.000 HD 
BRANCH  13  15
HETATM   15  C   UNL     1     -11.292  12.411  68.038  1.00  0.00    -0.287 C  
HETATM   16  O   UNL     1     -12.060  11.565  67.574  1.00  0.00    -0.614 OA 
BRANCH  15  17
HETATM   17  N   UNL     1     -10.587  13.308  67.225  1.00  0.00    -0.247 N  
BRANCH  17  18
HETATM   18  C   UNL     1     -11.411  14.424  66.680  1.00  0.00    -0.363 C  
BRANCH  18  19
HETATM   19  C   UNL     1     -11.029  15.828  67.160  1.00  0.00    -0.244 A  
HETATM   20  C   UNL     1      -9.781  18.080  68.229  1.00  0.00    -0.330 A  
HETATM   21  C   UNL     1     -10.410  16.760  66.315  1.00  0.00    -0.316 A  
HETATM   22  C   UNL     1      -9.757  17.869  66.857  1.00  0.00    -0.309 A  
HETATM   23  F   UNL     1      -9.051  19.074  68.759  1.00  0.00    -0.359 F  
HETATM   24  C   UNL     1     -10.516  17.252  69.065  1.00  0.00    -0.309 A  
HETATM   25  C   UNL     1     -11.162  16.137  68.530  1.00  0.00    -0.365 A  
ENDBRANCH  18  19
ENDBRANCH  17  18
BRANCH  17  26
HETATM   26  C   UNL     1      -9.186  13.094  66.706  1.00  0.00    -0.230 C  
HETATM   27  C   UNL     1      -8.055  13.810  67.467  1.00  0.00    -0.192 C  
HETATM   28  C   UNL     1      -8.753  11.614  66.458  1.00  0.00    -0.182 C  
HETATM   29  C   UNL     1      -5.752  11.973  67.391  1.00  0.00    -0.123 C  
HETATM   30  C   UNL     1      -7.549  13.007  68.654  1.00  0.00    -0.089 C  
HETATM   31  N   UNL     1      -6.937  11.755  68.223  1.00  0.00    -0.070 NA 
HETATM   32  C   UNL     1      -7.948  10.927  67.569  1.00  0.00    -0.115 C  
ENDBRANCH  17  26
ENDBRANCH  15  17
ENDBRANCH  13  15
ENDBRANCH  12  13
ENDBRANCH   9  12
ENDBRANCH   5   6
ENDBRANCH   4   5
TORSDOF 9
ENDMDL
MODEL       41
REMARK 921   NORMALIZED FREE ENERGY PREDICTED BY IDOCK:   -6.41 KCAL/MOL
REMARK 922        TOTAL FREE ENERGY PREDICTED BY IDOCK:  -11.26 KCAL/MOL
REMARK 923 INTER-LIGAND FREE ENERGY PREDICTED BY IDOCK:   -9.45 KCAL/MOL
REMARK 924 INTRA-LIGAND FREE ENERGY PREDICTED BY IDOCK:   -1.80 KCAL/MOL
REMARK 927      BINDING AFFINITY PREDICTED BY RF-SCORE:    0.00 PKD
ROOT
HETATM    1  C   UNL     1     -10.177  20.156  67.066  1.00  0.00    -0.558 C  
HETATM    2  C   UNL     1      -9.543  18.837  66.623  1.00  0.00    -0.357 C  
HETATM    3  C   UNL     1      -8.052  18.830  66.956  1.00  0.00    -0.266 C  
HETATM    4  C   UNL     1     -10.286  17.617  67.201  1.00  0.00    -0.342 C  
ENDROOT
BRANCH   4   5
HETATM    5  O   UNL     1     -10.241  17.562  68.634  1.00  0.00    -0.335 OA 
BRANCH   5   6
HETATM    6  C   UNL     1     -10.963  16.537  69.197  1.00  0.00    -0.303 A  
HETATM    7  C   UNL     1     -11.126  16.332  70.571  1.00  0.00    -0.293 A  
HETATM    8  C   UNL     1     -11.680  15.130  71.053  1.00  0.00    -0.385 A  
HETATM    9  C   UNL     1     -12.104  14.135  70.165  1.00  0.00    -0.411 A  
HETATM   10  C   UNL     1     -12.096  14.429  68.790  1.00  0.00    -0.276 A  
HETATM   11  C   UNL     1     -11.528  15.619  68.314  1.00  0.00    -0.353 A  
BRANCH   9  12
HETATM   12  C   UNL     1     -12.326  12.710  70.627  1.00  0.00    -0.290 C  
BRANCH  12  13
HETATM   13  N   UNL     1     -11.316  11.749  70.241  1.00  0.00    -0.463 N  
HETATM   14  H   UNL     1     -10.365  11.822  70.601  1.00  0.00     0.000 HD 
BRANCH  13  15
HETATM   15  C   UNL     1     -11.663  10.737  69.381  1.00  0.00    -0.306 C  
HETATM   16  O   UNL     1     -12.768  10.731  68.831  1.00  0.00    -0.153 OA 
BRANCH  15  17
HETATM   17  N   UNL     1     -10.701   9.748  69.138  1.00  0.00    -0.217 N  
BRANCH  17  18
HETATM   18  C   UNL     1     -10.326   9.592  67.704  1.00  0.00    -0.237 C  
BRANCH  18  19
HETATM   19  C   UNL     1      -9.965  10.886  66.968  1.00  0.00    -0.227 A  
HETATM   20  C   UNL     1      -9.852  13.469  65.924  1.00  0.00    -0.241 A  
HETATM   21  C   UNL     1      -9.081  11.830  67.512  1.00  0.00    -0.175 A  
HETATM   22  C   UNL     1      -9.052  13.132  67.008  1.00  0.00    -0.231 A  
HETATM   23  F   UNL     1      -9.915  14.748  65.521  1.00  0.00    -0.319 F  
HETATM   24  C   UNL     1     -10.618  12.510  65.277  1.00  0.00    -0.319 A  
HETATM   25  C   UNL     1     -10.658  11.210  65.782  1.00  0.00    -0.289 A  
ENDBRANCH  18  19
ENDBRANCH  17  18
BRANCH  17  26
HETATM   26  C   UNL     1     -10.227   8.730  70.147  1.00  0.00    -0.190 C  
HETATM   27  C   UNL     1     -10.942   8.731  71.511  1.00  0.00    -0.377 C  
HETATM   28  C   UNL     1     -10.114   7.255  69.650  1.00  0.00    -0.195 C  
HETATM   29  C   UNL     1     -11.064   5.909  72.350  1.00  0.00    -0.280 C  
HETATM   30  C   UNL     1     -12.202   7.881  71.510  1.00  0.00    -0.311 C  
HETATM   31  N   UNL     1     -11.891   6.474  71.282  1.00  0.00    -0.337 NA 
HETATM   32  C   UNL     1     -11.294   6.323  69.957  1.00  0.00    -0.416 C  
ENDBRANCH  17  26
ENDBRANCH  15  17
ENDBRANCH  13  15
ENDBRANCH  12  13
ENDBRANCH   9  12
ENDBRANCH   5   6
ENDBRANCH   4   5
TORSDOF 9
ENDMDL
MODEL       42
REMARK 921   NORMALIZED FREE ENERGY PREDICTED BY IDOCK:   -6.40 KCAL/MOL
REMARK 922        TOTAL FREE ENERGY PREDICTED BY IDOCK:  -11.24 KCAL/MOL
REMARK 923 INTER-LIGAND FREE ENERGY PREDICTED BY IDOCK:   -9.59 KCAL/MOL
REMARK 924 INTRA-LIGAND FREE ENERGY PREDICTED BY IDOCK:   -1.65 KCAL/MOL
REMARK 927      BINDING AFFINITY PREDICTED BY RF-SCORE:    0.00 PKD
ROOT
HETATM    1  C   UNL     1     -13.158  16.034  73.644  1.00  0.00    -0.609 C  
HETATM    2  C   UNL     1     -13.325  15.713  72.158  1.00  0.00    -0.548 C  
HETATM    3  C   UNL     1     -11.986  15.840  71.436  1.00  0.00    -0.499 C  
HETATM    4  C   UNL     1     -13.992  14.343  71.935  1.00  0.00    -0.487 C  
ENDROOT
BRANCH   4   5
HETATM    5  O   UNL     1     -13.211  13.251  72.441  1.00  0.00    -0.474 OA 
BRANCH   5   6
HETATM    6  C   UNL     1     -12.871  12.301  71.508  1.00  0.00    -0.280 A  
HETATM    7  C   UNL     1     -13.190  10.942  71.595  1.00  0.00    -0.471 A  
HETATM    8  C   UNL     1     -12.599  10.012  70.717  1.00  0.00    -0.372 A  
HETATM    9  C   UNL     1     -11.710  10.436  69.723  1.00  0.00    -0.310 A  
HETATM   10  C   UNL     1     -11.539  11.819  69.537  1.00  0.00    -0.398 A  
HETATM   11  C   UNL     1     -12.114  12.740  70.423  1.00  0.00    -0.382 A  
BRANCH   9  12
HETATM   12  C   UNL     1     -10.772   9.464  69.039  1.00  0.00    -0.187 C  
BRANCH  12  13
HETATM   13  N   UNL     1     -11.021   9.216  67.636  1.00  0.00    -0.476 N  
HETATM   14  H   UNL     1     -11.901   9.500  67.206  1.00  0.00     0.000 HD 
BRANCH  13  15
HETATM   15  C   UNL     1     -10.050   8.588  66.895  1.00  0.00    -0.294 C  
HETATM   16  O   UNL     1     -10.152   7.392  66.613  1.00  0.00    -0.229 OA 
BRANCH  15  17
HETATM   17  N   UNL     1      -8.977   9.373  66.455  1.00  0.00    -0.146 N  
BRANCH  17  18
HETATM   18  C   UNL     1      -9.197  10.037  65.139  1.00  0.00    -0.222 C  
BRANCH  18  19
HETATM   19  C   UNL     1      -9.993  11.345  65.180  1.00  0.00    -0.310 A  
HETATM   20  C   UNL     1     -11.861  13.368  65.616  1.00  0.00    -0.370 A  
HETATM   21  C   UNL     1      -9.752  12.332  66.146  1.00  0.00    -0.256 A  
HETATM   22  C   UNL     1     -10.705  13.324  66.386  1.00  0.00    -0.291 A  
HETATM   23  F   UNL     1     -12.830  14.243  65.928  1.00  0.00    -0.500 F  
HETATM   24  C   UNL     1     -12.046  12.493  64.556  1.00  0.00    -0.496 A  
HETATM   25  C   UNL     1     -11.101  11.494  64.319  1.00  0.00    -0.385 A  
ENDBRANCH  18  19
ENDBRANCH  17  18
BRANCH  17  26
HETATM   26  C   UNL     1      -7.603   9.394  67.080  1.00  0.00    -0.091 C  
HETATM   27  C   UNL     1      -7.217  10.673  67.846  1.00  0.00    -0.087 C  
HETATM   28  C   UNL     1      -7.214   8.160  67.953  1.00  0.00    -0.091 C  
HETATM   29  C   UNL     1      -5.574   9.775  70.122  1.00  0.00    -0.042 C  
HETATM   30  C   UNL     1      -7.681  10.649  69.293  1.00  0.00    -0.142 C  
HETATM   31  N   UNL     1      -7.023   9.585  70.042  1.00  0.00    -0.068 NA 
HETATM   32  C   UNL     1      -7.398   8.293  69.471  1.00  0.00    -0.074 C  
ENDBRANCH  17  26
ENDBRANCH  15  17
ENDBRANCH  13  15
ENDBRANCH  12  13
ENDBRANCH   9  12
ENDBRANCH   5   6
ENDBRANCH   4   5
TORSDOF 9
ENDMDL
MODEL       43
REMARK 921   NORMALIZED FREE ENERGY PREDICTED BY IDOCK:   -6.40 KCAL/MOL
REMARK 922        TOTAL FREE ENERGY PREDICTED BY IDOCK:  -11.24 KCAL/MOL
REMARK 923 INTER-LIGAND FREE ENERGY PREDICTED BY IDOCK:   -9.37 KCAL/MOL
REMARK 924 INTRA-LIGAND FREE ENERGY PREDICTED BY IDOCK:   -1.87 KCAL/MOL
REMARK 927      BINDING AFFINITY PREDICTED BY RF-SCORE:    0.00 PKD
ROOT
HETATM    1  C   UNL     1      -9.714   4.448  68.460  1.00  0.00    -0.181 C  
HETATM    2  C   UNL     1      -9.380   5.842  67.926  1.00  0.00    -0.107 C  
HETATM    3  C   UNL     1     -10.548   6.388  67.107  1.00  0.00    -0.389 C  
HETATM    4  C   UNL     1      -8.944   6.801  69.050  1.00  0.00    -0.131 C  
ENDROOT
BRANCH   4   5
HETATM    5  O   UNL     1      -9.978   7.037  70.017  1.00  0.00    -0.180 OA 
BRANCH   5   6
HETATM    6  C   UNL     1     -10.344   8.353  70.164  1.00  0.00    -0.211 A  
HETATM    7  C   UNL     1     -11.380   8.810  70.984  1.00  0.00    -0.332 A  
HETATM    8  C   UNL     1     -11.833  10.141  70.889  1.00  0.00    -0.468 A  
HETATM    9  C   UNL     1     -11.233  11.035  69.995  1.00  0.00    -0.303 A  
HETATM   10  C   UNL     1     -10.082  10.610  69.309  1.00  0.00    -0.227 A  
HETATM   11  C   UNL     1      -9.646   9.281  69.392  1.00  0.00    -0.170 A  
BRANCH   9  12
HETATM   12  C   UNL     1     -11.924  12.318  69.582  1.00  0.00    -0.279 C  
BRANCH  12  13
HETATM   13  N   UNL     1     -11.121  13.520  69.627  1.00  0.00    -0.461 N  
HETATM   14  H   UNL     1     -10.513  13.709  70.424  1.00  0.00     0.000 HD 
BRANCH  13  15
HETATM   15  C   UNL     1     -11.193  14.401  68.577  1.00  0.00    -0.265 C  
HETATM   16  O   UNL     1     -12.265  14.928  68.272  1.00  0.00    -0.170 OA 
BRANCH  15  17
HETATM   17  N   UNL     1      -9.999  14.690  67.904  1.00  0.00    -0.219 N  
BRANCH  17  18
HETATM   18  C   UNL     1      -9.160  15.734  68.557  1.00  0.00    -0.194 C  
BRANCH  18  19
HETATM   19  C   UNL     1      -9.301  17.150  67.991  1.00  0.00    -0.254 A  
HETATM   20  C   UNL     1      -9.759  19.407  66.420  1.00  0.00    -0.386 A  
HETATM   21  C   UNL     1     -10.468  17.908  68.168  1.00  0.00    -0.380 A  
HETATM   22  C   UNL     1     -10.709  19.018  67.355  1.00  0.00    -0.559 A  
HETATM   23  F   UNL     1     -10.046  20.396  65.558  1.00  0.00    -0.514 F  
HETATM   24  C   UNL     1      -8.534  18.761  66.336  1.00  0.00    -0.296 A  
HETATM   25  C   UNL     1      -8.292  17.645  67.139  1.00  0.00    -0.233 A  
ENDBRANCH  18  19
ENDBRANCH  17  18
BRANCH  17  26
HETATM   26  C   UNL     1      -9.645  14.210  66.516  1.00  0.00    -0.296 C  
HETATM   27  C   UNL     1      -9.739  12.693  66.270  1.00  0.00    -0.260 C  
HETATM   28  C   UNL     1     -10.337  14.947  65.326  1.00  0.00    -0.424 C  
HETATM   29  C   UNL     1     -10.683  12.392  63.495  1.00  0.00    -0.430 C  
HETATM   30  C   UNL     1     -11.138  12.251  65.875  1.00  0.00    -0.322 C  
HETATM   31  N   UNL     1     -11.536  12.834  64.598  1.00  0.00    -0.322 NA 
HETATM   32  C   UNL     1     -11.589  14.289  64.731  1.00  0.00    -0.401 C  
ENDBRANCH  17  26
ENDBRANCH  15  17
ENDBRANCH  13  15
ENDBRANCH  12  13
ENDBRANCH   9  12
ENDBRANCH   5   6
ENDBRANCH   4   5
TORSDOF 9
ENDMDL
MODEL       44
REMARK 921   NORMALIZED FREE ENERGY PREDICTED BY IDOCK:   -6.38 KCAL/MOL
REMARK 922        TOTAL FREE ENERGY PREDICTED BY IDOCK:  -11.20 KCAL/MOL
REMARK 923 INTER-LIGAND FREE ENERGY PREDICTED BY IDOCK:   -9.22 KCAL/MOL
REMARK 924 INTRA-LIGAND FREE ENERGY PREDICTED BY IDOCK:   -1.98 KCAL/MOL
REMARK 927      BINDING AFFINITY PREDICTED BY RF-SCORE:    0.00 PKD
ROOT
HETATM    1  C   UNL     1     -13.484  16.007  73.291  1.00  0.00    -0.570 C  
HETATM    2  C   UNL     1     -12.921  15.543  71.946  1.00  0.00    -0.522 C  
HETATM    3  C   UNL     1     -11.412  15.335  72.048  1.00  0.00    -0.500 C  
HETATM    4  C   UNL     1     -13.657  14.300  71.411  1.00  0.00    -0.324 C  
ENDROOT
BRANCH   4   5
HETATM    5  O   UNL     1     -13.512  13.154  72.262  1.00  0.00    -0.527 OA 
BRANCH   5   6
HETATM    6  C   UNL     1     -13.023  12.030  71.641  1.00  0.00    -0.334 A  
HETATM    7  C   UNL     1     -13.258  10.717  72.061  1.00  0.00    -0.473 A  
HETATM    8  C   UNL     1     -12.527   9.648  71.506  1.00  0.00    -0.476 A  
HETATM    9  C   UNL     1     -11.576   9.879  70.505  1.00  0.00    -0.386 A  
HETATM   10  C   UNL     1     -11.480  11.176  69.974  1.00  0.00    -0.376 A  
HETATM   11  C   UNL     1     -12.196  12.240  70.539  1.00  0.00    -0.387 A  
BRANCH   9  12
HETATM   12  C   UNL     1     -10.515   8.850  70.175  1.00  0.00    -0.214 C  
BRANCH  12  13
HETATM   13  N   UNL     1      -9.265   9.364  69.660  1.00  0.00    -0.172 N  
HETATM   14  H   UNL     1      -8.948  10.302  69.907  1.00  0.00     0.000 HD 
BRANCH  13  15
HETATM   15  C   UNL     1      -8.515   8.566  68.833  1.00  0.00    -0.123 C  
HETATM   16  O   UNL     1      -7.796   7.679  69.299  1.00  0.00    -0.115 OA 
BRANCH  15  17
HETATM   17  N   UNL     1      -8.633   8.786  67.454  1.00  0.00    -0.125 N  
BRANCH  17  18
HETATM   18  C   UNL     1      -8.138  10.115  66.997  1.00  0.00    -0.117 C  
BRANCH  18  19
HETATM   19  C   UNL     1      -9.163  11.253  67.030  1.00  0.00    -0.173 A  
HETATM   20  C   UNL     1     -10.785  13.456  66.491  1.00  0.00    -0.286 A  
HETATM   21  C   UNL     1     -10.492  11.069  66.622  1.00  0.00    -0.307 A  
HETATM   22  C   UNL     1     -11.291  12.174  66.321  1.00  0.00    -0.411 A  
HETATM   23  F   UNL     1     -11.508  14.512  66.085  1.00  0.00    -0.332 F  
HETATM   24  C   UNL     1      -9.526  13.659  67.038  1.00  0.00    -0.252 A  
HETATM   25  C   UNL     1      -8.721  12.558  67.331  1.00  0.00    -0.189 A  
ENDBRANCH  18  19
ENDBRANCH  17  18
BRANCH  17  26
HETATM   26  C   UNL     1      -9.404   7.908  66.497  1.00  0.00    -0.200 C  
HETATM   27  C   UNL     1      -8.610   6.783  65.807  1.00  0.00    -0.144 C  
HETATM   28  C   UNL     1     -10.747   7.312  67.025  1.00  0.00    -0.406 C  
HETATM   29  C   UNL     1     -10.481   4.519  65.565  1.00  0.00    -0.211 C  
HETATM   30  C   UNL     1      -8.548   5.515  66.643  1.00  0.00    -0.116 C  
HETATM   31  N   UNL     1      -9.875   4.939  66.829  1.00  0.00    -0.179 NA 
HETATM   32  C   UNL     1     -10.706   5.881  67.576  1.00  0.00    -0.276 C  
ENDBRANCH  17  26
ENDBRANCH  15  17
ENDBRANCH  13  15
ENDBRANCH  12  13
ENDBRANCH   9  12
ENDBRANCH   5   6
ENDBRANCH   4   5
TORSDOF 9
ENDMDL
MODEL       45
REMARK 921   NORMALIZED FREE ENERGY PREDICTED BY IDOCK:   -6.37 KCAL/MOL
REMARK 922        TOTAL FREE ENERGY PREDICTED BY IDOCK:  -11.18 KCAL/MOL
REMARK 923 INTER-LIGAND FREE ENERGY PREDICTED BY IDOCK:   -8.82 KCAL/MOL
REMARK 924 INTRA-LIGAND FREE ENERGY PREDICTED BY IDOCK:   -2.36 KCAL/MOL
REMARK 927      BINDING AFFINITY PREDICTED BY RF-SCORE:    0.00 PKD
ROOT
HETATM    1  C   UNL     1      -9.840   5.013  74.380  1.00  0.00    -0.206 C  
HETATM    2  C   UNL     1      -9.505   4.482  72.985  1.00  0.00    -0.149 C  
HETATM    3  C   UNL     1     -10.049   3.066  72.813  1.00  0.00    -0.226 C  
HETATM    4  C   UNL     1      -9.980   5.439  71.875  1.00  0.00    -0.184 C  
ENDROOT
BRANCH   4   5
HETATM    5  O   UNL     1     -11.404   5.606  71.851  1.00  0.00    -0.234 OA 
BRANCH   5   6
HETATM    6  C   UNL     1     -11.836   6.910  71.900  1.00  0.00    -0.315 A  
HETATM    7  C   UNL     1     -13.146   7.330  71.652  1.00  0.00    -0.417 A  
HETATM    8  C   UNL     1     -13.439   8.699  71.494  1.00  0.00    -0.344 A  
HETATM    9  C   UNL     1     -12.431   9.662  71.612  1.00  0.00    -0.494 A  
HETATM   10  C   UNL     1     -11.159   9.237  72.034  1.00  0.00    -0.173 A  
HETATM   11  C   UNL     1     -10.867   7.874  72.174  1.00  0.00    -0.327 A  
BRANCH   9  12
HETATM   12  C   UNL     1     -12.614  11.064  71.070  1.00  0.00    -0.411 C  
BRANCH  12  13
HETATM   13  N   UNL     1     -11.515  11.598  70.296  1.00  0.00    -0.501 N  
HETATM   14  H   UNL     1     -10.771  12.130  70.747  1.00  0.00     0.000 HD 
BRANCH  13  15
HETATM   15  C   UNL     1     -11.493  11.375  68.941  1.00  0.00    -0.298 C  
HETATM   16  O   UNL     1     -12.530  11.097  68.334  1.00  0.00    -0.390 OA 
BRANCH  15  17
HETATM   17  N   UNL     1     -10.260  11.512  68.292  1.00  0.00    -0.190 N  
BRANCH  17  18
HETATM   18  C   UNL     1      -9.239  10.500  68.687  1.00  0.00    -0.172 C  
BRANCH  18  19
HETATM   19  C   UNL     1      -9.449   9.090  68.126  1.00  0.00    -0.155 A  
HETATM   20  C   UNL     1     -10.453   6.734  67.025  1.00  0.00    -0.299 A  
HETATM   21  C   UNL     1      -9.211   8.783  66.778  1.00  0.00    -0.211 A  
HETATM   22  C   UNL     1      -9.744   7.618  66.222  1.00  0.00    -0.126 A  
HETATM   23  F   UNL     1     -11.069   5.680  66.465  1.00  0.00    -0.320 F  
HETATM   24  C   UNL     1     -10.568   6.946  68.391  1.00  0.00    -0.249 A  
HETATM   25  C   UNL     1     -10.046   8.113  68.950  1.00  0.00    -0.211 A  
ENDBRANCH  18  19
ENDBRANCH  17  18
BRANCH  17  26
HETATM   26  C   UNL     1      -9.850  12.693  67.445  1.00  0.00    -0.205 C  
HETATM   27  C   UNL     1     -10.049  12.551  65.925  1.00  0.00    -0.270 C  
HETATM   28  C   UNL     1     -10.393  14.089  67.886  1.00  0.00    -0.239 C  
HETATM   29  C   UNL     1     -10.817  15.229  64.967  1.00  0.00    -0.439 C  
HETATM   30  C   UNL     1     -11.449  12.943  65.481  1.00  0.00    -0.326 C  
HETATM   31  N   UNL     1     -11.707  14.357  65.733  1.00  0.00    -0.359 NA 
HETATM   32  C   UNL     1     -11.650  14.605  67.172  1.00  0.00    -0.378 C  
ENDBRANCH  17  26
ENDBRANCH  15  17
ENDBRANCH  13  15
ENDBRANCH  12  13
ENDBRANCH   9  12
ENDBRANCH   5   6
ENDBRANCH   4   5
TORSDOF 9
ENDMDL
MODEL       46
REMARK 921   NORMALIZED FREE ENERGY PREDICTED BY IDOCK:   -6.36 KCAL/MOL
REMARK 922        TOTAL FREE ENERGY PREDICTED BY IDOCK:  -11.18 KCAL/MOL
REMARK 923 INTER-LIGAND FREE ENERGY PREDICTED BY IDOCK:   -9.49 KCAL/MOL
REMARK 924 INTRA-LIGAND FREE ENERGY PREDICTED BY IDOCK:   -1.68 KCAL/MOL
REMARK 927      BINDING AFFINITY PREDICTED BY RF-SCORE:    0.00 PKD
ROOT
HETATM    1  C   UNL     1     -10.567  13.417  64.703  1.00  0.00    -0.431 C  
HETATM    2  C   UNL     1     -10.484  14.885  65.125  1.00  0.00    -0.442 C  
HETATM    3  C   UNL     1     -11.505  15.716  64.350  1.00  0.00    -0.266 C  
HETATM    4  C   UNL     1     -10.616  15.054  66.651  1.00  0.00    -0.301 C  
ENDROOT
BRANCH   4   5
HETATM    5  O   UNL     1     -11.887  14.618  67.154  1.00  0.00    -0.391 OA 
BRANCH   5   6
HETATM    6  C   UNL     1     -11.822  13.655  68.133  1.00  0.00    -0.372 A  
HETATM    7  C   UNL     1     -11.606  12.293  67.904  1.00  0.00    -0.416 A  
HETATM    8  C   UNL     1     -11.790  11.356  68.940  1.00  0.00    -0.413 A  
HETATM    9  C   UNL     1     -12.162  11.776  70.222  1.00  0.00    -0.381 A  
HETATM   10  C   UNL     1     -12.202  13.158  70.478  1.00  0.00    -0.405 A  
HETATM   11  C   UNL     1     -12.035  14.086  69.442  1.00  0.00    -0.390 A  
BRANCH   9  12
HETATM   12  C   UNL     1     -12.745  10.807  71.229  1.00  0.00    -0.441 C  
BRANCH  12  13
HETATM   13  N   UNL     1     -12.957   9.454  70.765  1.00  0.00    -0.534 N  
HETATM   14  H   UNL     1     -13.255   9.274  69.807  1.00  0.00     0.000 HD 
BRANCH  13  15
HETATM   15  C   UNL     1     -12.750   8.416  71.640  1.00  0.00    -0.331 C  
HETATM   16  O   UNL     1     -13.677   7.979  72.326  1.00  0.00    -0.207 OA 
BRANCH  15  17
HETATM   17  N   UNL     1     -11.462   7.868  71.686  1.00  0.00    -0.255 N  
BRANCH  17  18
HETATM   18  C   UNL     1     -11.414   6.389  71.512  1.00  0.00    -0.306 C  
BRANCH  18  19
HETATM   19  C   UNL     1     -10.956   5.897  70.135  1.00  0.00    -0.412 A  
HETATM   20  C   UNL     1      -9.694   5.501  67.682  1.00  0.00    -0.129 A  
HETATM   21  C   UNL     1     -10.001   4.881  69.989  1.00  0.00    -0.323 A  
HETATM   22  C   UNL     1      -9.346   4.708  68.767  1.00  0.00    -0.197 A  
HETATM   23  F   UNL     1      -8.980   5.418  66.547  1.00  0.00    -0.115 F  
HETATM   24  C   UNL     1     -10.741   6.406  67.765  1.00  0.00    -0.377 A  
HETATM   25  C   UNL     1     -11.391   6.590  68.986  1.00  0.00    -0.296 A  
ENDBRANCH  18  19
ENDBRANCH  17  18
BRANCH  17  26
HETATM   26  C   UNL     1     -10.217   8.609  72.114  1.00  0.00    -0.323 C  
HETATM   27  C   UNL     1      -9.371   7.948  73.218  1.00  0.00    -0.351 C  
HETATM   28  C   UNL     1      -9.260   9.081  70.975  1.00  0.00    -0.331 C  
HETATM   29  C   UNL     1      -6.568   8.566  72.551  1.00  0.00    -0.078 C  
HETATM   30  C   UNL     1      -8.371   6.946  72.666  1.00  0.00    -0.109 C  
HETATM   31  N   UNL     1      -7.382   7.599  71.815  1.00  0.00    -0.063 NA 
HETATM   32  C   UNL     1      -8.056   8.184  70.658  1.00  0.00    -0.105 C  
ENDBRANCH  17  26
ENDBRANCH  15  17
ENDBRANCH  13  15
ENDBRANCH  12  13
ENDBRANCH   9  12
ENDBRANCH   5   6
ENDBRANCH   4   5
TORSDOF 9
ENDMDL
MODEL       47
REMARK 921   NORMALIZED FREE ENERGY PREDICTED BY IDOCK:   -6.35 KCAL/MOL
REMARK 922        TOTAL FREE ENERGY PREDICTED BY IDOCK:  -11.16 KCAL/MOL
REMARK 923 INTER-LIGAND FREE ENERGY PREDICTED BY IDOCK:   -8.39 KCAL/MOL
REMARK 924 INTRA-LIGAND FREE ENERGY PREDICTED BY IDOCK:   -2.77 KCAL/MOL
REMARK 927      BINDING AFFINITY PREDICTED BY RF-SCORE:    0.00 PKD
ROOT
HETATM    1  C   UNL     1      -8.962  20.881  66.955  1.00  0.00    -0.039 C  
HETATM    2  C   UNL     1     -10.055  19.844  67.214  1.00  0.00    -0.569 C  
HETATM    3  C   UNL     1     -10.646  19.358  65.892  1.00  0.00    -0.551 C  
HETATM    4  C   UNL     1      -9.556  18.688  68.102  1.00  0.00    -0.331 C  
ENDROOT
BRANCH   4   5
HETATM    5  O   UNL     1      -8.497  17.934  67.495  1.00  0.00    -0.229 OA 
BRANCH   5   6
HETATM    6  C   UNL     1      -8.463  16.604  67.839  1.00  0.00    -0.194 A  
HETATM    7  C   UNL     1      -8.261  16.116  69.134  1.00  0.00    -0.230 A  
HETATM    8  C   UNL     1      -8.007  14.748  69.351  1.00  0.00    -0.065 A  
HETATM    9  C   UNL     1      -7.984  13.849  68.278  1.00  0.00    -0.148 A  
HETATM   10  C   UNL     1      -8.363  14.325  67.011  1.00  0.00    -0.156 A  
HETATM   11  C   UNL     1      -8.597  15.689  66.796  1.00  0.00    -0.309 A  
BRANCH   9  12
HETATM   12  C   UNL     1      -7.339  12.485  68.408  1.00  0.00    -0.114 C  
BRANCH  12  13
HETATM   13  N   UNL     1      -8.159  11.443  68.986  1.00  0.00    -0.344 N  
HETATM   14  H   UNL     1      -8.164  11.286  69.994  1.00  0.00     0.000 HD 
BRANCH  13  15
HETATM   15  C   UNL     1      -8.929  10.670  68.153  1.00  0.00    -0.141 C  
HETATM   16  O   UNL     1      -8.712  10.649  66.939  1.00  0.00    -0.130 OA 
BRANCH  15  17
HETATM   17  N   UNL     1      -9.932   9.896  68.748  1.00  0.00    -0.166 N  
BRANCH  17  18
HETATM   18  C   UNL     1     -11.315  10.233  68.306  1.00  0.00    -0.177 C  
BRANCH  18  19
HETATM   19  C   UNL     1     -11.697  11.714  68.390  1.00  0.00    -0.374 A  
HETATM   20  C   UNL     1     -11.738  14.495  68.574  1.00  0.00    -0.318 A  
HETATM   21  C   UNL     1     -11.906  12.494  67.244  1.00  0.00    -0.381 A  
HETATM   22  C   UNL     1     -11.892  13.888  67.335  1.00  0.00    -0.437 A  
HETATM   23  F   UNL     1     -11.601  15.829  68.644  1.00  0.00    -0.324 F  
HETATM   24  C   UNL     1     -11.683  13.741  69.737  1.00  0.00    -0.367 A  
HETATM   25  C   UNL     1     -11.686  12.348  69.650  1.00  0.00    -0.377 A  
ENDBRANCH  18  19
ENDBRANCH  17  18
BRANCH  17  26
HETATM   26  C   UNL     1      -9.730   8.960  69.916  1.00  0.00    -0.177 C  
HETATM   27  C   UNL     1     -10.436   9.340  71.231  1.00  0.00    -0.408 C  
HETATM   28  C   UNL     1      -9.978   7.442  69.644  1.00  0.00    -0.182 C  
HETATM   29  C   UNL     1     -11.253   6.792  72.464  1.00  0.00    -0.268 C  
HETATM   30  C   UNL     1     -11.865   8.829  71.295  1.00  0.00    -0.303 C  
HETATM   31  N   UNL     1     -11.906   7.370  71.289  1.00  0.00    -0.290 NA 
HETATM   32  C   UNL     1     -11.353   6.880  70.029  1.00  0.00    -0.294 C  
ENDBRANCH  17  26
ENDBRANCH  15  17
ENDBRANCH  13  15
ENDBRANCH  12  13
ENDBRANCH   9  12
ENDBRANCH   5   6
ENDBRANCH   4   5
TORSDOF 9
ENDMDL
MODEL       48
REMARK 921   NORMALIZED FREE ENERGY PREDICTED BY IDOCK:   -6.35 KCAL/MOL
REMARK 922        TOTAL FREE ENERGY PREDICTED BY IDOCK:  -11.16 KCAL/MOL
REMARK 923 INTER-LIGAND FREE ENERGY PREDICTED BY IDOCK:  -10.41 KCAL/MOL
REMARK 924 INTRA-LIGAND FREE ENERGY PREDICTED BY IDOCK:   -0.74 KCAL/MOL
REMARK 927      BINDING AFFINITY PREDICTED BY RF-SCORE:    0.00 PKD
ROOT
HETATM    1  C   UNL     1      -5.277  21.074  69.538  1.00  0.00    -0.395 C  
HETATM    2  C   UNL     1      -5.501  20.215  68.292  1.00  0.00    -0.246 C  
HETATM    3  C   UNL     1      -5.953  18.812  68.693  1.00  0.00    -0.218 C  
HETATM    4  C   UNL     1      -6.464  20.886  67.295  1.00  0.00    -0.327 C  
ENDROOT
BRANCH   4   5
HETATM    5  O   UNL     1      -7.782  21.075  67.830  1.00  0.00    -0.141 OA 
BRANCH   5   6
HETATM    6  C   UNL     1      -8.626  20.001  67.683  1.00  0.00    -0.326 A  
HETATM    7  C   UNL     1      -9.375  19.423  68.713  1.00  0.00    -0.444 A  
HETATM    8  C   UNL     1     -10.023  18.188  68.518  1.00  0.00    -0.408 A  
HETATM    9  C   UNL     1      -9.956  17.535  67.282  1.00  0.00    -0.312 A  
HETATM   10  C   UNL     1      -9.350  18.212  66.210  1.00  0.00    -0.220 A  
HETATM   11  C   UNL     1      -8.691  19.432  66.411  1.00  0.00    -0.376 A  
BRANCH   9  12
HETATM   12  C   UNL     1     -10.287  16.063  67.151  1.00  0.00    -0.295 C  
BRANCH  12  13
HETATM   13  N   UNL     1      -9.912  15.222  68.266  1.00  0.00    -0.219 N  
HETATM   14  H   UNL     1      -9.725  15.627  69.183  1.00  0.00     0.000 HD 
BRANCH  13  15
HETATM   15  C   UNL     1      -9.813  13.867  68.066  1.00  0.00    -0.234 C  
HETATM   16  O   UNL     1      -8.723  13.349  67.810  1.00  0.00    -0.172 OA 
BRANCH  15  17
HETATM   17  N   UNL     1     -10.986  13.114  68.200  1.00  0.00    -0.242 N  
BRANCH  17  18
HETATM   18  C   UNL     1     -11.275  12.664  69.591  1.00  0.00    -0.007 C  
BRANCH  18  19
HETATM   19  C   UNL     1     -12.311  13.493  70.356  1.00  0.00    -0.397 A  
HETATM   20  C   UNL     1     -13.712  15.052  72.194  1.00  0.00    -0.453 A  
HETATM   21  C   UNL     1     -12.468  14.870  70.140  1.00  0.00    -0.353 A  
HETATM   22  C   UNL     1     -13.141  15.653  71.080  1.00  0.00    -0.523 A  
HETATM   23  F   UNL     1     -14.249  15.818  73.157  1.00  0.00    -0.541 F  
HETATM   24  C   UNL     1     -13.698  13.673  72.347  1.00  0.00    -0.697 A  
HETATM   25  C   UNL     1     -13.018  12.887  71.416  1.00  0.00    -0.362 A  
ENDBRANCH  18  19
ENDBRANCH  17  18
BRANCH  17  26
HETATM   26  C   UNL     1     -11.801  12.563  67.054  1.00  0.00    -0.323 C  
HETATM   27  C   UNL     1     -12.274  13.579  65.997  1.00  0.00    -0.493 C  
HETATM   28  C   UNL     1     -11.214  11.320  66.315  1.00  0.00    -0.160 C  
HETATM   29  C   UNL     1     -12.179  12.152  63.421  1.00  0.00    -0.530 C  
HETATM   30  C   UNL     1     -11.236  13.818  64.912  1.00  0.00    -0.349 C  
HETATM   31  N   UNL     1     -10.988  12.605  64.141  1.00  0.00    -0.358 NA 
HETATM   32  C   UNL     1     -10.430  11.582  65.022  1.00  0.00    -0.290 C  
ENDBRANCH  17  26
ENDBRANCH  15  17
ENDBRANCH  13  15
ENDBRANCH  12  13
ENDBRANCH   9  12
ENDBRANCH   5   6
ENDBRANCH   4   5
TORSDOF 9
ENDMDL
MODEL       49
REMARK 921   NORMALIZED FREE ENERGY PREDICTED BY IDOCK:   -6.29 KCAL/MOL
REMARK 922        TOTAL FREE ENERGY PREDICTED BY IDOCK:  -11.07 KCAL/MOL
REMARK 923 INTER-LIGAND FREE ENERGY PREDICTED BY IDOCK:   -9.10 KCAL/MOL
REMARK 924 INTRA-LIGAND FREE ENERGY PREDICTED BY IDOCK:   -1.97 KCAL/MOL
REMARK 927      BINDING AFFINITY PREDICTED BY RF-SCORE:    0.00 PKD
ROOT
HETATM    1  C   UNL     1     -10.110  17.539  68.903  1.00  0.00    -0.346 C  
HETATM    2  C   UNL     1     -10.772  16.375  68.162  1.00  0.00    -0.336 C  
HETATM    3  C   UNL     1      -9.724  15.338  67.765  1.00  0.00    -0.215 C  
HETATM    4  C   UNL     1     -11.935  15.766  68.968  1.00  0.00    -0.278 C  
ENDROOT
BRANCH   4   5
HETATM    5  O   UNL     1     -11.514  15.191  70.213  1.00  0.00    -0.247 OA 
BRANCH   5   6
HETATM    6  C   UNL     1     -12.130  14.008  70.543  1.00  0.00    -0.353 A  
HETATM    7  C   UNL     1     -12.987  13.827  71.633  1.00  0.00    -0.448 A  
HETATM    8  C   UNL     1     -13.379  12.533  72.026  1.00  0.00    -0.528 A  
HETATM    9  C   UNL     1     -12.945  11.410  71.313  1.00  0.00    -0.415 A  
HETATM   10  C   UNL     1     -12.232  11.620  70.120  1.00  0.00    -0.367 A  
HETATM   11  C   UNL     1     -11.828  12.907  69.742  1.00  0.00    -0.380 A  
BRANCH   9  12
HETATM   12  C   UNL     1     -13.010  10.022  71.915  1.00  0.00    -0.447 C  
BRANCH  12  13
HETATM   13  N   UNL     1     -13.088   8.922  70.980  1.00  0.00    -0.519 N  
HETATM   14  H   UNL     1     -13.105   9.095  69.974  1.00  0.00     0.000 HD 
BRANCH  13  15
HETATM   15  C   UNL     1     -13.140   7.641  71.470  1.00  0.00    -0.338 C  
HETATM   16  O   UNL     1     -14.189   7.189  71.935  1.00  0.00    -0.368 OA 
BRANCH  15  17
HETATM   17  N   UNL     1     -11.969   6.877  71.384  1.00  0.00    -0.329 N  
BRANCH  17  18
HETATM   18  C   UNL     1     -11.487   6.642  69.993  1.00  0.00    -0.375 C  
BRANCH  18  19
HETATM   19  C   UNL     1     -10.552   7.715  69.425  1.00  0.00    -0.217 A  
HETATM   20  C   UNL     1      -9.390  10.046  68.432  1.00  0.00    -0.138 A  
HETATM   21  C   UNL     1      -9.739   8.505  70.250  1.00  0.00    -0.182 A  
HETATM   22  C   UNL     1      -9.186   9.689  69.759  1.00  0.00    -0.237 A  
HETATM   23  F   UNL     1      -8.964  11.242  67.995  1.00  0.00    -0.136 F  
HETATM   24  C   UNL     1     -10.063   9.201  67.562  1.00  0.00    -0.284 A  
HETATM   25  C   UNL     1     -10.626   8.021  68.050  1.00  0.00    -0.190 A  
ENDBRANCH  18  19
ENDBRANCH  17  18
BRANCH  17  26
HETATM   26  C   UNL     1     -11.338   6.122  72.529  1.00  0.00    -0.286 C  
HETATM   27  C   UNL     1     -10.463   4.911  72.154  1.00  0.00    -0.257 C  
HETATM   28  C   UNL     1     -10.573   6.975  73.589  1.00  0.00    -0.383 C  
HETATM   29  C   UNL     1      -8.265   4.877  74.117  1.00  0.00    -0.100 C  
HETATM   30  C   UNL     1      -9.025   5.302  71.851  1.00  0.00    -0.135 C  
HETATM   31  N   UNL     1      -8.367   5.853  73.031  1.00  0.00    -0.118 NA 
HETATM   32  C   UNL     1      -9.050   7.082  73.431  1.00  0.00    -0.147 C  
ENDBRANCH  17  26
ENDBRANCH  15  17
ENDBRANCH  13  15
ENDBRANCH  12  13
ENDBRANCH   9  12
ENDBRANCH   5   6
ENDBRANCH   4   5
TORSDOF 9
ENDMDL
MODEL       50
REMARK 921   NORMALIZED FREE ENERGY PREDICTED BY IDOCK:   -6.29 KCAL/MOL
REMARK 922        TOTAL FREE ENERGY PREDICTED BY IDOCK:  -11.07 KCAL/MOL
REMARK 923 INTER-LIGAND FREE ENERGY PREDICTED BY IDOCK:   -8.90 KCAL/MOL
REMARK 924 INTRA-LIGAND FREE ENERGY PREDICTED BY IDOCK:   -2.17 KCAL/MOL
REMARK 927      BINDING AFFINITY PREDICTED BY RF-SCORE:    0.00 PKD
ROOT
HETATM    1  C   UNL     1     -12.510  11.909  63.381  1.00  0.00    -0.582 C  
HETATM    2  C   UNL     1     -11.016  12.217  63.483  1.00  0.00    -0.521 C  
HETATM    3  C   UNL     1     -10.776  13.345  64.483  1.00  0.00    -0.434 C  
HETATM    4  C   UNL     1     -10.188  10.957  63.800  1.00  0.00    -0.343 C  
ENDROOT
BRANCH   4   5
HETATM    5  O   UNL     1     -10.512  10.379  65.073  1.00  0.00    -0.262 OA 
BRANCH   5   6
HETATM    6  C   UNL     1      -9.625  10.667  66.082  1.00  0.00    -0.188 A  
HETATM    7  C   UNL     1      -9.971  10.856  67.424  1.00  0.00    -0.215 A  
HETATM    8  C   UNL     1      -9.034  11.377  68.337  1.00  0.00    -0.172 A  
HETATM    9  C   UNL     1      -7.732  11.683  67.924  1.00  0.00    -0.126 A  
HETATM   10  C   UNL     1      -7.351  11.323  66.620  1.00  0.00    -0.131 A  
HETATM   11  C   UNL     1      -8.290  10.821  65.710  1.00  0.00    -0.158 A  
BRANCH   9  12
HETATM   12  C   UNL     1      -6.839  12.591  68.744  1.00  0.00    -0.096 C  
BRANCH  12  13
HETATM   13  N   UNL     1      -6.766  13.971  68.317  1.00  0.00    -0.096 N  
HETATM   14  H   UNL     1      -6.191  14.238  67.518  1.00  0.00     0.000 HD 
BRANCH  13  15
HETATM   15  C   UNL     1      -7.486  14.915  69.008  1.00  0.00    -0.144 C  
HETATM   16  O   UNL     1      -7.225  15.163  70.188  1.00  0.00    -0.098 OA 
BRANCH  15  17
HETATM   17  N   UNL     1      -8.490  15.592  68.305  1.00  0.00    -0.153 N  
BRANCH  17  18
HETATM   18  C   UNL     1      -9.723  14.791  68.066  1.00  0.00    -0.213 C  
BRANCH  18  19
HETATM   19  C   UNL     1     -10.773  14.838  69.180  1.00  0.00    -0.258 A  
HETATM   20  C   UNL     1     -12.265  14.515  71.513  1.00  0.00    -0.347 A  
HETATM   21  C   UNL     1     -10.765  15.834  70.167  1.00  0.00    -0.354 A  
HETATM   22  C   UNL     1     -11.487  15.653  71.349  1.00  0.00    -0.488 A  
HETATM   23  F   UNL     1     -12.857  14.283  72.695  1.00  0.00    -0.410 F  
HETATM   24  C   UNL     1     -12.405  13.593  70.486  1.00  0.00    -0.425 A  
HETATM   25  C   UNL     1     -11.678  13.764  69.308  1.00  0.00    -0.376 A  
ENDBRANCH  18  19
ENDBRANCH  17  18
BRANCH  17  26
HETATM   26  C   UNL     1      -8.319  16.922  67.610  1.00  0.00    -0.184 C  
HETATM   27  C   UNL     1      -9.197  17.166  66.369  1.00  0.00    -0.285 C  
HETATM   28  C   UNL     1      -8.377  18.194  68.514  1.00  0.00    -0.314 C  
HETATM   29  C   UNL     1      -9.873  20.034  66.422  1.00  0.00    -0.459 C  
HETATM   30  C   UNL     1     -10.564  17.727  66.723  1.00  0.00    -0.233 C  
HETATM   31  N   UNL     1     -10.453  19.047  67.333  1.00  0.00    -0.430 NA 
HETATM   32  C   UNL     1      -9.719  18.933  68.592  1.00  0.00    -0.400 C  
ENDBRANCH  17  26
ENDBRANCH  15  17
ENDBRANCH  13  15
ENDBRANCH  12  13
ENDBRANCH   9  12
ENDBRANCH   5   6
ENDBRANCH   4   5
TORSDOF 9
ENDMDL
MODEL       51
REMARK 921   NORMALIZED FREE ENERGY PREDICTED BY IDOCK:   -6.27 KCAL/MOL
REMARK 922        TOTAL FREE ENERGY PREDICTED BY IDOCK:  -11.03 KCAL/MOL
REMARK 923 INTER-LIGAND FREE ENERGY PREDICTED BY IDOCK:   -8.65 KCAL/MOL
REMARK 924 INTRA-LIGAND FREE ENERGY PREDICTED BY IDOCK:   -2.39 KCAL/MOL
REMARK 927      BINDING AFFINITY PREDICTED BY RF-SCORE:    0.00 PKD
ROOT
HETATM    1  C   UNL     1     -10.943  12.201  63.498  1.00  0.00    -0.521 C  
HETATM    2  C   UNL     1     -10.236  10.845  63.478  1.00  0.00    -0.379 C  
HETATM    3  C   UNL     1      -8.894  10.960  62.759  1.00  0.00    -0.304 C  
HETATM    4  C   UNL     1     -10.103  10.243  64.890  1.00  0.00    -0.276 C  
ENDROOT
BRANCH   4   5
HETATM    5  O   UNL     1      -9.296  11.044  65.766  1.00  0.00    -0.196 OA 
BRANCH   5   6
HETATM    6  C   UNL     1      -9.812  11.220  67.028  1.00  0.00    -0.191 A  
HETATM    7  C   UNL     1      -9.184  10.825  68.213  1.00  0.00    -0.157 A  
HETATM    8  C   UNL     1      -9.889  10.832  69.432  1.00  0.00    -0.112 A  
HETATM    9  C   UNL     1     -11.219  11.265  69.483  1.00  0.00    -0.337 A  
HETATM   10  C   UNL     1     -11.777  11.823  68.320  1.00  0.00    -0.377 A  
HETATM   11  C   UNL     1     -11.079  11.798  67.105  1.00  0.00    -0.350 A  
BRANCH   9  12
HETATM   12  C   UNL     1     -12.114  10.922  70.656  1.00  0.00    -0.371 C  
BRANCH  12  13
HETATM   13  N   UNL     1     -12.938   9.743  70.508  1.00  0.00    -0.555 N  
HETATM   14  H   UNL     1     -13.465   9.582  69.650  1.00  0.00     0.000 HD 
BRANCH  13  15
HETATM   15  C   UNL     1     -12.998   8.846  71.545  1.00  0.00    -0.332 C  
HETATM   16  O   UNL     1     -13.981   8.812  72.290  1.00  0.00    -0.430 OA 
BRANCH  15  17
HETATM   17  N   UNL     1     -11.920   7.963  71.689  1.00  0.00    -0.282 N  
BRANCH  17  18
HETATM   18  C   UNL     1     -12.038   6.710  70.891  1.00  0.00    -0.320 C  
BRANCH  18  19
HETATM   19  C   UNL     1     -11.047   6.565  69.732  1.00  0.00    -0.430 A  
HETATM   20  C   UNL     1      -9.747   5.987  67.335  1.00  0.00    -0.115 A  
HETATM   21  C   UNL     1     -10.899   7.557  68.752  1.00  0.00    -0.047 A  
HETATM   22  C   UNL     1     -10.277   7.254  67.538  1.00  0.00    -0.284 A  
HETATM   23  F   UNL     1      -9.261   5.659  66.126  1.00  0.00    -0.145 F  
HETATM   24  C   UNL     1      -9.749   5.040  68.349  1.00  0.00    -0.209 A  
HETATM   25  C   UNL     1     -10.378   5.335  69.559  1.00  0.00    -0.333 A  
ENDBRANCH  18  19
ENDBRANCH  17  18
BRANCH  17  26
HETATM   26  C   UNL     1     -10.826   8.089  72.722  1.00  0.00    -0.369 C  
HETATM   27  C   UNL     1     -10.649   6.898  73.683  1.00  0.00    -0.371 C  
HETATM   28  C   UNL     1      -9.418   8.514  72.200  1.00  0.00    -0.375 C  
HETATM   29  C   UNL     1      -7.752   6.700  74.183  1.00  0.00    -0.100 C  
HETATM   30  C   UNL     1      -9.744   5.818  73.113  1.00  0.00    -0.154 C  
HETATM   31  N   UNL     1      -8.385   6.313  72.921  1.00  0.00    -0.118 NA 
HETATM   32  C   UNL     1      -8.403   7.394  71.938  1.00  0.00    -0.106 C  
ENDBRANCH  17  26
ENDBRANCH  15  17
ENDBRANCH  13  15
ENDBRANCH  12  13
ENDBRANCH   9  12
ENDBRANCH   5   6
ENDBRANCH   4   5
TORSDOF 9
ENDMDL
MODEL       52
REMARK 921   NORMALIZED FREE ENERGY PREDICTED BY IDOCK:   -6.26 KCAL/MOL
REMARK 922        TOTAL FREE ENERGY PREDICTED BY IDOCK:  -11.02 KCAL/MOL
REMARK 923 INTER-LIGAND FREE ENERGY PREDICTED BY IDOCK:  -10.17 KCAL/MOL
REMARK 924 INTRA-LIGAND FREE ENERGY PREDICTED BY IDOCK:   -0.85 KCAL/MOL
REMARK 927      BINDING AFFINITY PREDICTED BY RF-SCORE:    0.00 PKD
ROOT
HETATM    1  C   UNL     1     -11.179   6.377  70.148  1.00  0.00    -0.454 C  
HETATM    2  C   UNL     1     -12.125   6.437  71.348  1.00  0.00    -0.257 C  
HETATM    3  C   UNL     1     -11.407   5.963  72.610  1.00  0.00    -0.337 C  
HETATM    4  C   UNL     1     -12.757   7.832  71.514  1.00  0.00    -0.332 C  
ENDROOT
BRANCH   4   5
HETATM    5  O   UNL     1     -11.790   8.858  71.781  1.00  0.00    -0.311 OA 
BRANCH   5   6
HETATM    6  C   UNL     1     -12.123  10.105  71.310  1.00  0.00    -0.394 A  
HETATM    7  C   UNL     1     -11.555  10.716  70.188  1.00  0.00    -0.414 A  
HETATM    8  C   UNL     1     -11.787  12.080  69.923  1.00  0.00    -0.405 A  
HETATM    9  C   UNL     1     -12.615  12.837  70.759  1.00  0.00    -0.308 A  
HETATM   10  C   UNL     1     -13.316  12.167  71.776  1.00  0.00    -0.342 A  
HETATM   11  C   UNL     1     -13.069  10.814  72.048  1.00  0.00    -0.476 A  
BRANCH   9  12
HETATM   12  C   UNL     1     -12.574  14.351  70.746  1.00  0.00    -0.357 C  
BRANCH  12  13
HETATM   13  N   UNL     1     -12.411  14.974  69.452  1.00  0.00    -0.589 N  
HETATM   14  H   UNL     1     -13.195  15.037  68.803  1.00  0.00     0.000 HD 
BRANCH  13  15
HETATM   15  C   UNL     1     -11.180  15.480  69.113  1.00  0.00    -0.299 C  
HETATM   16  O   UNL     1     -10.283  15.562  69.955  1.00  0.00    -0.301 OA 
BRANCH  15  17
HETATM   17  N   UNL     1     -10.991  15.858  67.778  1.00  0.00    -0.326 N  
BRANCH  17  18
HETATM   18  C   UNL     1     -11.274  17.294  67.497  1.00  0.00     0.205 C  
BRANCH  18  19
HETATM   19  C   UNL     1     -10.048  18.207  67.407  1.00  0.00    -0.359 A  
HETATM   20  C   UNL     1      -8.003  20.050  67.848  1.00  0.00    -0.271 A  
HETATM   21  C   UNL     1      -8.765  17.767  67.763  1.00  0.00    -0.241 A  
HETATM   22  C   UNL     1      -7.752  18.695  68.016  1.00  0.00    -0.282 A  
HETATM   23  F   UNL     1      -7.070  20.946  68.209  1.00  0.00    -0.251 F  
HETATM   24  C   UNL     1      -9.219  20.494  67.349  1.00  0.00    -0.481 A  
HETATM   25  C   UNL     1     -10.237  19.572  67.104  1.00  0.00    -0.542 A  
ENDBRANCH  18  19
ENDBRANCH  17  18
BRANCH  17  26
HETATM   26  C   UNL     1     -10.762  14.905  66.629  1.00  0.00    -0.312 C  
HETATM   27  C   UNL     1      -9.398  14.191  66.591  1.00  0.00    -0.299 C  
HETATM   28  C   UNL     1     -11.880  13.847  66.367  1.00  0.00    -0.436 C  
HETATM   29  C   UNL     1      -9.939  11.494  65.534  1.00  0.00    -0.242 C  
HETATM   30  C   UNL     1      -9.383  12.917  67.420  1.00  0.00    -0.194 C  
HETATM   31  N   UNL     1     -10.308  11.925  66.882  1.00  0.00    -0.208 NA 
HETATM   32  C   UNL     1     -11.670  12.448  66.961  1.00  0.00    -0.353 C  
ENDBRANCH  17  26
ENDBRANCH  15  17
ENDBRANCH  13  15
ENDBRANCH  12  13
ENDBRANCH   9  12
ENDBRANCH   5   6
ENDBRANCH   4   5
TORSDOF 9
ENDMDL
MODEL       53
REMARK 921   NORMALIZED FREE ENERGY PREDICTED BY IDOCK:   -6.25 KCAL/MOL
REMARK 922        TOTAL FREE ENERGY PREDICTED BY IDOCK:  -11.01 KCAL/MOL
REMARK 923 INTER-LIGAND FREE ENERGY PREDICTED BY IDOCK:   -9.01 KCAL/MOL
REMARK 924 INTRA-LIGAND FREE ENERGY PREDICTED BY IDOCK:   -2.00 KCAL/MOL
REMARK 927      BINDING AFFINITY PREDICTED BY RF-SCORE:    0.00 PKD
ROOT
HETATM    1  C   UNL     1     -10.543  19.364  65.919  1.00  0.00    -0.551 C  
HETATM    2  C   UNL     1      -9.569  19.087  67.066  1.00  0.00    -0.364 C  
HETATM    3  C   UNL     1     -10.003  19.842  68.321  1.00  0.00    -0.552 C  
HETATM    4  C   UNL     1      -9.386  17.578  67.315  1.00  0.00    -0.244 C  
ENDROOT
BRANCH   4   5
HETATM    5  O   UNL     1     -10.598  16.926  67.722  1.00  0.00    -0.329 OA 
BRANCH   5   6
HETATM    6  C   UNL     1     -10.879  15.758  67.055  1.00  0.00    -0.273 A  
HETATM    7  C   UNL     1     -11.855  14.833  67.436  1.00  0.00    -0.320 A  
HETATM    8  C   UNL     1     -11.909  13.561  66.832  1.00  0.00    -0.452 A  
HETATM    9  C   UNL     1     -11.008  13.216  65.818  1.00  0.00    -0.295 A  
HETATM   10  C   UNL     1     -10.153  14.216  65.327  1.00  0.00    -0.364 A  
HETATM   11  C   UNL     1     -10.089  15.474  65.942  1.00  0.00    -0.374 A  
BRANCH   9  12
HETATM   12  C   UNL     1     -10.775  11.770  65.432  1.00  0.00    -0.283 C  
BRANCH  12  13
HETATM   13  N   UNL     1     -11.113  10.779  66.430  1.00  0.00    -0.040 N  
HETATM   14  H   UNL     1     -12.078  10.663  66.740  1.00  0.00     0.000 HD 
BRANCH  13  15
HETATM   15  C   UNL     1     -10.112   9.999  66.952  1.00  0.00    -0.229 C  
HETATM   16  O   UNL     1      -9.497   9.205  66.235  1.00  0.00    -0.196 OA 
BRANCH  15  17
HETATM   17  N   UNL     1      -9.807  10.174  68.307  1.00  0.00    -0.143 N  
BRANCH  17  18
HETATM   18  C   UNL     1     -10.770   9.530  69.244  1.00  0.00    -0.222 C  
BRANCH  18  19
HETATM   19  C   UNL     1     -11.724  10.481  69.974  1.00  0.00    -0.394 A  
HETATM   20  C   UNL     1     -12.990  12.202  71.764  1.00  0.00    -0.332 A  
HETATM   21  C   UNL     1     -11.704  11.866  69.756  1.00  0.00    -0.403 A  
HETATM   22  C   UNL     1     -12.310  12.727  70.673  1.00  0.00    -0.381 A  
HETATM   23  F   UNL     1     -13.464  13.030  72.709  1.00  0.00    -0.594 F  
HETATM   24  C   UNL     1     -13.151  10.832  71.914  1.00  0.00    -0.557 A  
HETATM   25  C   UNL     1     -12.538   9.968  71.005  1.00  0.00    -0.463 A  
ENDBRANCH  18  19
ENDBRANCH  17  18
BRANCH  17  26
HETATM   26  C   UNL     1      -8.760  11.118  68.848  1.00  0.00    -0.080 C  
HETATM   27  C   UNL     1      -7.620  10.484  69.666  1.00  0.00    -0.134 C  
HETATM   28  C   UNL     1      -8.136  12.124  67.830  1.00  0.00    -0.152 C  
HETATM   29  C   UNL     1      -5.209  12.054  69.027  1.00  0.00    -0.054 C  
HETATM   30  C   UNL     1      -6.476   9.996  68.792  1.00  0.00    -0.045 C  
HETATM   31  N   UNL     1      -5.829  11.106  68.100  1.00  0.00    -0.046 NA 
HETATM   32  C   UNL     1      -6.792  11.735  67.199  1.00  0.00    -0.148 C  
ENDBRANCH  17  26
ENDBRANCH  15  17
ENDBRANCH  13  15
ENDBRANCH  12  13
ENDBRANCH   9  12
ENDBRANCH   5   6
ENDBRANCH   4   5
TORSDOF 9
ENDMDL
MODEL       54
REMARK 921   NORMALIZED FREE ENERGY PREDICTED BY IDOCK:   -6.25 KCAL/MOL
REMARK 922        TOTAL FREE ENERGY PREDICTED BY IDOCK:  -11.01 KCAL/MOL
REMARK 923 INTER-LIGAND FREE ENERGY PREDICTED BY IDOCK:   -9.67 KCAL/MOL
REMARK 924 INTRA-LIGAND FREE ENERGY PREDICTED BY IDOCK:   -1.34 KCAL/MOL
REMARK 927      BINDING AFFINITY PREDICTED BY RF-SCORE:    0.00 PKD
ROOT
HETATM    1  C   UNL     1      -8.206  19.318  66.301  1.00  0.00    -0.327 C  
HETATM    2  C   UNL     1      -9.678  19.200  66.701  1.00  0.00    -0.401 C  
HETATM    3  C   UNL     1     -10.556  19.967  65.715  1.00  0.00    -0.490 C  
HETATM    4  C   UNL     1     -10.114  17.732  66.868  1.00  0.00    -0.342 C  
ENDROOT
BRANCH   4   5
HETATM    5  O   UNL     1     -10.023  16.979  65.650  1.00  0.00    -0.554 OA 
BRANCH   5   6
HETATM    6  C   UNL     1     -10.227  15.627  65.788  1.00  0.00    -0.367 A  
HETATM    7  C   UNL     1      -9.732  14.845  66.836  1.00  0.00    -0.248 A  
HETATM    8  C   UNL     1      -9.792  13.439  66.769  1.00  0.00    -0.265 A  
HETATM    9  C   UNL     1     -10.376  12.804  65.667  1.00  0.00    -0.296 A  
HETATM   10  C   UNL     1     -11.025  13.604  64.711  1.00  0.00    -0.384 A  
HETATM   11  C   UNL     1     -10.948  15.001  64.772  1.00  0.00    -0.389 A  
BRANCH   9  12
HETATM   12  C   UNL     1     -10.112  11.342  65.371  1.00  0.00    -0.261 C  
BRANCH  12  13
HETATM   13  N   UNL     1     -10.594  10.394  66.351  1.00  0.00    -0.172 N  
HETATM   14  H   UNL     1     -11.591  10.195  66.435  1.00  0.00     0.000 HD 
BRANCH  13  15
HETATM   15  C   UNL     1      -9.684   9.768  67.167  1.00  0.00    -0.176 C  
HETATM   16  O   UNL     1      -8.505  10.130  67.185  1.00  0.00    -0.125 OA 
BRANCH  15  17
HETATM   17  N   UNL     1     -10.165   8.740  67.987  1.00  0.00    -0.204 N  
BRANCH  17  18
HETATM   18  C   UNL     1     -10.099   9.034  69.447  1.00  0.00    -0.198 C  
BRANCH  18  19
HETATM   19  C   UNL     1     -11.212   9.935  69.993  1.00  0.00    -0.327 A  
HETATM   20  C   UNL     1     -12.802  11.682  71.473  1.00  0.00    -0.364 A  
HETATM   21  C   UNL     1     -11.345  11.274  69.599  1.00  0.00    -0.359 A  
HETATM   22  C   UNL     1     -12.115  12.154  70.362  1.00  0.00    -0.395 A  
HETATM   23  F   UNL     1     -13.440  12.550  72.275  1.00  0.00    -0.592 F  
HETATM   24  C   UNL     1     -12.805  10.332  71.789  1.00  0.00    -0.565 A  
HETATM   25  C   UNL     1     -12.029   9.450  71.036  1.00  0.00    -0.389 A  
ENDBRANCH  18  19
ENDBRANCH  17  18
BRANCH  17  26
HETATM   26  C   UNL     1     -10.502   7.343  67.523  1.00  0.00    -0.268 C  
HETATM   27  C   UNL     1      -9.482   6.665  66.590  1.00  0.00    -0.201 C  
HETATM   28  C   UNL     1     -10.916   6.322  68.628  1.00  0.00    -0.423 C  
HETATM   29  C   UNL     1      -9.512   3.809  67.317  1.00  0.00    -0.200 C  
HETATM   30  C   UNL     1      -8.376   5.954  67.354  1.00  0.00    -0.105 C  
HETATM   31  N   UNL     1      -8.906   4.851  68.148  1.00  0.00    -0.102 NA 
HETATM   32  C   UNL     1      -9.823   5.382  69.155  1.00  0.00    -0.177 C  
ENDBRANCH  17  26
ENDBRANCH  15  17
ENDBRANCH  13  15
ENDBRANCH  12  13
ENDBRANCH   9  12
ENDBRANCH   5   6
ENDBRANCH   4   5
TORSDOF 9
ENDMDL
MODEL       55
REMARK 921   NORMALIZED FREE ENERGY PREDICTED BY IDOCK:   -6.25 KCAL/MOL
REMARK 922        TOTAL FREE ENERGY PREDICTED BY IDOCK:  -11.00 KCAL/MOL
REMARK 923 INTER-LIGAND FREE ENERGY PREDICTED BY IDOCK:   -9.70 KCAL/MOL
REMARK 924 INTRA-LIGAND FREE ENERGY PREDICTED BY IDOCK:   -1.30 KCAL/MOL
REMARK 927      BINDING AFFINITY PREDICTED BY RF-SCORE:    0.00 PKD
ROOT
HETATM    1  C   UNL     1     -11.508   4.881  73.213  1.00  0.00    -0.359 C  
HETATM    2  C   UNL     1     -10.440   5.977  73.201  1.00  0.00    -0.250 C  
HETATM    3  C   UNL     1      -9.132   5.432  72.633  1.00  0.00    -0.139 C  
HETATM    4  C   UNL     1     -10.922   7.244  72.470  1.00  0.00    -0.282 C  
ENDROOT
BRANCH   4   5
HETATM    5  O   UNL     1     -11.204   7.016  71.081  1.00  0.00    -0.253 OA 
BRANCH   5   6
HETATM    6  C   UNL     1     -10.884   8.060  70.247  1.00  0.00    -0.241 A  
HETATM    7  C   UNL     1     -10.207   7.935  69.030  1.00  0.00    -0.216 A  
HETATM    8  C   UNL     1      -9.718   9.076  68.364  1.00  0.00    -0.170 A  
HETATM    9  C   UNL     1      -9.929  10.355  68.893  1.00  0.00    -0.208 A  
HETATM   10  C   UNL     1     -10.760  10.474  70.020  1.00  0.00    -0.282 A  
HETATM   11  C   UNL     1     -11.230   9.337  70.689  1.00  0.00    -0.333 A  
BRANCH   9  12
HETATM   12  C   UNL     1      -9.103  11.540  68.439  1.00  0.00    -0.185 C  
BRANCH  12  13
HETATM   13  N   UNL     1      -9.564  12.842  68.868  1.00  0.00    -0.399 N  
HETATM   14  H   UNL     1     -10.005  12.962  69.780  1.00  0.00     0.000 HD 
BRANCH  13  15
HETATM   15  C   UNL     1      -9.397  13.912  68.025  1.00  0.00    -0.204 C  
HETATM   16  O   UNL     1      -8.279  14.202  67.592  1.00  0.00    -0.158 OA 
BRANCH  15  17
HETATM   17  N   UNL     1     -10.547  14.624  67.661  1.00  0.00    -0.254 N  
BRANCH  17  18
HETATM   18  C   UNL     1     -10.849  15.795  68.532  1.00  0.00    -0.290 C  
BRANCH  18  19
HETATM   19  C   UNL     1     -11.653  15.490  69.800  1.00  0.00    -0.345 A  
HETATM   20  C   UNL     1     -12.608  14.535  72.239  1.00  0.00    -0.303 A  
HETATM   21  C   UNL     1     -11.540  16.273  70.958  1.00  0.00    -0.343 A  
HETATM   22  C   UNL     1     -11.989  15.777  72.184  1.00  0.00    -0.580 A  
HETATM   23  F   UNL     1     -12.926  14.007  73.431  1.00  0.00    -0.549 F  
HETATM   24  C   UNL     1     -12.865  13.814  71.082  1.00  0.00    -0.409 A  
HETATM   25  C   UNL     1     -12.409  14.301  69.856  1.00  0.00    -0.377 A  
ENDBRANCH  18  19
ENDBRANCH  17  18
BRANCH  17  26
HETATM   26  C   UNL     1     -11.569  14.165  66.649  1.00  0.00    -0.384 C  
HETATM   27  C   UNL     1     -11.317  14.573  65.186  1.00  0.00    -0.366 C  
HETATM   28  C   UNL     1     -11.951  12.651  66.680  1.00  0.00    -0.382 C  
HETATM   29  C   UNL     1     -12.264  12.311  63.552  1.00  0.00    -0.568 C  
HETATM   30  C   UNL     1     -10.413  13.595  64.454  1.00  0.00    -0.300 C  
HETATM   31  N   UNL     1     -11.035  12.280  64.345  1.00  0.00    -0.308 NA 
HETATM   32  C   UNL     1     -11.234  11.730  65.684  1.00  0.00    -0.267 C  
ENDBRANCH  17  26
ENDBRANCH  15  17
ENDBRANCH  13  15
ENDBRANCH  12  13
ENDBRANCH   9  12
ENDBRANCH   5   6
ENDBRANCH   4   5
TORSDOF 9
ENDMDL
MODEL       56
REMARK 921   NORMALIZED FREE ENERGY PREDICTED BY IDOCK:   -6.24 KCAL/MOL
REMARK 922        TOTAL FREE ENERGY PREDICTED BY IDOCK:  -10.99 KCAL/MOL
REMARK 923 INTER-LIGAND FREE ENERGY PREDICTED BY IDOCK:   -8.52 KCAL/MOL
REMARK 924 INTRA-LIGAND FREE ENERGY PREDICTED BY IDOCK:   -2.47 KCAL/MOL
REMARK 927      BINDING AFFINITY PREDICTED BY RF-SCORE:    0.00 PKD
ROOT
HETATM    1  C   UNL     1      -8.476  19.338  68.584  1.00  0.00    -0.403 C  
HETATM    2  C   UNL     1      -9.963  18.985  68.533  1.00  0.00    -0.486 C  
HETATM    3  C   UNL     1     -10.576  19.471  67.221  1.00  0.00    -0.610 C  
HETATM    4  C   UNL     1     -10.209  17.485  68.783  1.00  0.00    -0.373 C  
ENDROOT
BRANCH   4   5
HETATM    5  O   UNL     1      -9.617  16.646  67.782  1.00  0.00    -0.232 OA 
BRANCH   5   6
HETATM    6  C   UNL     1     -10.512  15.929  67.024  1.00  0.00    -0.306 A  
HETATM    7  C   UNL     1     -11.468  15.046  67.536  1.00  0.00    -0.339 A  
HETATM    8  C   UNL     1     -12.177  14.184  66.676  1.00  0.00    -0.450 A  
HETATM    9  C   UNL     1     -11.959  14.220  65.294  1.00  0.00    -0.389 A  
HETATM   10  C   UNL     1     -11.129  15.232  64.782  1.00  0.00    -0.407 A  
HETATM   11  C   UNL     1     -10.412  16.075  65.641  1.00  0.00    -0.416 A  
BRANCH   9  12
HETATM   12  C   UNL     1     -12.387  13.075  64.400  1.00  0.00    -0.376 C  
BRANCH  12  13
HETATM   13  N   UNL     1     -11.961  11.754  64.806  1.00  0.00    -0.126 N  
HETATM   14  H   UNL     1     -12.643  11.057  65.107  1.00  0.00     0.000 HD 
BRANCH  13  15
HETATM   15  C   UNL     1     -10.621  11.455  64.779  1.00  0.00    -0.316 C  
HETATM   16  O   UNL     1      -9.923  11.789  63.819  1.00  0.00    -0.315 OA 
BRANCH  15  17
HETATM   17  N   UNL     1     -10.092  10.794  65.895  1.00  0.00    -0.247 N  
BRANCH  17  18
HETATM   18  C   UNL     1      -8.608  10.662  65.887  1.00  0.00    -0.172 C  
BRANCH  18  19
HETATM   19  C   UNL     1      -7.848  11.661  66.766  1.00  0.00    -0.130 A  
HETATM   20  C   UNL     1      -6.219  13.680  67.786  1.00  0.00    -0.152 A  
HETATM   21  C   UNL     1      -8.402  12.894  67.139  1.00  0.00    -0.158 A  
HETATM   22  C   UNL     1      -7.577  13.915  67.618  1.00  0.00    -0.188 A  
HETATM   23  F   UNL     1      -5.409  14.695  68.127  1.00  0.00    -0.092 F  
HETATM   24  C   UNL     1      -5.680  12.421  67.567  1.00  0.00    -0.138 A  
HETATM   25  C   UNL     1      -6.498  11.401  67.079  1.00  0.00    -0.120 A  
ENDBRANCH  18  19
ENDBRANCH  17  18
BRANCH  17  26
HETATM   26  C   UNL     1     -10.902  10.043  66.925  1.00  0.00    -0.082 C  
HETATM   27  C   UNL     1     -10.400   8.636  67.300  1.00  0.00    -0.366 C  
HETATM   28  C   UNL     1     -11.244  10.812  68.239  1.00  0.00    -0.358 C  
HETATM   29  C   UNL     1     -10.978   8.324  70.173  1.00  0.00    -0.222 C  
HETATM   30  C   UNL     1      -9.353   8.665  68.402  1.00  0.00    -0.138 C  
HETATM   31  N   UNL     1      -9.912   9.178  69.648  1.00  0.00    -0.183 NA 
HETATM   32  C   UNL     1     -10.336  10.562  69.450  1.00  0.00    -0.234 C  
ENDBRANCH  17  26
ENDBRANCH  15  17
ENDBRANCH  13  15
ENDBRANCH  12  13
ENDBRANCH   9  12
ENDBRANCH   5   6
ENDBRANCH   4   5
TORSDOF 9
ENDMDL
MODEL       57
REMARK 921   NORMALIZED FREE ENERGY PREDICTED BY IDOCK:   -6.22 KCAL/MOL
REMARK 922        TOTAL FREE ENERGY PREDICTED BY IDOCK:  -10.96 KCAL/MOL
REMARK 923 INTER-LIGAND FREE ENERGY PREDICTED BY IDOCK:   -8.26 KCAL/MOL
REMARK 924 INTRA-LIGAND FREE ENERGY PREDICTED BY IDOCK:   -2.70 KCAL/MOL
REMARK 927      BINDING AFFINITY PREDICTED BY RF-SCORE:    0.00 PKD
ROOT
HETATM    1  C   UNL     1      -7.548   8.864  63.677  1.00  0.00    -0.118 C  
HETATM    2  C   UNL     1      -7.813   8.232  65.045  1.00  0.00    -0.126 C  
HETATM    3  C   UNL     1      -6.570   8.340  65.925  1.00  0.00    -0.053 C  
HETATM    4  C   UNL     1      -9.069   8.819  65.717  1.00  0.00    -0.212 C  
ENDROOT
BRANCH   4   5
HETATM    5  O   UNL     1      -8.951  10.221  65.997  1.00  0.00    -0.146 OA 
BRANCH   5   6
HETATM    6  C   UNL     1      -9.747  10.675  67.021  1.00  0.00    -0.176 A  
HETATM    7  C   UNL     1     -11.145  10.672  67.012  1.00  0.00    -0.217 A  
HETATM    8  C   UNL     1     -11.868  11.370  67.999  1.00  0.00    -0.273 A  
HETATM    9  C   UNL     1     -11.200  12.052  69.022  1.00  0.00    -0.313 A  
HETATM   10  C   UNL     1      -9.806  11.898  69.117  1.00  0.00     0.246 A  
HETATM   11  C   UNL     1      -9.089  11.218  68.124  1.00  0.00    -0.166 A  
BRANCH   9  12
HETATM   12  C   UNL     1     -11.897  13.115  69.845  1.00  0.00    -0.308 C  
BRANCH  12  13
HETATM   13  N   UNL     1     -12.022  14.419  69.231  1.00  0.00    -0.356 N  
HETATM   14  H   UNL     1     -12.920  14.738  68.869  1.00  0.00     0.000 HD 
BRANCH  13  15
HETATM   15  C   UNL     1     -10.909  15.217  69.145  1.00  0.00    -0.251 C  
HETATM   16  O   UNL     1     -10.208  15.426  70.138  1.00  0.00    -0.292 OA 
BRANCH  15  17
HETATM   17  N   UNL     1     -10.597  15.744  67.885  1.00  0.00    -0.274 N  
BRANCH  17  18
HETATM   18  C   UNL     1      -9.896  14.794  66.976  1.00  0.00    -0.239 C  
BRANCH  18  19
HETATM   19  C   UNL     1     -10.741  14.221  65.833  1.00  0.00    -0.304 A  
HETATM   20  C   UNL     1     -12.230  12.621  64.103  1.00  0.00    -0.450 A  
HETATM   21  C   UNL     1     -12.142  14.287  65.840  1.00  0.00    -0.416 A  
HETATM   22  C   UNL     1     -12.885  13.459  64.996  1.00  0.00    -0.344 A  
HETATM   23  F   UNL     1     -12.940  11.739  63.382  1.00  0.00    -0.680 F  
HETATM   24  C   UNL     1     -10.849  12.653  63.976  1.00  0.00    -0.452 A  
HETATM   25  C   UNL     1     -10.102  13.471  64.824  1.00  0.00    -0.267 A  
ENDBRANCH  18  19
ENDBRANCH  17  18
BRANCH  17  26
HETATM   26  C   UNL     1     -10.708  17.200  67.500  1.00  0.00    -0.276 C  
HETATM   27  C   UNL     1     -10.307  18.226  68.575  1.00  0.00    -0.341 C  
HETATM   28  C   UNL     1     -10.048  17.616  66.148  1.00  0.00    -0.307 C  
HETATM   29  C   UNL     1      -9.040  20.452  67.118  1.00  0.00    -0.362 C  
HETATM   30  C   UNL     1      -8.816  18.522  68.572  1.00  0.00    -0.326 C  
HETATM   31  N   UNL     1      -8.404  19.150  67.321  1.00  0.00    -0.274 NA 
HETATM   32  C   UNL     1      -8.639  18.222  66.218  1.00  0.00    -0.184 C  
ENDBRANCH  17  26
ENDBRANCH  15  17
ENDBRANCH  13  15
ENDBRANCH  12  13
ENDBRANCH   9  12
ENDBRANCH   5   6
ENDBRANCH   4   5
TORSDOF 9
ENDMDL
MODEL       58
REMARK 921   NORMALIZED FREE ENERGY PREDICTED BY IDOCK:   -6.20 KCAL/MOL
REMARK 922        TOTAL FREE ENERGY PREDICTED BY IDOCK:  -10.94 KCAL/MOL
REMARK 923 INTER-LIGAND FREE ENERGY PREDICTED BY IDOCK:   -9.11 KCAL/MOL
REMARK 924 INTRA-LIGAND FREE ENERGY PREDICTED BY IDOCK:   -1.83 KCAL/MOL
REMARK 927      BINDING AFFINITY PREDICTED BY RF-SCORE:    0.00 PKD
ROOT
HETATM    1  C   UNL     1     -14.148  13.635  72.382  1.00  0.00    -0.586 C  
HETATM    2  C   UNL     1     -13.770  15.114  72.285  1.00  0.00    -0.596 C  
HETATM    3  C   UNL     1     -12.895  15.515  73.470  1.00  0.00    -0.687 C  
HETATM    4  C   UNL     1     -13.125  15.457  70.928  1.00  0.00    -0.468 C  
ENDROOT
BRANCH   4   5
HETATM    5  O   UNL     1     -11.887  14.767  70.707  1.00  0.00    -0.280 OA 
BRANCH   5   6
HETATM    6  C   UNL     1     -11.915  13.841  69.691  1.00  0.00    -0.342 A  
HETATM    7  C   UNL     1     -12.029  12.459  69.870  1.00  0.00    -0.369 A  
HETATM    8  C   UNL     1     -11.810  11.579  68.792  1.00  0.00    -0.394 A  
HETATM    9  C   UNL     1     -11.507  12.074  67.518  1.00  0.00    -0.403 A  
HETATM   10  C   UNL     1     -11.571  13.464  67.318  1.00  0.00    -0.400 A  
HETATM   11  C   UNL     1     -11.771  14.337  68.396  1.00  0.00    -0.373 A  
BRANCH   9  12
HETATM   12  C   UNL     1     -10.889  11.189  66.456  1.00  0.00    -0.245 C  
BRANCH  12  13
HETATM   13  N   UNL     1      -9.689  10.477  66.838  1.00  0.00    -0.175 N  
HETATM   14  H   UNL     1      -8.783  10.945  66.832  1.00  0.00     0.000 HD 
BRANCH  13  15
HETATM   15  C   UNL     1      -9.794   9.159  67.207  1.00  0.00    -0.189 C  
HETATM   16  O   UNL     1     -10.582   8.406  66.629  1.00  0.00    -0.262 OA 
BRANCH  15  17
HETATM   17  N   UNL     1      -8.950   8.714  68.232  1.00  0.00    -0.142 N  
BRANCH  17  18
HETATM   18  C   UNL     1      -9.237   9.307  69.569  1.00  0.00    -0.165 C  
BRANCH  18  19
HETATM   19  C   UNL     1     -10.283   8.570  70.411  1.00  0.00    -0.215 A  
HETATM   20  C   UNL     1     -12.611   7.527  71.534  1.00  0.00    -0.355 A  
HETATM   21  C   UNL     1     -10.680   7.256  70.121  1.00  0.00    -0.260 A  
HETATM   22  C   UNL     1     -11.865   6.749  70.659  1.00  0.00    -0.442 A  
HETATM   23  F   UNL     1     -13.810   7.087  71.952  1.00  0.00    -0.403 F  
HETATM   24  C   UNL     1     -12.156   8.769  71.951  1.00  0.00    -0.433 A  
HETATM   25  C   UNL     1     -10.978   9.284  71.408  1.00  0.00    -0.429 A  
ENDBRANCH  18  19
ENDBRANCH  17  18
BRANCH  17  26
HETATM   26  C   UNL     1      -7.692   7.903  68.031  1.00  0.00    -0.125 C  
HETATM   27  C   UNL     1      -6.689   7.891  69.199  1.00  0.00    -0.048 C  
HETATM   28  C   UNL     1      -7.881   6.437  67.527  1.00  0.00    -0.105 C  
HETATM   29  C   UNL     1      -5.520   5.186  69.219  1.00  0.00    -0.008 C  
HETATM   30  C   UNL     1      -7.005   6.819  70.229  1.00  0.00    -0.066 C  
HETATM   31  N   UNL     1      -6.885   5.482  69.655  1.00  0.00    -0.058 NA 
HETATM   32  C   UNL     1      -7.871   5.328  68.588  1.00  0.00    -0.086 C  
ENDBRANCH  17  26
ENDBRANCH  15  17
ENDBRANCH  13  15
ENDBRANCH  12  13
ENDBRANCH   9  12
ENDBRANCH   5   6
ENDBRANCH   4   5
TORSDOF 9
ENDMDL
MODEL       59
REMARK 921   NORMALIZED FREE ENERGY PREDICTED BY IDOCK:   -6.20 KCAL/MOL
REMARK 922        TOTAL FREE ENERGY PREDICTED BY IDOCK:  -10.93 KCAL/MOL
REMARK 923 INTER-LIGAND FREE ENERGY PREDICTED BY IDOCK:   -8.68 KCAL/MOL
REMARK 924 INTRA-LIGAND FREE ENERGY PREDICTED BY IDOCK:   -2.26 KCAL/MOL
REMARK 927      BINDING AFFINITY PREDICTED BY RF-SCORE:    0.00 PKD
ROOT
HETATM    1  C   UNL     1     -10.163   6.143  68.881  1.00  0.00    -0.232 C  
HETATM    2  C   UNL     1     -10.947   5.594  70.074  1.00  0.00    -0.311 C  
HETATM    3  C   UNL     1     -10.027   4.776  70.978  1.00  0.00    -0.279 C  
HETATM    4  C   UNL     1     -11.691   6.706  70.836  1.00  0.00    -0.375 C  
ENDROOT
BRANCH   4   5
HETATM    5  O   UNL     1     -10.808   7.676  71.417  1.00  0.00    -0.224 OA 
BRANCH   5   6
HETATM    6  C   UNL     1     -11.036   8.974  71.027  1.00  0.00    -0.284 A  
HETATM    7  C   UNL     1     -12.128   9.751  71.428  1.00  0.00    -0.486 A  
HETATM    8  C   UNL     1     -12.401  10.979  70.794  1.00  0.00    -0.496 A  
HETATM    9  C   UNL     1     -11.567  11.457  69.777  1.00  0.00    -0.407 A  
HETATM   10  C   UNL     1     -10.381  10.752  69.511  1.00  0.00    -0.178 A  
HETATM   11  C   UNL     1     -10.121   9.523  70.129  1.00  0.00    -0.293 A  
BRANCH   9  12
HETATM   12  C   UNL     1     -12.030  12.538  68.823  1.00  0.00    -0.238 C  
BRANCH  12  13
HETATM   13  N   UNL     1     -11.842  12.271  67.414  1.00  0.00    -0.322 N  
HETATM   14  H   UNL     1     -11.828  11.313  67.064  1.00  0.00     0.000 HD 
BRANCH  13  15
HETATM   15  C   UNL     1     -11.680  13.331  66.557  1.00  0.00    -0.377 C  
HETATM   16  O   UNL     1     -12.628  14.075  66.294  1.00  0.00    -0.451 OA 
BRANCH  15  17
HETATM   17  N   UNL     1     -10.398  13.540  66.035  1.00  0.00    -0.296 N  
BRANCH  17  18
HETATM   18  C   UNL     1      -9.992  12.562  64.986  1.00  0.00    -0.176 C  
BRANCH  18  19
HETATM   19  C   UNL     1      -9.346  11.271  65.495  1.00  0.00    -0.243 A  
HETATM   20  C   UNL     1      -8.457   9.093  66.991  1.00  0.00    -0.123 A  
HETATM   21  C   UNL     1      -9.976  10.024  65.371  1.00  0.00    -0.364 A  
HETATM   22  C   UNL     1      -9.550   8.944  66.147  1.00  0.00    -0.335 A  
HETATM   23  F   UNL     1      -8.126   8.094  67.826  1.00  0.00    -0.118 F  
HETATM   24  C   UNL     1      -7.728  10.272  67.014  1.00  0.00    -0.100 A  
HETATM   25  C   UNL     1      -8.156  11.357  66.248  1.00  0.00    -0.064 A  
ENDBRANCH  18  19
ENDBRANCH  17  18
BRANCH  17  26
HETATM   26  C   UNL     1      -9.372  14.491  66.604  1.00  0.00    -0.281 C  
HETATM   27  C   UNL     1      -9.490  15.965  66.174  1.00  0.00    -0.375 C  
HETATM   28  C   UNL     1      -9.157  14.443  68.149  1.00  0.00    -0.194 C  
HETATM   29  C   UNL     1      -8.694  17.548  68.529  1.00  0.00    -0.282 C  
HETATM   30  C   UNL     1     -10.448  16.754  67.052  1.00  0.00    -0.285 C  
HETATM   31  N   UNL     1      -9.965  16.831  68.426  1.00  0.00    -0.255 NA 
HETATM   32  C   UNL     1      -9.908  15.484  68.990  1.00  0.00    -0.235 C  
ENDBRANCH  17  26
ENDBRANCH  15  17
ENDBRANCH  13  15
ENDBRANCH  12  13
ENDBRANCH   9  12
ENDBRANCH   5   6
ENDBRANCH   4   5
TORSDOF 9
ENDMDL
MODEL       60
REMARK 921   NORMALIZED FREE ENERGY PREDICTED BY IDOCK:   -6.19 KCAL/MOL
REMARK 922        TOTAL FREE ENERGY PREDICTED BY IDOCK:  -10.92 KCAL/MOL
REMARK 923 INTER-LIGAND FREE ENERGY PREDICTED BY IDOCK:   -8.39 KCAL/MOL
REMARK 924 INTRA-LIGAND FREE ENERGY PREDICTED BY IDOCK:   -2.53 KCAL/MOL
REMARK 927      BINDING AFFINITY PREDICTED BY RF-SCORE:    0.00 PKD
ROOT
HETATM    1  C   UNL     1     -11.955  14.378  66.974  1.00  0.00    -0.424 C  
HETATM    2  C   UNL     1     -12.365  13.658  65.689  1.00  0.00    -0.518 C  
HETATM    3  C   UNL     1     -12.265  14.607  64.497  1.00  0.00    -0.473 C  
HETATM    4  C   UNL     1     -11.570  12.355  65.479  1.00  0.00    -0.385 C  
ENDROOT
BRANCH   4   5
HETATM    5  O   UNL     1     -10.162  12.578  65.319  1.00  0.00    -0.279 OA 
BRANCH   5   6
HETATM    6  C   UNL     1      -9.365  11.914  66.221  1.00  0.00    -0.227 A  
HETATM    7  C   UNL     1      -9.249  10.524  66.318  1.00  0.00    -0.192 A  
HETATM    8  C   UNL     1      -8.597   9.937  67.419  1.00  0.00    -0.125 A  
HETATM    9  C   UNL     1      -8.025  10.735  68.417  1.00  0.00    -0.124 A  
HETATM   10  C   UNL     1      -7.996  12.125  68.214  1.00  0.00    -0.163 A  
HETATM   11  C   UNL     1      -8.662  12.707  67.127  1.00  0.00    -0.201 A  
BRANCH   9  12
HETATM   12  C   UNL     1      -7.678  10.165  69.777  1.00  0.00    -0.168 C  
BRANCH  12  13
HETATM   13  N   UNL     1      -8.071   8.794  70.015  1.00  0.00    -0.104 N  
HETATM   14  H   UNL     1      -7.586   8.026  69.549  1.00  0.00     0.000 HD 
BRANCH  13  15
HETATM   15  C   UNL     1      -9.109   8.545  70.878  1.00  0.00    -0.172 C  
HETATM   16  O   UNL     1      -9.042   8.900  72.058  1.00  0.00    -0.353 OA 
BRANCH  15  17
HETATM   17  N   UNL     1     -10.240   7.911  70.350  1.00  0.00    -0.195 N  
BRANCH  17  18
HETATM   18  C   UNL     1     -11.158   8.812  69.597  1.00  0.00    -0.028 C  
BRANCH  18  19
HETATM   19  C   UNL     1     -11.650  10.046  70.360  1.00  0.00    -0.379 A  
HETATM   20  C   UNL     1     -13.029  12.279  71.300  1.00  0.00    -0.204 A  
HETATM   21  C   UNL     1     -12.476   9.943  71.489  1.00  0.00    -0.506 A  
HETATM   22  C   UNL     1     -13.191  11.055  71.936  1.00  0.00    -0.503 A  
HETATM   23  F   UNL     1     -13.808  13.315  71.650  1.00  0.00    -0.392 F  
HETATM   24  C   UNL     1     -12.103  12.436  70.279  1.00  0.00    -0.377 A  
HETATM   25  C   UNL     1     -11.393  11.325  69.822  1.00  0.00    -0.348 A  
ENDBRANCH  18  19
ENDBRANCH  17  18
BRANCH  17  26
HETATM   26  C   UNL     1     -10.681   6.504  70.679  1.00  0.00    -0.248 C  
HETATM   27  C   UNL     1      -9.576   5.433  70.728  1.00  0.00    -0.228 C  
HETATM   28  C   UNL     1     -11.589   6.335  71.938  1.00  0.00    -0.369 C  
HETATM   29  C   UNL     1     -10.358   3.578  72.881  1.00  0.00    -0.166 C  
HETATM   30  C   UNL     1      -8.902   5.351  72.087  1.00  0.00    -0.130 C  
HETATM   31  N   UNL     1      -9.841   4.927  73.120  1.00  0.00    -0.148 NA 
HETATM   32  C   UNL     1     -10.898   5.928  73.247  1.00  0.00    -0.261 C  
ENDBRANCH  17  26
ENDBRANCH  15  17
ENDBRANCH  13  15
ENDBRANCH  12  13
ENDBRANCH   9  12
ENDBRANCH   5   6
ENDBRANCH   4   5
TORSDOF 9
ENDMDL
MODEL       61
REMARK 921   NORMALIZED FREE ENERGY PREDICTED BY IDOCK:   -6.19 KCAL/MOL
REMARK 922        TOTAL FREE ENERGY PREDICTED BY IDOCK:  -10.92 KCAL/MOL
REMARK 923 INTER-LIGAND FREE ENERGY PREDICTED BY IDOCK:   -9.53 KCAL/MOL
REMARK 924 INTRA-LIGAND FREE ENERGY PREDICTED BY IDOCK:   -1.39 KCAL/MOL
REMARK 927      BINDING AFFINITY PREDICTED BY RF-SCORE:    0.00 PKD
ROOT
HETATM    1  C   UNL     1     -10.607  16.002  67.356  1.00  0.00    -0.316 C  
HETATM    2  C   UNL     1      -9.818  16.437  68.592  1.00  0.00    -0.234 C  
HETATM    3  C   UNL     1     -10.005  17.933  68.839  1.00  0.00    -0.337 C  
HETATM    4  C   UNL     1     -10.165  15.584  69.827  1.00  0.00    -0.294 C  
ENDROOT
BRANCH   4   5
HETATM    5  O   UNL     1     -11.537  15.711  70.227  1.00  0.00    -0.297 OA 
BRANCH   5   6
HETATM    6  C   UNL     1     -12.155  14.529  70.559  1.00  0.00    -0.325 A  
HETATM    7  C   UNL     1     -13.019  14.353  71.644  1.00  0.00    -0.412 A  
HETATM    8  C   UNL     1     -13.414  13.060  72.040  1.00  0.00    -0.584 A  
HETATM    9  C   UNL     1     -12.974  11.934  71.336  1.00  0.00    -0.385 A  
HETATM   10  C   UNL     1     -12.253  12.139  70.147  1.00  0.00    -0.308 A  
HETATM   11  C   UNL     1     -11.848  13.424  69.765  1.00  0.00    -0.393 A  
BRANCH   9  12
HETATM   12  C   UNL     1     -13.042  10.549  71.944  1.00  0.00    -0.462 C  
BRANCH  12  13
HETATM   13  N   UNL     1     -13.038   9.441  71.014  1.00  0.00    -0.543 N  
HETATM   14  H   UNL     1     -13.011   9.607  70.008  1.00  0.00     0.000 HD 
BRANCH  13  15
HETATM   15  C   UNL     1     -13.071   8.162  71.511  1.00  0.00    -0.287 C  
HETATM   16  O   UNL     1     -14.147   7.590  71.702  1.00  0.00    -0.411 OA 
BRANCH  15  17
HETATM   17  N   UNL     1     -11.840   7.539  71.753  1.00  0.00    -0.283 N  
BRANCH  17  18
HETATM   18  C   UNL     1     -11.770   6.118  71.311  1.00  0.00    -0.144 C  
BRANCH  18  19
HETATM   19  C   UNL     1     -10.960   5.857  70.037  1.00  0.00    -0.430 A  
HETATM   20  C   UNL     1      -9.963   4.944  67.599  1.00  0.00    -0.141 A  
HETATM   21  C   UNL     1     -11.147   6.613  68.870  1.00  0.00    -0.312 A  
HETATM   22  C   UNL     1     -10.675   6.135  67.645  1.00  0.00    -0.388 A  
HETATM   23  F   UNL     1      -9.619   4.425  66.410  1.00  0.00    -0.140 F  
HETATM   24  C   UNL     1      -9.638   4.261  68.762  1.00  0.00    -0.219 A  
HETATM   25  C   UNL     1     -10.115   4.729  69.987  1.00  0.00    -0.308 A  
ENDBRANCH  18  19
ENDBRANCH  17  18
BRANCH  17  26
HETATM   26  C   UNL     1     -10.727   8.112  72.599  1.00  0.00    -0.351 C  
HETATM   27  C   UNL     1     -10.150   7.191  73.690  1.00  0.00    -0.389 C  
HETATM   28  C   UNL     1      -9.539   8.774  71.832  1.00  0.00    -0.372 C  
HETATM   29  C   UNL     1      -7.272   7.808  73.814  1.00  0.00    -0.121 C  
HETATM   30  C   UNL     1      -9.048   6.286  73.166  1.00  0.00    -0.129 C  
HETATM   31  N   UNL     1      -7.894   7.060  72.721  1.00  0.00    -0.098 NA 
HETATM   32  C   UNL     1      -8.291   7.911  71.601  1.00  0.00    -0.116 C  
ENDBRANCH  17  26
ENDBRANCH  15  17
ENDBRANCH  13  15
ENDBRANCH  12  13
ENDBRANCH   9  12
ENDBRANCH   5   6
ENDBRANCH   4   5
TORSDOF 9
ENDMDL
MODEL       62
REMARK 921   NORMALIZED FREE ENERGY PREDICTED BY IDOCK:   -6.19 KCAL/MOL
REMARK 922        TOTAL FREE ENERGY PREDICTED BY IDOCK:  -10.91 KCAL/MOL
REMARK 923 INTER-LIGAND FREE ENERGY PREDICTED BY IDOCK:   -9.44 KCAL/MOL
REMARK 924 INTRA-LIGAND FREE ENERGY PREDICTED BY IDOCK:   -1.47 KCAL/MOL
REMARK 927      BINDING AFFINITY PREDICTED BY RF-SCORE:    0.00 PKD
ROOT
HETATM    1  C   UNL     1      -9.821   3.647  72.169  1.00  0.00    -0.240 C  
HETATM    2  C   UNL     1      -9.825   5.143  72.486  1.00  0.00    -0.197 C  
HETATM    3  C   UNL     1      -8.490   5.770  72.088  1.00  0.00    -0.122 C  
HETATM    4  C   UNL     1     -11.031   5.864  71.854  1.00  0.00    -0.266 C  
ENDROOT
BRANCH   4   5
HETATM    5  O   UNL     1     -11.026   5.812  70.420  1.00  0.00    -0.298 OA 
BRANCH   5   6
HETATM    6  C   UNL     1     -10.971   7.035  69.797  1.00  0.00    -0.250 A  
HETATM    7  C   UNL     1     -10.615   7.238  68.460  1.00  0.00    -0.207 A  
HETATM    8  C   UNL     1     -10.358   8.537  67.978  1.00  0.00    -0.272 A  
HETATM    9  C   UNL     1     -10.487   9.647  68.820  1.00  0.00    -0.238 A  
HETATM   10  C   UNL     1     -11.015   9.442  70.106  1.00  0.00    -0.282 A  
HETATM   11  C   UNL     1     -11.252   8.148  70.588  1.00  0.00    -0.268 A  
BRANCH   9  12
HETATM   12  C   UNL     1      -9.854  10.978  68.470  1.00  0.00    -0.192 C  
BRANCH  12  13
HETATM   13  N   UNL     1     -10.394  12.139  69.143  1.00  0.00    -0.422 N  
HETATM   14  H   UNL     1     -10.194  12.307  70.129  1.00  0.00     0.000 HD 
BRANCH  13  15
HETATM   15  C   UNL     1     -11.180  13.009  68.429  1.00  0.00    -0.269 C  
HETATM   16  O   UNL     1     -12.161  12.599  67.803  1.00  0.00    -0.362 OA 
BRANCH  15  17
HETATM   17  N   UNL     1     -10.836  14.366  68.477  1.00  0.00    -0.243 N  
BRANCH  17  18
HETATM   18  C   UNL     1     -11.937  15.265  68.925  1.00  0.00    -0.264 C  
BRANCH  18  19
HETATM   19  C   UNL     1     -12.315  15.165  70.406  1.00  0.00    -0.411 A  
HETATM   20  C   UNL     1     -12.921  15.638  73.086  1.00  0.00    -0.535 A  
HETATM   21  C   UNL     1     -13.650  15.183  70.836  1.00  0.00    -0.397 A  
HETATM   22  C   UNL     1     -13.950  15.454  72.172  1.00  0.00    -0.649 A  
HETATM   23  F   UNL     1     -13.210  16.019  74.341  1.00  0.00    -0.363 F  
HETATM   24  C   UNL     1     -11.596  15.473  72.711  1.00  0.00    -0.472 A  
HETATM   25  C   UNL     1     -11.290  15.212  71.374  1.00  0.00    -0.380 A  
ENDBRANCH  18  19
ENDBRANCH  17  18
BRANCH  17  26
HETATM   26  C   UNL     1      -9.571  14.962  67.909  1.00  0.00    -0.205 C  
HETATM   27  C   UNL     1      -9.594  15.324  66.412  1.00  0.00    -0.317 C  
HETATM   28  C   UNL     1      -8.949  16.158  68.696  1.00  0.00    -0.221 C  
HETATM   29  C   UNL     1      -7.967  17.768  66.158  1.00  0.00    -0.202 C  
HETATM   30  C   UNL     1     -10.154  16.714  66.157  1.00  0.00    -0.345 C  
HETATM   31  N   UNL     1      -9.306  17.743  66.749  1.00  0.00    -0.272 NA 
HETATM   32  C   UNL     1      -9.285  17.570  68.200  1.00  0.00    -0.277 C  
ENDBRANCH  17  26
ENDBRANCH  15  17
ENDBRANCH  13  15
ENDBRANCH  12  13
ENDBRANCH   9  12
ENDBRANCH   5   6
ENDBRANCH   4   5
TORSDOF 9
ENDMDL
MODEL       63
REMARK 921   NORMALIZED FREE ENERGY PREDICTED BY IDOCK:   -6.18 KCAL/MOL
REMARK 922        TOTAL FREE ENERGY PREDICTED BY IDOCK:  -10.90 KCAL/MOL
REMARK 923 INTER-LIGAND FREE ENERGY PREDICTED BY IDOCK:   -9.54 KCAL/MOL
REMARK 924 INTRA-LIGAND FREE ENERGY PREDICTED BY IDOCK:   -1.36 KCAL/MOL
REMARK 927      BINDING AFFINITY PREDICTED BY RF-SCORE:    0.00 PKD
ROOT
HETATM    1  C   UNL     1      -8.333  20.061  67.187  1.00  0.00    -0.381 C  
HETATM    2  C   UNL     1      -9.819  19.855  67.484  1.00  0.00    -0.538 C  
HETATM    3  C   UNL     1     -10.534  19.313  66.249  1.00  0.00    -0.567 C  
HETATM    4  C   UNL     1     -10.042  18.979  68.731  1.00  0.00    -0.363 C  
ENDROOT
BRANCH   4   5
HETATM    5  O   UNL     1      -9.530  17.648  68.579  1.00  0.00    -0.281 OA 
BRANCH   5   6
HETATM    6  C   UNL     1     -10.443  16.647  68.807  1.00  0.00    -0.324 A  
HETATM    7  C   UNL     1     -10.999  16.337  70.052  1.00  0.00    -0.356 A  
HETATM    8  C   UNL     1     -11.739  15.152  70.229  1.00  0.00    -0.338 A  
HETATM    9  C   UNL     1     -11.957  14.282  69.155  1.00  0.00    -0.372 A  
HETATM   10  C   UNL     1     -11.545  14.694  67.877  1.00  0.00    -0.373 A  
HETATM   11  C   UNL     1     -10.793  15.864  67.707  1.00  0.00    -0.324 A  
BRANCH   9  12
HETATM   12  C   UNL     1     -12.388  12.847  69.380  1.00  0.00     0.055 C  
BRANCH  12  13
HETATM   13  N   UNL     1     -11.680  12.121  70.411  1.00  0.00    -0.532 N  
HETATM   14  H   UNL     1     -10.985  12.590  70.992  1.00  0.00     0.000 HD 
BRANCH  13  15
HETATM   15  C   UNL     1     -11.960  10.790  70.592  1.00  0.00    -0.367 C  
HETATM   16  O   UNL     1     -13.115  10.371  70.479  1.00  0.00    -0.328 OA 
BRANCH  15  17
HETATM   17  N   UNL     1     -10.881   9.943  70.873  1.00  0.00    -0.321 N  
BRANCH  17  18
HETATM   18  C   UNL     1      -9.706  10.121  69.973  1.00  0.00    -0.093 C  
BRANCH  18  19
HETATM   19  C   UNL     1      -9.985   9.954  68.476  1.00  0.00    -0.175 A  
HETATM   20  C   UNL     1      -9.836   9.676  65.706  1.00  0.00    -0.302 A  
HETATM   21  C   UNL     1     -10.134   8.691  67.884  1.00  0.00    -0.254 A  
HETATM   22  C   UNL     1     -10.024   8.551  66.498  1.00  0.00    -0.350 A  
HETATM   23  F   UNL     1      -9.607   9.528  64.391  1.00  0.00    -0.303 F  
HETATM   24  C   UNL     1      -9.839  10.948  66.259  1.00  0.00    -0.261 A  
HETATM   25  C   UNL     1      -9.938  11.092  67.644  1.00  0.00    -0.196 A  
ENDBRANCH  18  19
ENDBRANCH  17  18
BRANCH  17  26
HETATM   26  C   UNL     1     -10.921   8.768  71.821  1.00  0.00    -0.345 C  
HETATM   27  C   UNL     1     -11.957   7.671  71.511  1.00  0.00    -0.331 C  
HETATM   28  C   UNL     1      -9.556   8.082  72.140  1.00  0.00    -0.277 C  
HETATM   29  C   UNL     1     -10.680   5.129  72.277  1.00  0.00    -0.203 C  
HETATM   30  C   UNL     1     -11.434   6.635  70.530  1.00  0.00    -0.376 C  
HETATM   31  N   UNL     1     -10.306   5.898  71.090  1.00  0.00    -0.212 NA 
HETATM   32  C   UNL     1      -9.202   6.824  71.334  1.00  0.00    -0.153 C  
ENDBRANCH  17  26
ENDBRANCH  15  17
ENDBRANCH  13  15
ENDBRANCH  12  13
ENDBRANCH   9  12
ENDBRANCH   5   6
ENDBRANCH   4   5
TORSDOF 9
ENDMDL
MODEL       64
REMARK 921   NORMALIZED FREE ENERGY PREDICTED BY IDOCK:   -6.17 KCAL/MOL
REMARK 922        TOTAL FREE ENERGY PREDICTED BY IDOCK:  -10.88 KCAL/MOL
REMARK 923 INTER-LIGAND FREE ENERGY PREDICTED BY IDOCK:   -8.46 KCAL/MOL
REMARK 924 INTRA-LIGAND FREE ENERGY PREDICTED BY IDOCK:   -2.42 KCAL/MOL
REMARK 927      BINDING AFFINITY PREDICTED BY RF-SCORE:    0.00 PKD
ROOT
HETATM    1  C   UNL     1     -10.014  20.466  67.022  1.00  0.00    -0.568 C  
HETATM    2  C   UNL     1     -10.497  19.128  67.585  1.00  0.00    -0.535 C  
HETATM    3  C   UNL     1     -10.520  18.070  66.484  1.00  0.00    -0.341 C  
HETATM    4  C   UNL     1      -9.676  18.690  68.813  1.00  0.00    -0.366 C  
ENDROOT
BRANCH   4   5
HETATM    5  O   UNL     1      -8.293  18.461  68.509  1.00  0.00    -0.317 OA 
BRANCH   5   6
HETATM    6  C   UNL     1      -7.934  17.138  68.404  1.00  0.00    -0.250 A  
HETATM    7  C   UNL     1      -6.957  16.639  67.537  1.00  0.00    -0.173 A  
HETATM    8  C   UNL     1      -6.826  15.252  67.331  1.00  0.00    -0.188 A  
HETATM    9  C   UNL     1      -7.649  14.350  68.015  1.00  0.00    -0.139 A  
HETATM   10  C   UNL     1      -8.501  14.857  69.010  1.00  0.00    -0.178 A  
HETATM   11  C   UNL     1      -8.642  16.239  69.200  1.00  0.00    -0.212 A  
BRANCH   9  12
HETATM   12  C   UNL     1      -7.813  12.921  67.542  1.00  0.00    -0.177 C  
BRANCH  12  13
HETATM   13  N   UNL     1      -8.707  12.716  66.423  1.00  0.00    -0.425 N  
HETATM   14  H   UNL     1      -8.985  13.499  65.831  1.00  0.00     0.000 HD 
BRANCH  13  15
HETATM   15  C   UNL     1      -9.174  11.450  66.174  1.00  0.00    -0.210 C  
HETATM   16  O   UNL     1      -8.600  10.717  65.365  1.00  0.00    -0.177 OA 
BRANCH  15  17
HETATM   17  N   UNL     1     -10.295  11.029  66.901  1.00  0.00    -0.225 N  
BRANCH  17  18
HETATM   18  C   UNL     1     -11.465  11.949  66.818  1.00  0.00    -0.316 C  
BRANCH  18  19
HETATM   19  C   UNL     1     -11.566  12.997  67.930  1.00  0.00    -0.385 A  
HETATM   20  C   UNL     1     -12.392  14.889  69.803  1.00  0.00    -0.244 A  
HETATM   21  C   UNL     1     -11.716  12.638  69.278  1.00  0.00    -0.379 A  
HETATM   22  C   UNL     1     -12.162  13.580  70.207  1.00  0.00    -0.417 A  
HETATM   23  F   UNL     1     -12.938  15.761  70.666  1.00  0.00    -0.490 F  
HETATM   24  C   UNL     1     -12.104  15.298  68.509  1.00  0.00    -0.115 A  
HETATM   25  C   UNL     1     -11.667  14.358  67.575  1.00  0.00    -0.416 A  
ENDBRANCH  18  19
ENDBRANCH  17  18
BRANCH  17  26
HETATM   26  C   UNL     1     -10.310   9.892  67.894  1.00  0.00    -0.212 C  
HETATM   27  C   UNL     1     -10.593   8.488  67.327  1.00  0.00    -0.315 C  
HETATM   28  C   UNL     1      -9.090   9.796  68.863  1.00  0.00    -0.148 C  
HETATM   29  C   UNL     1      -8.943   6.637  68.918  1.00  0.00    -0.130 C  
HETATM   30  C   UNL     1      -9.336   7.798  66.823  1.00  0.00    -0.180 C  
HETATM   31  N   UNL     1      -8.397   7.549  67.912  1.00  0.00    -0.123 NA 
HETATM   32  C   UNL     1      -7.965   8.827  68.475  1.00  0.00    -0.112 C  
ENDBRANCH  17  26
ENDBRANCH  15  17
ENDBRANCH  13  15
ENDBRANCH  12  13
ENDBRANCH   9  12
ENDBRANCH   5   6
ENDBRANCH   4   5
TORSDOF 9
ENDMDL
MODEL       65
REMARK 921   NORMALIZED FREE ENERGY PREDICTED BY IDOCK:   -6.17 KCAL/MOL
REMARK 922        TOTAL FREE ENERGY PREDICTED BY IDOCK:  -10.88 KCAL/MOL
REMARK 923 INTER-LIGAND FREE ENERGY PREDICTED BY IDOCK:  -10.08 KCAL/MOL
REMARK 924 INTRA-LIGAND FREE ENERGY PREDICTED BY IDOCK:   -0.79 KCAL/MOL
REMARK 927      BINDING AFFINITY PREDICTED BY RF-SCORE:    0.00 PKD
ROOT
HETATM    1  C   UNL     1     -12.852  16.212  74.352  1.00  0.00    -0.274 C  
HETATM    2  C   UNL     1     -13.001  16.020  72.842  1.00  0.00    -0.555 C  
HETATM    3  C   UNL     1     -11.636  15.768  72.205  1.00  0.00    -0.534 C  
HETATM    4  C   UNL     1     -14.028  14.924  72.498  1.00  0.00    -0.440 C  
ENDROOT
BRANCH   4   5
HETATM    5  O   UNL     1     -13.646  13.628  72.978  1.00  0.00    -0.578 OA 
BRANCH   5   6
HETATM    6  C   UNL     1     -13.242  12.746  72.004  1.00  0.00    -0.436 A  
HETATM    7  C   UNL     1     -13.472  11.367  72.027  1.00  0.00    -0.289 A  
HETATM    8  C   UNL     1     -12.820  10.519  71.111  1.00  0.00    -0.513 A  
HETATM    9  C   UNL     1     -11.958  11.045  70.142  1.00  0.00    -0.443 A  
HETATM   10  C   UNL     1     -11.876  12.443  70.021  1.00  0.00    -0.363 A  
HETATM   11  C   UNL     1     -12.512  13.283  70.945  1.00  0.00    -0.424 A  
BRANCH   9  12
HETATM   12  C   UNL     1     -10.956  10.168  69.420  1.00  0.00    -0.245 C  
BRANCH  12  13
HETATM   13  N   UNL     1      -9.603  10.672  69.344  1.00  0.00    -0.392 N  
HETATM   14  H   UNL     1      -8.981  10.614  70.150  1.00  0.00     0.000 HD 
BRANCH  13  15
HETATM   15  C   UNL     1      -9.172  11.230  68.166  1.00  0.00    -0.170 C  
HETATM   16  O   UNL     1      -8.277  12.080  68.165  1.00  0.00    -0.147 OA 
BRANCH  15  17
HETATM   17  N   UNL     1      -9.766  10.768  66.986  1.00  0.00    -0.173 N  
BRANCH  17  18
HETATM   18  C   UNL     1      -9.010   9.683  66.298  1.00  0.00    -0.155 C  
BRANCH  18  19
HETATM   19  C   UNL     1      -9.215   8.273  66.858  1.00  0.00    -0.197 A  
HETATM   20  C   UNL     1      -9.667   6.028  68.448  1.00  0.00    -0.125 A  
HETATM   21  C   UNL     1     -10.471   7.647  66.857  1.00  0.00    -0.388 A  
HETATM   22  C   UNL     1     -10.703   6.544  67.680  1.00  0.00    -0.381 A  
HETATM   23  F   UNL     1      -9.922   5.047  69.330  1.00  0.00    -0.210 F  
HETATM   24  C   UNL     1      -8.381   6.538  68.347  1.00  0.00    -0.117 A  
HETATM   25  C   UNL     1      -8.146   7.647  67.534  1.00  0.00    -0.120 A  
ENDBRANCH  18  19
ENDBRANCH  17  18
BRANCH  17  26
HETATM   26  C   UNL     1     -10.931  11.425  66.284  1.00  0.00    -0.247 C  
HETATM   27  C   UNL     1     -11.242  12.879  66.684  1.00  0.00    -0.342 C  
HETATM   28  C   UNL     1     -10.952  11.327  64.726  1.00  0.00    -0.262 C  
HETATM   29  C   UNL     1     -12.147  14.210  64.216  1.00  0.00    -0.444 C  
HETATM   30  C   UNL     1     -10.425  13.889  65.895  1.00  0.00    -0.305 C  
HETATM   31  N   UNL     1     -10.754  13.843  64.475  1.00  0.00    -0.405 NA 
HETATM   32  C   UNL     1     -10.403  12.527  63.944  1.00  0.00    -0.409 C  
ENDBRANCH  17  26
ENDBRANCH  15  17
ENDBRANCH  13  15
ENDBRANCH  12  13
ENDBRANCH   9  12
ENDBRANCH   5   6
ENDBRANCH   4   5
TORSDOF 9
ENDMDL
MODEL       66
REMARK 921   NORMALIZED FREE ENERGY PREDICTED BY IDOCK:   -6.14 KCAL/MOL
REMARK 922        TOTAL FREE ENERGY PREDICTED BY IDOCK:  -10.84 KCAL/MOL
REMARK 923 INTER-LIGAND FREE ENERGY PREDICTED BY IDOCK:  -10.03 KCAL/MOL
REMARK 924 INTRA-LIGAND FREE ENERGY PREDICTED BY IDOCK:   -0.81 KCAL/MOL
REMARK 927      BINDING AFFINITY PREDICTED BY RF-SCORE:    0.00 PKD
ROOT
HETATM    1  C   UNL     1     -13.265  15.987  73.563  1.00  0.00    -0.596 C  
HETATM    2  C   UNL     1     -13.117  15.593  72.092  1.00  0.00    -0.540 C  
HETATM    3  C   UNL     1     -11.643  15.401  71.743  1.00  0.00    -0.501 C  
HETATM    4  C   UNL     1     -13.977  14.366  71.734  1.00  0.00    -0.454 C  
ENDROOT
BRANCH   4   5
HETATM    5  O   UNL     1     -13.592  13.185  72.451  1.00  0.00    -0.574 OA 
BRANCH   5   6
HETATM    6  C   UNL     1     -13.029  12.197  71.679  1.00  0.00    -0.321 A  
HETATM    7  C   UNL     1     -13.057  10.832  71.979  1.00  0.00    -0.476 A  
HETATM    8  C   UNL     1     -12.254   9.925  71.259  1.00  0.00    -0.480 A  
HETATM    9  C   UNL     1     -11.440  10.371  70.212  1.00  0.00    -0.406 A  
HETATM   10  C   UNL     1     -11.557  11.713  69.811  1.00  0.00    -0.389 A  
HETATM   11  C   UNL     1     -12.343  12.615  70.540  1.00  0.00    -0.350 A  
BRANCH   9  12
HETATM   12  C   UNL     1     -10.295   9.528  69.691  1.00  0.00    -0.221 C  
BRANCH  12  13
HETATM   13  N   UNL     1      -9.034  10.210  69.501  1.00  0.00    -0.253 N  
HETATM   14  H   UNL     1      -8.356  10.269  70.260  1.00  0.00     0.000 HD 
BRANCH  13  15
HETATM   15  C   UNL     1      -8.768  10.775  68.278  1.00  0.00    -0.136 C  
HETATM   16  O   UNL     1      -8.410  11.953  68.197  1.00  0.00    -0.146 OA 
BRANCH  15  17
HETATM   17  N   UNL     1      -8.889   9.950  67.153  1.00  0.00    -0.138 N  
BRANCH  17  18
HETATM   18  C   UNL     1     -10.254   9.918  66.556  1.00  0.00    -0.222 C  
BRANCH  18  19
HETATM   19  C   UNL     1     -10.645  11.145  65.727  1.00  0.00    -0.289 A  
HETATM   20  C   UNL     1     -11.839  12.981  64.002  1.00  0.00    -0.445 A  
HETATM   21  C   UNL     1     -11.485  12.147  66.234  1.00  0.00    -0.433 A  
HETATM   22  C   UNL     1     -12.108  13.044  65.362  1.00  0.00    -0.490 A  
HETATM   23  F   UNL     1     -12.530  13.759  63.154  1.00  0.00    -0.527 F  
HETATM   24  C   UNL     1     -10.895  12.096  63.501  1.00  0.00    -0.518 A  
HETATM   25  C   UNL     1     -10.278  11.191  64.366  1.00  0.00    -0.390 A  
ENDBRANCH  18  19
ENDBRANCH  17  18
BRANCH  17  26
HETATM   26  C   UNL     1      -7.844   8.967  66.680  1.00  0.00    -0.100 C  
HETATM   27  C   UNL     1      -7.132   8.145  67.770  1.00  0.00    -0.087 C  
HETATM   28  C   UNL     1      -8.267   8.001  65.530  1.00  0.00    -0.138 C  
HETATM   29  C   UNL     1      -6.664   5.487  66.586  1.00  0.00    -0.058 C  
HETATM   30  C   UNL     1      -7.895   6.884  68.143  1.00  0.00    -0.114 C  
HETATM   31  N   UNL     1      -7.980   5.964  67.014  1.00  0.00    -0.102 NA 
HETATM   32  C   UNL     1      -8.736   6.597  65.935  1.00  0.00    -0.137 C  
ENDBRANCH  17  26
ENDBRANCH  15  17
ENDBRANCH  13  15
ENDBRANCH  12  13
ENDBRANCH   9  12
ENDBRANCH   5   6
ENDBRANCH   4   5
TORSDOF 9
ENDMDL
MODEL       67
REMARK 921   NORMALIZED FREE ENERGY PREDICTED BY IDOCK:   -6.14 KCAL/MOL
REMARK 922        TOTAL FREE ENERGY PREDICTED BY IDOCK:  -10.84 KCAL/MOL
REMARK 923 INTER-LIGAND FREE ENERGY PREDICTED BY IDOCK:   -9.31 KCAL/MOL
REMARK 924 INTRA-LIGAND FREE ENERGY PREDICTED BY IDOCK:   -1.53 KCAL/MOL
REMARK 927      BINDING AFFINITY PREDICTED BY RF-SCORE:    0.00 PKD
ROOT
HETATM    1  C   UNL     1     -10.189   4.851  70.222  1.00  0.00    -0.299 C  
HETATM    2  C   UNL     1     -11.150   5.951  69.765  1.00  0.00    -0.422 C  
HETATM    3  C   UNL     1     -11.338   6.982  70.875  1.00  0.00    -0.334 C  
HETATM    4  C   UNL     1     -10.708   6.586  68.433  1.00  0.00    -0.279 C  
ENDROOT
BRANCH   4   5
HETATM    5  O   UNL     1      -9.439   7.248  68.523  1.00  0.00    -0.141 OA 
BRANCH   5   6
HETATM    6  C   UNL     1      -9.349   8.426  67.820  1.00  0.00    -0.134 A  
HETATM    7  C   UNL     1      -8.959   9.655  68.361  1.00  0.00    -0.123 A  
HETATM    8  C   UNL     1      -9.125  10.844  67.625  1.00  0.00    -0.148 A  
HETATM    9  C   UNL     1      -9.651  10.812  66.329  1.00  0.00    -0.234 A  
HETATM   10  C   UNL     1      -9.871   9.557  65.737  1.00  0.00    -0.363 A  
HETATM   11  C   UNL     1      -9.722   8.377  66.477  1.00  0.00    -0.330 A  
BRANCH   9  12
HETATM   12  C   UNL     1     -10.205  12.060  65.673  1.00  0.00    -0.252 C  
BRANCH  12  13
HETATM   13  N   UNL     1     -11.469  12.543  66.183  1.00  0.00    -0.356 N  
HETATM   14  H   UNL     1     -12.280  11.927  66.229  1.00  0.00     0.000 HD 
BRANCH  13  15
HETATM   15  C   UNL     1     -11.556  13.847  66.604  1.00  0.00    -0.374 C  
HETATM   16  O   UNL     1     -12.625  14.459  66.532  1.00  0.00    -0.301 OA 
BRANCH  15  17
HETATM   17  N   UNL     1     -10.398  14.423  67.140  1.00  0.00    -0.261 N  
BRANCH  17  18
HETATM   18  C   UNL     1     -10.126  14.056  68.559  1.00  0.00    -0.236 C  
BRANCH  18  19
HETATM   19  C   UNL     1     -11.160  14.540  69.580  1.00  0.00    -0.264 A  
HETATM   20  C   UNL     1     -12.615  15.167  71.874  1.00  0.00    -0.344 A  
HETATM   21  C   UNL     1     -11.145  15.846  70.091  1.00  0.00    -0.369 A  
HETATM   22  C   UNL     1     -11.848  16.148  71.259  1.00  0.00    -0.458 A  
HETATM   23  F   UNL     1     -13.189  15.423  73.061  1.00  0.00    -0.438 F  
HETATM   24  C   UNL     1     -12.763  13.913  71.300  1.00  0.00    -0.444 A  
HETATM   25  C   UNL     1     -12.055  13.603  70.138  1.00  0.00    -0.431 A  
ENDBRANCH  18  19
ENDBRANCH  17  18
BRANCH  17  26
HETATM   26  C   UNL     1      -9.588  15.517  66.486  1.00  0.00    -0.272 C  
HETATM   27  C   UNL     1     -10.358  16.780  66.058  1.00  0.00    -0.346 C  
HETATM   28  C   UNL     1      -8.286  15.958  67.226  1.00  0.00    -0.211 C  
HETATM   29  C   UNL     1      -8.511  19.031  66.511  1.00  0.00    -0.314 C  
HETATM   30  C   UNL     1     -10.487  17.793  67.184  1.00  0.00    -0.335 C  
HETATM   31  N   UNL     1      -9.182  18.303  67.589  1.00  0.00    -0.265 NA 
HETATM   32  C   UNL     1      -8.380  17.202  68.119  1.00  0.00    -0.226 C  
ENDBRANCH  17  26
ENDBRANCH  15  17
ENDBRANCH  13  15
ENDBRANCH  12  13
ENDBRANCH   9  12
ENDBRANCH   5   6
ENDBRANCH   4   5
TORSDOF 9
ENDMDL
MODEL       68
REMARK 921   NORMALIZED FREE ENERGY PREDICTED BY IDOCK:   -6.13 KCAL/MOL
REMARK 922        TOTAL FREE ENERGY PREDICTED BY IDOCK:  -10.82 KCAL/MOL
REMARK 923 INTER-LIGAND FREE ENERGY PREDICTED BY IDOCK:   -8.08 KCAL/MOL
REMARK 924 INTRA-LIGAND FREE ENERGY PREDICTED BY IDOCK:   -2.74 KCAL/MOL
REMARK 927      BINDING AFFINITY PREDICTED BY RF-SCORE:    0.00 PKD
ROOT
HETATM    1  C   UNL     1     -12.421  12.095  63.336  1.00  0.00    -0.625 C  
HETATM    2  C   UNL     1     -11.072  12.500  63.933  1.00  0.00    -0.476 C  
HETATM    3  C   UNL     1     -11.275  13.158  65.296  1.00  0.00    -0.315 C  
HETATM    4  C   UNL     1     -10.086  11.317  63.986  1.00  0.00    -0.329 C  
ENDROOT
BRANCH   4   5
HETATM    5  O   UNL     1     -10.536  10.250  64.833  1.00  0.00    -0.212 OA 
BRANCH   5   6
HETATM    6  C   UNL     1      -9.575   9.728  65.665  1.00  0.00    -0.263 A  
HETATM    7  C   UNL     1      -8.711   8.680  65.334  1.00  0.00    -0.208 A  
HETATM    8  C   UNL     1      -7.927   8.060  66.326  1.00  0.00    -0.105 A  
HETATM    9  C   UNL     1      -7.976   8.503  67.653  1.00  0.00    -0.107 A  
HETATM   10  C   UNL     1      -8.713   9.666  67.933  1.00  0.00    -0.119 A  
HETATM   11  C   UNL     1      -9.505  10.270  66.948  1.00  0.00    -0.200 A  
BRANCH   9  12
HETATM   12  C   UNL     1      -7.474   7.638  68.790  1.00  0.00    -0.100 C  
BRANCH  12  13
HETATM   13  N   UNL     1      -7.915   8.007  70.117  1.00  0.00    -0.103 N  
HETATM   14  H   UNL     1      -7.984   8.988  70.387  1.00  0.00     0.000 HD 
BRANCH  13  15
HETATM   15  C   UNL     1      -8.240   7.012  71.005  1.00  0.00    -0.117 C  
HETATM   16  O   UNL     1      -7.394   6.189  71.362  1.00  0.00    -0.084 OA 
BRANCH  15  17
HETATM   17  N   UNL     1      -9.549   7.003  71.502  1.00  0.00    -0.159 N  
BRANCH  17  18
HETATM   18  C   UNL     1     -10.326   5.774  71.172  1.00  0.00    -0.227 C  
BRANCH  18  19
HETATM   19  C   UNL     1     -10.454   5.451  69.680  1.00  0.00    -0.361 A  
HETATM   20  C   UNL     1     -10.207   5.310  66.907  1.00  0.00    -0.241 A  
HETATM   21  C   UNL     1      -9.754   4.390  69.087  1.00  0.00    -0.240 A  
HETATM   22  C   UNL     1      -9.604   4.341  67.699  1.00  0.00    -0.215 A  
HETATM   23  F   UNL     1      -9.959   5.333  65.587  1.00  0.00    -0.165 F  
HETATM   24  C   UNL     1     -11.028   6.278  67.465  1.00  0.00    -0.444 A  
HETATM   25  C   UNL     1     -11.173   6.337  68.852  1.00  0.00    -0.387 A  
ENDBRANCH  18  19
ENDBRANCH  17  18
BRANCH  17  26
HETATM   26  C   UNL     1     -10.257   8.190  72.110  1.00  0.00    -0.262 C  
HETATM   27  C   UNL     1     -10.318   9.467  71.251  1.00  0.00    -0.363 C  
HETATM   28  C   UNL     1     -11.676   7.927  72.705  1.00  0.00    -0.398 C  
HETATM   29  C   UNL     1     -12.933  10.695  71.832  1.00  0.00    -0.437 C  
HETATM   30  C   UNL     1     -11.502   9.473  70.299  1.00  0.00    -0.206 C  
HETATM   31  N   UNL     1     -12.766   9.484  71.026  1.00  0.00    -0.277 NA 
HETATM   32  C   UNL     1     -12.879   8.257  71.811  1.00  0.00    -0.338 C  
ENDBRANCH  17  26
ENDBRANCH  15  17
ENDBRANCH  13  15
ENDBRANCH  12  13
ENDBRANCH   9  12
ENDBRANCH   5   6
ENDBRANCH   4   5
TORSDOF 9
ENDMDL
MODEL       69
REMARK 921   NORMALIZED FREE ENERGY PREDICTED BY IDOCK:   -6.13 KCAL/MOL
REMARK 922        TOTAL FREE ENERGY PREDICTED BY IDOCK:  -10.82 KCAL/MOL
REMARK 923 INTER-LIGAND FREE ENERGY PREDICTED BY IDOCK:   -9.04 KCAL/MOL
REMARK 924 INTRA-LIGAND FREE ENERGY PREDICTED BY IDOCK:   -1.77 KCAL/MOL
REMARK 927      BINDING AFFINITY PREDICTED BY RF-SCORE:    0.00 PKD
ROOT
HETATM    1  C   UNL     1     -10.028  20.546  67.289  1.00  0.00    -0.528 C  
HETATM    2  C   UNL     1     -10.411  19.069  67.400  1.00  0.00    -0.539 C  
HETATM    3  C   UNL     1     -10.313  18.394  66.033  1.00  0.00    -0.397 C  
HETATM    4  C   UNL     1      -9.592  18.340  68.482  1.00  0.00    -0.342 C  
ENDROOT
BRANCH   4   5
HETATM    5  O   UNL     1      -8.186  18.314  68.197  1.00  0.00    -0.267 OA 
BRANCH   5   6
HETATM    6  C   UNL     1      -7.597  17.078  68.305  1.00  0.00    -0.213 A  
HETATM    7  C   UNL     1      -6.390  16.710  67.702  1.00  0.00    -0.175 A  
HETATM    8  C   UNL     1      -5.987  15.361  67.673  1.00  0.00    -0.130 A  
HETATM    9  C   UNL     1      -6.772  14.371  68.276  1.00  0.00    -0.114 A  
HETATM   10  C   UNL     1      -7.887  14.779  69.028  1.00  0.00    -0.150 A  
HETATM   11  C   UNL     1      -8.294  16.119  69.039  1.00  0.00    -0.247 A  
BRANCH   9  12
HETATM   12  C   UNL     1      -6.590  12.907  67.934  1.00  0.00    -0.125 C  
BRANCH  12  13
HETATM   13  N   UNL     1      -7.523  12.353  66.977  1.00  0.00    -0.356 N  
HETATM   14  H   UNL     1      -7.603  12.750  66.041  1.00  0.00     0.000 HD 
BRANCH  13  15
HETATM   15  C   UNL     1      -8.299  11.285  67.354  1.00  0.00    -0.137 C  
HETATM   16  O   UNL     1      -7.804  10.162  67.473  1.00  0.00    -0.101 OA 
BRANCH  15  17
HETATM   17  N   UNL     1      -9.649  11.541  67.624  1.00  0.00    -0.169 N  
BRANCH  17  18
HETATM   18  C   UNL     1      -9.936  11.911  69.039  1.00  0.00     0.100 C  
BRANCH  18  19
HETATM   19  C   UNL     1     -10.875  10.966  69.795  1.00  0.00    -0.247 A  
HETATM   20  C   UNL     1     -12.171   9.363  71.671  1.00  0.00    -0.390 A  
HETATM   21  C   UNL     1     -12.034  11.427  70.437  1.00  0.00    -0.465 A  
HETATM   22  C   UNL     1     -12.660  10.634  71.401  1.00  0.00    -0.526 A  
HETATM   23  F   UNL     1     -12.697   8.652  72.682  1.00  0.00    -0.425 F  
HETATM   24  C   UNL     1     -11.120   8.832  70.937  1.00  0.00    -0.320 A  
HETATM   25  C   UNL     1     -10.485   9.623  69.980  1.00  0.00    -0.301 A  
ENDBRANCH  18  19
ENDBRANCH  17  18
BRANCH  17  26
HETATM   26  C   UNL     1     -10.794  11.250  66.683  1.00  0.00    -0.273 C  
HETATM   27  C   UNL     1     -11.737  12.425  66.365  1.00  0.00    -0.453 C  
HETATM   28  C   UNL     1     -10.431  10.533  65.344  1.00  0.00    -0.222 C  
HETATM   29  C   UNL     1     -12.530  12.073  63.549  1.00  0.00    -0.540 C  
HETATM   30  C   UNL     1     -11.237  13.279  65.211  1.00  0.00    -0.295 C  
HETATM   31  N   UNL     1     -11.200  12.519  63.967  1.00  0.00    -0.369 NA 
HETATM   32  C   UNL     1     -10.248  11.419  64.105  1.00  0.00    -0.324 C  
ENDBRANCH  17  26
ENDBRANCH  15  17
ENDBRANCH  13  15
ENDBRANCH  12  13
ENDBRANCH   9  12
ENDBRANCH   5   6
ENDBRANCH   4   5
TORSDOF 9
ENDMDL
MODEL       70
REMARK 921   NORMALIZED FREE ENERGY PREDICTED BY IDOCK:   -6.12 KCAL/MOL
REMARK 922        TOTAL FREE ENERGY PREDICTED BY IDOCK:  -10.81 KCAL/MOL
REMARK 923 INTER-LIGAND FREE ENERGY PREDICTED BY IDOCK:   -9.61 KCAL/MOL
REMARK 924 INTRA-LIGAND FREE ENERGY PREDICTED BY IDOCK:   -1.20 KCAL/MOL
REMARK 927      BINDING AFFINITY PREDICTED BY RF-SCORE:    0.00 PKD
ROOT
HETATM    1  C   UNL     1      -9.853   4.403  67.037  1.00  0.00    -0.227 C  
HETATM    2  C   UNL     1     -10.308   5.440  68.065  1.00  0.00    -0.215 C  
HETATM    3  C   UNL     1      -9.128   5.883  68.927  1.00  0.00    -0.120 C  
HETATM    4  C   UNL     1     -11.037   6.626  67.404  1.00  0.00    -0.320 C  
ENDROOT
BRANCH   4   5
HETATM    5  O   UNL     1     -10.199   7.368  66.507  1.00  0.00    -0.194 OA 
BRANCH   5   6
HETATM    6  C   UNL     1     -10.211   8.729  66.696  1.00  0.00    -0.270 A  
HETATM    7  C   UNL     1     -10.760   9.379  67.806  1.00  0.00    -0.290 A  
HETATM    8  C   UNL     1     -10.936  10.776  67.801  1.00  0.00    -0.354 A  
HETATM    9  C   UNL     1     -10.536  11.541  66.699  1.00  0.00    -0.294 A  
HETATM   10  C   UNL     1      -9.828  10.896  65.671  1.00  0.00    -0.292 A  
HETATM   11  C   UNL     1      -9.671   9.504  65.671  1.00  0.00    -0.361 A  
BRANCH   9  12
HETATM   12  C   UNL     1     -11.055  12.948  66.487  1.00  0.00    -0.286 C  
BRANCH  12  13
HETATM   13  N   UNL     1     -10.099  14.016  66.675  1.00  0.00    -0.270 N  
HETATM   14  H   UNL     1      -9.681  14.487  65.873  1.00  0.00     0.000 HD 
BRANCH  13  15
HETATM   15  C   UNL     1      -9.765  14.385  67.955  1.00  0.00    -0.223 C  
HETATM   16  O   UNL     1      -9.038  13.667  68.645  1.00  0.00    -0.146 OA 
BRANCH  15  17
HETATM   17  N   UNL     1     -10.257  15.614  68.413  1.00  0.00    -0.219 N  
BRANCH  17  18
HETATM   18  C   UNL     1     -11.734  15.654  68.609  1.00  0.00    -0.352 C  
BRANCH  18  19
HETATM   19  C   UNL     1     -12.216  15.521  70.056  1.00  0.00    -0.380 A  
HETATM   20  C   UNL     1     -13.280  15.907  72.604  1.00  0.00    -0.472 A  
HETATM   21  C   UNL     1     -13.488  15.023  70.374  1.00  0.00     0.055 A  
HETATM   22  C   UNL     1     -14.031  15.248  71.641  1.00  0.00    -0.627 A  
HETATM   23  F   UNL     1     -13.846  16.232  73.778  1.00  0.00    -0.403 F  
HETATM   24  C   UNL     1     -11.964  16.272  72.357  1.00  0.00    -0.630 A  
HETATM   25  C   UNL     1     -11.421  16.058  71.090  1.00  0.00    -0.470 A  
ENDBRANCH  18  19
ENDBRANCH  17  18
BRANCH  17  26
HETATM   26  C   UNL     1      -9.461  16.895  68.489  1.00  0.00    -0.266 C  
HETATM   27  C   UNL     1      -8.133  16.925  67.710  1.00  0.00    -0.188 C  
HETATM   28  C   UNL     1     -10.237  18.217  68.195  1.00  0.00    -0.406 C  
HETATM   29  C   UNL     1      -7.867  19.679  66.694  1.00  0.00    -0.287 C  
HETATM   30  C   UNL     1      -8.318  17.334  66.257  1.00  0.00    -0.254 C  
HETATM   31  N   UNL     1      -8.814  18.702  66.152  1.00  0.00    -0.484 NA 
HETATM   32  C   UNL     1     -10.134  18.784  66.772  1.00  0.00    -0.369 C  
ENDBRANCH  17  26
ENDBRANCH  15  17
ENDBRANCH  13  15
ENDBRANCH  12  13
ENDBRANCH   9  12
ENDBRANCH   5   6
ENDBRANCH   4   5
TORSDOF 9
ENDMDL
MODEL       71
REMARK 921   NORMALIZED FREE ENERGY PREDICTED BY IDOCK:   -6.11 KCAL/MOL
REMARK 922        TOTAL FREE ENERGY PREDICTED BY IDOCK:  -10.79 KCAL/MOL
REMARK 923 INTER-LIGAND FREE ENERGY PREDICTED BY IDOCK:   -9.35 KCAL/MOL
REMARK 924 INTRA-LIGAND FREE ENERGY PREDICTED BY IDOCK:   -1.44 KCAL/MOL
REMARK 927      BINDING AFFINITY PREDICTED BY RF-SCORE:    0.00 PKD
ROOT
HETATM    1  C   UNL     1      -8.470  20.104  66.884  1.00  0.00    -0.376 C  
HETATM    2  C   UNL     1      -9.867  19.798  67.426  1.00  0.00    -0.519 C  
HETATM    3  C   UNL     1     -10.818  19.468  66.277  1.00  0.00    -0.430 C  
HETATM    4  C   UNL     1      -9.840  18.702  68.508  1.00  0.00    -0.386 C  
ENDROOT
BRANCH   4   5
HETATM    5  O   UNL     1      -9.374  17.439  68.012  1.00  0.00    -0.262 OA 
BRANCH   5   6
HETATM    6  C   UNL     1     -10.217  16.379  68.248  1.00  0.00    -0.255 A  
HETATM    7  C   UNL     1     -10.764  16.051  69.492  1.00  0.00    -0.298 A  
HETATM    8  C   UNL     1     -11.420  14.819  69.682  1.00  0.00    -0.327 A  
HETATM    9  C   UNL     1     -11.563  13.917  68.620  1.00  0.00    -0.363 A  
HETATM   10  C   UNL     1     -11.165  14.337  67.339  1.00  0.00    -0.330 A  
HETATM   11  C   UNL     1     -10.497  15.555  67.158  1.00  0.00    -0.286 A  
BRANCH   9  12
HETATM   12  C   UNL     1     -11.893  12.460  68.865  1.00  0.00    -0.301 C  
BRANCH  12  13
HETATM   13  N   UNL     1     -11.225  11.832  69.984  1.00  0.00    -0.488 N  
HETATM   14  H   UNL     1     -10.368  12.231  70.367  1.00  0.00     0.000 HD 
BRANCH  13  15
HETATM   15  C   UNL     1     -11.765  10.690  70.519  1.00  0.00    -0.356 C  
HETATM   16  O   UNL     1     -12.986  10.512  70.516  1.00  0.00    -0.345 OA 
BRANCH  15  17
HETATM   17  N   UNL     1     -10.872   9.739  71.028  1.00  0.00    -0.334 N  
BRANCH  17  18
HETATM   18  C   UNL     1      -9.563   9.681  70.319  1.00  0.00    -0.254 C  
BRANCH  18  19
HETATM   19  C   UNL     1      -9.519   8.785  69.077  1.00  0.00    -0.160 A  
HETATM   20  C   UNL     1      -9.761   6.732  67.207  1.00  0.00    -0.140 A  
HETATM   21  C   UNL     1     -10.499   8.854  68.076  1.00  0.00    -0.263 A  
HETATM   22  C   UNL     1     -10.639   7.807  67.162  1.00  0.00    -0.401 A  
HETATM   23  F   UNL     1      -9.973   5.672  66.411  1.00  0.00    -0.164 F  
HETATM   24  C   UNL     1      -8.692   6.720  68.090  1.00  0.00    -0.122 A  
HETATM   25  C   UNL     1      -8.554   7.759  69.012  1.00  0.00    -0.135 A  
ENDBRANCH  18  19
ENDBRANCH  17  18
BRANCH  17  26
HETATM   26  C   UNL     1     -11.221   8.670  72.036  1.00  0.00    -0.364 C  
HETATM   27  C   UNL     1     -12.103   7.512  71.532  1.00  0.00    -0.345 C  
HETATM   28  C   UNL     1     -10.035   8.068  72.853  1.00  0.00    -0.360 C  
HETATM   29  C   UNL     1     -11.150   5.109  72.947  1.00  0.00    -0.295 C  
HETATM   30  C   UNL     1     -11.291   6.396  70.894  1.00  0.00    -0.338 C  
HETATM   31  N   UNL     1     -10.408   5.762  71.866  1.00  0.00    -0.208 NA 
HETATM   32  C   UNL     1      -9.442   6.745  72.350  1.00  0.00    -0.143 C  
ENDBRANCH  17  26
ENDBRANCH  15  17
ENDBRANCH  13  15
ENDBRANCH  12  13
ENDBRANCH   9  12
ENDBRANCH   5   6
ENDBRANCH   4   5
TORSDOF 9
ENDMDL
MODEL       72
REMARK 921   NORMALIZED FREE ENERGY PREDICTED BY IDOCK:   -6.10 KCAL/MOL
REMARK 922        TOTAL FREE ENERGY PREDICTED BY IDOCK:  -10.77 KCAL/MOL
REMARK 923 INTER-LIGAND FREE ENERGY PREDICTED BY IDOCK:   -8.97 KCAL/MOL
REMARK 924 INTRA-LIGAND FREE ENERGY PREDICTED BY IDOCK:   -1.80 KCAL/MOL
REMARK 927      BINDING AFFINITY PREDICTED BY RF-SCORE:    0.00 PKD
ROOT
HETATM    1  C   UNL     1      -9.481   3.873  69.493  1.00  0.00    -0.259 C  
HETATM    2  C   UNL     1      -9.451   3.319  70.919  1.00  0.00    -0.234 C  
HETATM    3  C   UNL     1      -8.009   3.083  71.363  1.00  0.00    -0.055 C  
HETATM    4  C   UNL     1     -10.236   4.211  71.900  1.00  0.00    -0.110 C  
ENDROOT
BRANCH   4   5
HETATM    5  O   UNL     1      -9.681   5.528  72.026  1.00  0.00    -0.157 OA 
BRANCH   5   6
HETATM    6  C   UNL     1     -10.604   6.547  72.025  1.00  0.00    -0.217 A  
HETATM    7  C   UNL     1     -11.952   6.407  71.681  1.00  0.00    -0.347 A  
HETATM    8  C   UNL     1     -12.759   7.544  71.482  1.00  0.00    -0.391 A  
HETATM    9  C   UNL     1     -12.235   8.830  71.656  1.00  0.00    -0.399 A  
HETATM   10  C   UNL     1     -10.933   8.947  72.172  1.00  0.00    -0.349 A  
HETATM   11  C   UNL     1     -10.127   7.816  72.352  1.00  0.00    -0.284 A  
BRANCH   9  12
HETATM   12  C   UNL     1     -12.929  10.047  71.081  1.00  0.00    -0.387 C  
BRANCH  12  13
HETATM   13  N   UNL     1     -12.544  10.428  69.740  1.00  0.00    -0.548 N  
HETATM   14  H   UNL     1     -12.957   9.965  68.930  1.00  0.00     0.000 HD 
BRANCH  13  15
HETATM   15  C   UNL     1     -11.613  11.424  69.578  1.00  0.00    -0.331 C  
HETATM   16  O   UNL     1     -11.809  12.548  70.047  1.00  0.00    -0.331 OA 
BRANCH  15  17
HETATM   17  N   UNL     1     -10.436  11.092  68.895  1.00  0.00    -0.202 N  
BRANCH  17  18
HETATM   18  C   UNL     1      -9.996  12.107  67.896  1.00  0.00    -0.200 C  
BRANCH  18  19
HETATM   19  C   UNL     1     -10.842  12.194  66.622  1.00  0.00    -0.307 A  
HETATM   20  C   UNL     1     -12.038  12.910  64.208  1.00  0.00    -0.419 A  
HETATM   21  C   UNL     1     -10.458  11.564  65.429  1.00  0.00    -0.333 A  
HETATM   22  C   UNL     1     -11.035  11.949  64.218  1.00  0.00    -0.411 A  
HETATM   23  F   UNL     1     -12.505  13.367  63.034  1.00  0.00    -0.559 F  
HETATM   24  C   UNL     1     -12.537  13.433  65.391  1.00  0.00    -0.528 A  
HETATM   25  C   UNL     1     -11.957  13.059  66.604  1.00  0.00    -0.453 A  
ENDBRANCH  18  19
ENDBRANCH  17  18
BRANCH  17  26
HETATM   26  C   UNL     1      -9.758   9.743  68.936  1.00  0.00    -0.171 C  
HETATM   27  C   UNL     1     -10.536   8.565  68.319  1.00  0.00    -0.222 C  
HETATM   28  C   UNL     1      -8.286   9.687  68.420  1.00  0.00    -0.106 C  
HETATM   29  C   UNL     1      -8.503   6.835  67.071  1.00  0.00    -0.114 C  
HETATM   30  C   UNL     1     -10.310   8.437  66.822  1.00  0.00    -0.287 C  
HETATM   31  N   UNL     1      -8.916   8.127  66.522  1.00  0.00    -0.149 NA 
HETATM   32  C   UNL     1      -8.072   9.233  66.970  1.00  0.00    -0.112 C  
ENDBRANCH  17  26
ENDBRANCH  15  17
ENDBRANCH  13  15
ENDBRANCH  12  13
ENDBRANCH   9  12
ENDBRANCH   5   6
ENDBRANCH   4   5
TORSDOF 9
ENDMDL
MODEL       73
REMARK 921   NORMALIZED FREE ENERGY PREDICTED BY IDOCK:   -6.07 KCAL/MOL
REMARK 922        TOTAL FREE ENERGY PREDICTED BY IDOCK:  -10.74 KCAL/MOL
REMARK 923 INTER-LIGAND FREE ENERGY PREDICTED BY IDOCK:   -8.27 KCAL/MOL
REMARK 924 INTRA-LIGAND FREE ENERGY PREDICTED BY IDOCK:   -2.47 KCAL/MOL
REMARK 927      BINDING AFFINITY PREDICTED BY RF-SCORE:    0.00 PKD
ROOT
HETATM    1  C   UNL     1     -13.712  15.447  71.632  1.00  0.00    -0.606 C  
HETATM    2  C   UNL     1     -12.787  14.257  71.889  1.00  0.00    -0.429 C  
HETATM    3  C   UNL     1     -13.608  13.007  72.198  1.00  0.00    -0.618 C  
HETATM    4  C   UNL     1     -11.790  14.042  70.734  1.00  0.00    -0.215 C  
ENDROOT
BRANCH   4   5
HETATM    5  O   UNL     1     -12.433  13.722  69.492  1.00  0.00    -0.271 OA 
BRANCH   5   6
HETATM    6  C   UNL     1     -11.971  12.582  68.878  1.00  0.00    -0.236 A  
HETATM    7  C   UNL     1     -11.717  11.370  69.526  1.00  0.00    -0.417 A  
HETATM    8  C   UNL     1     -11.025  10.337  68.863  1.00  0.00    -0.279 A  
HETATM    9  C   UNL     1     -10.611  10.495  67.536  1.00  0.00    -0.306 A  
HETATM   10  C   UNL     1     -11.028  11.646  66.847  1.00  0.00    -0.342 A  
HETATM   11  C   UNL     1     -11.700  12.679  67.514  1.00  0.00    -0.429 A  
BRANCH   9  12
HETATM   12  C   UNL     1      -9.548   9.600  66.932  1.00  0.00    -0.167 C  
BRANCH  12  13
HETATM   13  N   UNL     1      -9.517   8.235  67.407  1.00  0.00    -0.147 N  
HETATM   14  H   UNL     1     -10.292   7.600  67.217  1.00  0.00     0.000 HD 
BRANCH  13  15
HETATM   15  C   UNL     1      -8.423   7.809  68.119  1.00  0.00    -0.124 C  
HETATM   16  O   UNL     1      -7.448   8.549  68.273  1.00  0.00    -0.092 OA 
BRANCH  15  17
HETATM   17  N   UNL     1      -8.486   6.528  68.681  1.00  0.00    -0.121 N  
BRANCH  17  18
HETATM   18  C   UNL     1      -8.495   6.507  70.171  1.00  0.00    -0.135 C  
BRANCH  18  19
HETATM   19  C   UNL     1      -9.814   6.915  70.833  1.00  0.00    -0.193 A  
HETATM   20  C   UNL     1     -12.208   8.132  71.580  1.00  0.00    -0.308 A  
HETATM   21  C   UNL     1     -11.042   6.351  70.454  1.00  0.00    -0.400 A  
HETATM   22  C   UNL     1     -12.238   6.983  70.802  1.00  0.00    -0.343 A  
HETATM   23  F   UNL     1     -13.347   8.806  71.809  1.00  0.00    -0.313 F  
HETATM   24  C   UNL     1     -11.013   8.618  72.091  1.00  0.00    -0.434 A  
HETATM   25  C   UNL     1      -9.815   7.996  71.739  1.00  0.00    -0.240 A  
ENDBRANCH  18  19
ENDBRANCH  17  18
BRANCH  17  26
HETATM   26  C   UNL     1      -8.315   5.236  67.918  1.00  0.00    -0.098 C  
HETATM   27  C   UNL     1      -9.586   4.393  67.702  1.00  0.00    -0.212 C  
HETATM   28  C   UNL     1      -7.544   5.322  66.564  1.00  0.00    -0.088 C  
HETATM   29  C   UNL     1      -9.289   3.172  65.036  1.00  0.00    -0.148 C  
HETATM   30  C   UNL     1     -10.362   4.815  66.465  1.00  0.00    -0.244 C  
HETATM   31  N   UNL     1      -9.586   4.589  65.251  1.00  0.00    -0.170 NA 
HETATM   32  C   UNL     1      -8.387   5.424  65.286  1.00  0.00    -0.142 C  
ENDBRANCH  17  26
ENDBRANCH  15  17
ENDBRANCH  13  15
ENDBRANCH  12  13
ENDBRANCH   9  12
ENDBRANCH   5   6
ENDBRANCH   4   5
TORSDOF 9
ENDMDL
MODEL       74
REMARK 921   NORMALIZED FREE ENERGY PREDICTED BY IDOCK:   -6.04 KCAL/MOL
REMARK 922        TOTAL FREE ENERGY PREDICTED BY IDOCK:  -10.68 KCAL/MOL
REMARK 923 INTER-LIGAND FREE ENERGY PREDICTED BY IDOCK:   -8.37 KCAL/MOL
REMARK 924 INTRA-LIGAND FREE ENERGY PREDICTED BY IDOCK:   -2.31 KCAL/MOL
REMARK 927      BINDING AFFINITY PREDICTED BY RF-SCORE:    0.00 PKD
ROOT
HETATM    1  C   UNL     1     -12.506  12.081  63.516  1.00  0.00    -0.654 C  
HETATM    2  C   UNL     1     -11.603  13.055  64.274  1.00  0.00    -0.437 C  
HETATM    3  C   UNL     1     -12.357  14.348  64.577  1.00  0.00    -0.440 C  
HETATM    4  C   UNL     1     -10.992  12.414  65.534  1.00  0.00    -0.293 C  
ENDROOT
BRANCH   4   5
HETATM    5  O   UNL     1     -11.980  12.031  66.502  1.00  0.00    -0.616 OA 
BRANCH   5   6
HETATM    6  C   UNL     1     -11.516  11.232  67.519  1.00  0.00    -0.246 A  
HETATM    7  C   UNL     1     -11.844  11.382  68.870  1.00  0.00    -0.413 A  
HETATM    8  C   UNL     1     -11.139  10.671  69.860  1.00  0.00    -0.364 A  
HETATM    9  C   UNL     1     -10.120   9.779  69.506  1.00  0.00    -0.233 A  
HETATM   10  C   UNL     1      -9.924   9.509  68.141  1.00  0.00    -0.191 A  
HETATM   11  C   UNL     1     -10.615  10.231  67.159  1.00  0.00    -0.320 A  
BRANCH   9  12
HETATM   12  C   UNL     1      -9.097   9.311  70.520  1.00  0.00    -0.259 C  
BRANCH  12  13
HETATM   13  N   UNL     1      -7.952   8.603  69.992  1.00  0.00    -0.101 N  
HETATM   14  H   UNL     1      -7.292   9.072  69.371  1.00  0.00     0.000 HD 
BRANCH  13  15
HETATM   15  C   UNL     1      -7.770   7.288  70.342  1.00  0.00    -0.094 C  
HETATM   16  O   UNL     1      -7.028   6.985  71.279  1.00  0.00    -0.060 OA 
BRANCH  15  17
HETATM   17  N   UNL     1      -8.485   6.329  69.613  1.00  0.00    -0.127 N  
BRANCH  17  18
HETATM   18  C   UNL     1      -9.375   5.464  70.439  1.00  0.00    -0.159 C  
BRANCH  18  19
HETATM   19  C   UNL     1     -10.550   6.176  71.116  1.00  0.00    -0.300 A  
HETATM   20  C   UNL     1     -12.355   8.015  72.180  1.00  0.00    -0.315 A  
HETATM   21  C   UNL     1     -11.727   6.493  70.422  1.00  0.00    -0.439 A  
HETATM   22  C   UNL     1     -12.612   7.440  70.942  1.00  0.00    -0.187 A  
HETATM   23  F   UNL     1     -13.138   9.013  72.621  1.00  0.00    -0.460 F  
HETATM   24  C   UNL     1     -11.277   7.602  72.949  1.00  0.00    -0.426 A  
HETATM   25  C   UNL     1     -10.385   6.664  72.429  1.00  0.00    -0.217 A  
ENDBRANCH  18  19
ENDBRANCH  17  18
BRANCH  17  26
HETATM   26  C   UNL     1      -8.244   5.981  68.164  1.00  0.00    -0.113 C  
HETATM   27  C   UNL     1      -7.688   4.574  67.878  1.00  0.00    -0.081 C  
HETATM   28  C   UNL     1      -9.421   6.257  67.176  1.00  0.00    -0.136 C  
HETATM   29  C   UNL     1      -8.938   3.720  65.350  1.00  0.00    -0.134 C  
HETATM   30  C   UNL     1      -8.783   3.526  67.764  1.00  0.00    -0.108 C  
HETATM   31  N   UNL     1      -9.654   3.792  66.625  1.00  0.00    -0.199 NA 
HETATM   32  C   UNL     1     -10.331   5.072  66.827  1.00  0.00    -0.244 C  
ENDBRANCH  17  26
ENDBRANCH  15  17
ENDBRANCH  13  15
ENDBRANCH  12  13
ENDBRANCH   9  12
ENDBRANCH   5   6
ENDBRANCH   4   5
TORSDOF 9
ENDMDL
MODEL       75
REMARK 921   NORMALIZED FREE ENERGY PREDICTED BY IDOCK:   -6.03 KCAL/MOL
REMARK 922        TOTAL FREE ENERGY PREDICTED BY IDOCK:  -10.67 KCAL/MOL
REMARK 923 INTER-LIGAND FREE ENERGY PREDICTED BY IDOCK:   -9.27 KCAL/MOL
REMARK 924 INTRA-LIGAND FREE ENERGY PREDICTED BY IDOCK:   -1.40 KCAL/MOL
REMARK 927      BINDING AFFINITY PREDICTED BY RF-SCORE:    0.00 PKD
ROOT
HETATM    1  C   UNL     1      -7.834   5.051  66.804  1.00  0.00    -0.100 C  
HETATM    2  C   UNL     1      -9.154   4.324  66.544  1.00  0.00    -0.130 C  
HETATM    3  C   UNL     1      -9.137   2.946  67.203  1.00  0.00    -0.194 C  
HETATM    4  C   UNL     1     -10.371   5.169  66.966  1.00  0.00    -0.217 C  
ENDROOT
BRANCH   4   5
HETATM    5  O   UNL     1     -10.398   5.447  68.374  1.00  0.00    -0.179 OA 
BRANCH   5   6
HETATM    6  C   UNL     1     -10.419   6.782  68.700  1.00  0.00    -0.206 A  
HETATM    7  C   UNL     1     -10.475   7.288  70.002  1.00  0.00    -0.234 A  
HETATM    8  C   UNL     1     -10.731   8.655  70.227  1.00  0.00    -0.243 A  
HETATM    9  C   UNL     1     -10.900   9.534  69.151  1.00  0.00    -0.194 A  
HETATM   10  C   UNL     1     -10.666   9.044  67.855  1.00  0.00    -0.200 A  
HETATM   11  C   UNL     1     -10.429   7.681  67.634  1.00  0.00    -0.313 A  
BRANCH   9  12
HETATM   12  C   UNL     1     -11.554  10.888  69.336  1.00  0.00    -0.316 C  
BRANCH  12  13
HETATM   13  N   UNL     1     -10.676  11.977  69.701  1.00  0.00    -0.402 N  
HETATM   14  H   UNL     1     -10.513  12.208  70.681  1.00  0.00     0.000 HD 
BRANCH  13  15
HETATM   15  C   UNL     1     -10.065  12.695  68.702  1.00  0.00    -0.122 C  
HETATM   16  O   UNL     1      -8.940  12.384  68.304  1.00  0.00    -0.190 OA 
BRANCH  15  17
HETATM   17  N   UNL     1     -10.788  13.757  68.146  1.00  0.00    -0.240 N  
BRANCH  17  18
HETATM   18  C   UNL     1     -10.754  15.013  68.948  1.00  0.00    -0.240 C  
BRANCH  18  19
HETATM   19  C   UNL     1     -11.671  15.043  70.175  1.00  0.00    -0.340 A  
HETATM   20  C   UNL     1     -13.398  15.735  72.251  1.00  0.00    -0.430 A  
HETATM   21  C   UNL     1     -13.036  14.734  70.090  1.00  0.00     0.039 A  
HETATM   22  C   UNL     1     -13.904  15.113  71.117  1.00  0.00    -0.495 A  
HETATM   23  F   UNL     1     -14.244  16.209  73.179  1.00  0.00    -0.673 F  
HETATM   24  C   UNL     1     -12.032  15.911  72.419  1.00  0.00    -0.620 A  
HETATM   25  C   UNL     1     -11.162  15.543  71.392  1.00  0.00    -0.410 A  
ENDBRANCH  18  19
ENDBRANCH  17  18
BRANCH  17  26
HETATM   26  C   UNL     1     -11.738  13.645  66.977  1.00  0.00    -0.384 C  
HETATM   27  C   UNL     1     -11.586  14.699  65.866  1.00  0.00    -0.327 C  
HETATM   28  C   UNL     1     -11.859  12.238  66.310  1.00  0.00    -0.387 C  
HETATM   29  C   UNL     1     -12.171  13.291  63.345  1.00  0.00    -0.403 C  
HETATM   30  C   UNL     1     -10.545  14.310  64.830  1.00  0.00    -0.412 C  
HETATM   31  N   UNL     1     -10.939  13.103  64.111  1.00  0.00    -0.397 NA 
HETATM   32  C   UNL     1     -11.017  11.988  65.052  1.00  0.00    -0.306 C  
ENDBRANCH  17  26
ENDBRANCH  15  17
ENDBRANCH  13  15
ENDBRANCH  12  13
ENDBRANCH   9  12
ENDBRANCH   5   6
ENDBRANCH   4   5
TORSDOF 9
ENDMDL
MODEL       76
REMARK 921   NORMALIZED FREE ENERGY PREDICTED BY IDOCK:   -6.00 KCAL/MOL
REMARK 922        TOTAL FREE ENERGY PREDICTED BY IDOCK:  -10.63 KCAL/MOL
REMARK 923 INTER-LIGAND FREE ENERGY PREDICTED BY IDOCK:   -8.77 KCAL/MOL
REMARK 924 INTRA-LIGAND FREE ENERGY PREDICTED BY IDOCK:   -1.86 KCAL/MOL
REMARK 927      BINDING AFFINITY PREDICTED BY RF-SCORE:    0.00 PKD
ROOT
HETATM    1  C   UNL     1     -10.449  19.291  68.321  1.00  0.00    -0.399 C  
HETATM    2  C   UNL     1     -10.257  19.637  66.843  1.00  0.00    -0.560 C  
HETATM    3  C   UNL     1      -8.891  20.285  66.626  1.00  0.00    -0.334 C  
HETATM    4  C   UNL     1     -10.489  18.419  65.930  1.00  0.00    -0.321 C  
ENDROOT
BRANCH   4   5
HETATM    5  O   UNL     1      -9.551  17.358  66.164  1.00  0.00    -0.402 OA 
BRANCH   5   6
HETATM    6  C   UNL     1     -10.074  16.247  66.780  1.00  0.00    -0.278 A  
HETATM    7  C   UNL     1     -11.115  15.464  66.272  1.00  0.00    -0.226 A  
HETATM    8  C   UNL     1     -11.739  14.493  67.079  1.00  0.00    -0.412 A  
HETATM    9  C   UNL     1     -11.308  14.276  68.393  1.00  0.00    -0.309 A  
HETATM   10  C   UNL     1     -10.151  14.945  68.827  1.00  0.00    -0.241 A  
HETATM   11  C   UNL     1      -9.544  15.922  68.028  1.00  0.00    -0.211 A  
BRANCH   9  12
HETATM   12  C   UNL     1     -12.180  13.551  69.397  1.00  0.00    -0.228 C  
BRANCH  12  13
HETATM   13  N   UNL     1     -11.652  12.312  69.925  1.00  0.00    -0.497 N  
HETATM   14  H   UNL     1     -11.395  12.234  70.909  1.00  0.00     0.000 HD 
BRANCH  13  15
HETATM   15  C   UNL     1     -11.504  11.244  69.076  1.00  0.00    -0.302 C  
HETATM   16  O   UNL     1     -12.228  11.125  68.084  1.00  0.00    -0.612 OA 
BRANCH  15  17
HETATM   17  N   UNL     1     -10.484  10.330  69.371  1.00  0.00    -0.221 N  
BRANCH  17  18
HETATM   18  C   UNL     1     -10.549   9.756  70.745  1.00  0.00    -0.301 C  
BRANCH  18  19
HETATM   19  C   UNL     1     -10.463   8.229  70.831  1.00  0.00    -0.230 A  
HETATM   20  C   UNL     1     -10.152   5.501  70.349  1.00  0.00    -0.230 A  
HETATM   21  C   UNL     1      -9.288   7.572  71.225  1.00  0.00    -0.157 A  
HETATM   22  C   UNL     1      -9.123   6.213  70.951  1.00  0.00    -0.155 A  
HETATM   23  F   UNL     1      -9.947   4.228  69.975  1.00  0.00    -0.270 F  
HETATM   24  C   UNL     1     -11.378   6.099  70.092  1.00  0.00    -0.433 A  
HETATM   25  C   UNL     1     -11.544   7.459  70.355  1.00  0.00    -0.210 A  
ENDBRANCH  18  19
ENDBRANCH  17  18
BRANCH  17  26
HETATM   26  C   UNL     1      -9.262  10.087  68.519  1.00  0.00    -0.141 C  
HETATM   27  C   UNL     1      -9.388   9.006  67.430  1.00  0.00    -0.167 C  
HETATM   28  C   UNL     1      -8.590  11.347  67.888  1.00  0.00    -0.140 C  
HETATM   29  C   UNL     1      -7.788   9.975  65.153  1.00  0.00    -0.136 C  
HETATM   30  C   UNL     1      -9.967   9.548  66.133  1.00  0.00    -0.272 C  
HETATM   31  N   UNL     1      -9.083  10.542  65.534  1.00  0.00    -0.177 NA 
HETATM   32  C   UNL     1      -8.962  11.684  66.438  1.00  0.00    -0.198 C  
ENDBRANCH  17  26
ENDBRANCH  15  17
ENDBRANCH  13  15
ENDBRANCH  12  13
ENDBRANCH   9  12
ENDBRANCH   5   6
ENDBRANCH   4   5
TORSDOF 9
ENDMDL
MODEL       77
REMARK 921   NORMALIZED FREE ENERGY PREDICTED BY IDOCK:   -5.98 KCAL/MOL
REMARK 922        TOTAL FREE ENERGY PREDICTED BY IDOCK:  -10.59 KCAL/MOL
REMARK 923 INTER-LIGAND FREE ENERGY PREDICTED BY IDOCK:   -8.82 KCAL/MOL
REMARK 924 INTRA-LIGAND FREE ENERGY PREDICTED BY IDOCK:   -1.77 KCAL/MOL
REMARK 927      BINDING AFFINITY PREDICTED BY RF-SCORE:    0.00 PKD
ROOT
HETATM    1  C   UNL     1      -8.839   3.673  69.366  1.00  0.00    -0.150 C  
HETATM    2  C   UNL     1      -8.117   2.836  68.310  1.00  0.00    -0.071 C  
HETATM    3  C   UNL     1      -8.915   1.571  68.002  1.00  0.00    -0.164 C  
HETATM    4  C   UNL     1      -7.793   3.655  67.047  1.00  0.00    -0.080 C  
ENDROOT
BRANCH   4   5
HETATM    5  O   UNL     1      -8.966   4.131  66.371  1.00  0.00    -0.115 OA 
BRANCH   5   6
HETATM    6  C   UNL     1      -9.364   5.398  66.724  1.00  0.00    -0.134 A  
HETATM    7  C   UNL     1     -10.685   5.784  66.969  1.00  0.00    -0.369 A  
HETATM    8  C   UNL     1     -11.020   7.147  67.091  1.00  0.00    -0.342 A  
HETATM    9  C   UNL     1     -10.032   8.134  67.001  1.00  0.00    -0.329 A  
HETATM   10  C   UNL     1      -8.690   7.721  66.932  1.00  0.00    -0.136 A  
HETATM   11  C   UNL     1      -8.362   6.366  66.793  1.00  0.00    -0.111 A  
BRANCH   9  12
HETATM   12  C   UNL     1     -10.388   9.581  66.732  1.00  0.00    -0.228 C  
BRANCH  12  13
HETATM   13  N   UNL     1     -11.216  10.231  67.724  1.00  0.00    -0.439 N  
HETATM   14  H   UNL     1     -12.170  10.513  67.500  1.00  0.00     0.000 HD 
BRANCH  13  15
HETATM   15  C   UNL     1     -10.693  10.460  68.973  1.00  0.00    -0.228 C  
HETATM   16  O   UNL     1      -9.585  10.985  69.102  1.00  0.00    -0.166 OA 
BRANCH  15  17
HETATM   17  N   UNL     1     -11.486  10.104  70.071  1.00  0.00    -0.270 N  
BRANCH  17  18
HETATM   18  C   UNL     1     -12.782  10.834  70.159  1.00  0.00    -0.167 C  
BRANCH  18  19
HETATM   19  C   UNL     1     -12.734  12.191  70.867  1.00  0.00    -0.280 A  
HETATM   20  C   UNL     1     -13.166  14.793  71.770  1.00  0.00    -0.348 A  
HETATM   21  C   UNL     1     -13.383  12.416  72.090  1.00  0.00    -0.508 A  
HETATM   22  C   UNL     1     -13.627  13.721  72.522  1.00  0.00    -0.680 A  
HETATM   23  F   UNL     1     -13.508  16.043  72.121  1.00  0.00    -0.511 F  
HETATM   24  C   UNL     1     -12.391  14.589  70.637  1.00  0.00    -0.407 A  
HETATM   25  C   UNL     1     -12.152  13.287  70.196  1.00  0.00    -0.403 A  
ENDBRANCH  18  19
ENDBRANCH  17  18
BRANCH  17  26
HETATM   26  C   UNL     1     -11.030   9.252  71.232  1.00  0.00    -0.351 C  
HETATM   27  C   UNL     1     -12.136   8.649  72.117  1.00  0.00    -0.451 C  
HETATM   28  C   UNL     1      -9.990   8.133  70.910  1.00  0.00    -0.214 C  
HETATM   29  C   UNL     1     -11.145   5.997  72.936  1.00  0.00    -0.255 C  
HETATM   30  C   UNL     1     -12.657   7.326  71.579  1.00  0.00    -0.379 C  
HETATM   31  N   UNL     1     -11.614   6.305  71.584  1.00  0.00    -0.305 NA 
HETATM   32  C   UNL     1     -10.537   6.717  70.687  1.00  0.00    -0.227 C  
ENDBRANCH  17  26
ENDBRANCH  15  17
ENDBRANCH  13  15
ENDBRANCH  12  13
ENDBRANCH   9  12
ENDBRANCH   5   6
ENDBRANCH   4   5
TORSDOF 9
ENDMDL
MODEL       78
REMARK 921   NORMALIZED FREE ENERGY PREDICTED BY IDOCK:   -5.97 KCAL/MOL
REMARK 922        TOTAL FREE ENERGY PREDICTED BY IDOCK:  -10.58 KCAL/MOL
REMARK 923 INTER-LIGAND FREE ENERGY PREDICTED BY IDOCK:   -8.68 KCAL/MOL
REMARK 924 INTRA-LIGAND FREE ENERGY PREDICTED BY IDOCK:   -1.90 KCAL/MOL
REMARK 927      BINDING AFFINITY PREDICTED BY RF-SCORE:    0.00 PKD
ROOT
HETATM    1  C   UNL     1     -12.051  14.368  64.873  1.00  0.00    -0.442 C  
HETATM    2  C   UNL     1     -12.505  12.938  65.172  1.00  0.00    -0.561 C  
HETATM    3  C   UNL     1     -12.474  12.097  63.899  1.00  0.00    -0.581 C  
HETATM    4  C   UNL     1     -11.698  12.306  66.322  1.00  0.00    -0.366 C  
ENDROOT
BRANCH   4   5
HETATM    5  O   UNL     1     -10.303  12.171  66.019  1.00  0.00    -0.227 OA 
BRANCH   5   6
HETATM    6  C   UNL     1      -9.747  10.964  66.370  1.00  0.00    -0.201 A  
HETATM    7  C   UNL     1     -10.310   9.714  66.097  1.00  0.00    -0.202 A  
HETATM    8  C   UNL     1      -9.792   8.550  66.700  1.00  0.00    -0.342 A  
HETATM    9  C   UNL     1      -8.687   8.623  67.556  1.00  0.00    -0.135 A  
HETATM   10  C   UNL     1      -8.028   9.858  67.679  1.00  0.00    -0.109 A  
HETATM   11  C   UNL     1      -8.556  11.016  67.093  1.00  0.00    -0.136 A  
BRANCH   9  12
HETATM   12  C   UNL     1      -8.356   7.496  68.511  1.00  0.00    -0.126 C  
BRANCH  12  13
HETATM   13  N   UNL     1      -9.401   6.521  68.736  1.00  0.00    -0.130 N  
HETATM   14  H   UNL     1      -9.444   5.668  68.179  1.00  0.00     0.000 HD 
BRANCH  13  15
HETATM   15  C   UNL     1     -10.333   6.767  69.713  1.00  0.00    -0.201 C  
HETATM   16  O   UNL     1     -11.525   6.517  69.520  1.00  0.00    -0.371 OA 
BRANCH  15  17
HETATM   17  N   UNL     1      -9.862   7.275  70.931  1.00  0.00    -0.184 N  
BRANCH  17  18
HETATM   18  C   UNL     1      -9.604   8.743  70.928  1.00  0.00    -0.221 C  
BRANCH  18  19
HETATM   19  C   UNL     1     -10.847   9.635  70.861  1.00  0.00    -0.409 A  
HETATM   20  C   UNL     1     -12.804  11.587  71.223  1.00  0.00    -0.360 A  
HETATM   21  C   UNL     1     -10.939  10.717  69.973  1.00  0.00    -0.325 A  
HETATM   22  C   UNL     1     -11.899  11.710  70.177  1.00  0.00    -0.428 A  
HETATM   23  F   UNL     1     -13.644  12.600  71.493  1.00  0.00    -0.364 F  
HETATM   24  C   UNL     1     -12.827  10.451  72.018  1.00  0.00    -0.447 A  
HETATM   25  C   UNL     1     -11.863   9.460  71.824  1.00  0.00    -0.452 A  
ENDBRANCH  18  19
ENDBRANCH  17  18
BRANCH  17  26
HETATM   26  C   UNL     1      -9.402   6.439  72.101  1.00  0.00    -0.149 C  
HETATM   27  C   UNL     1     -10.370   6.336  73.294  1.00  0.00    -0.248 C  
HETATM   28  C   UNL     1      -8.871   5.008  71.771  1.00  0.00    -0.144 C  
HETATM   29  C   UNL     1     -10.053   3.601  74.345  1.00  0.00    -0.165 C  
HETATM   30  C   UNL     1     -11.388   5.220  73.125  1.00  0.00    -0.291 C  
HETATM   31  N   UNL     1     -10.740   3.913  73.091  1.00  0.00    -0.181 NA 
HETATM   32  C   UNL     1      -9.860   3.845  71.926  1.00  0.00    -0.178 C  
ENDBRANCH  17  26
ENDBRANCH  15  17
ENDBRANCH  13  15
ENDBRANCH  12  13
ENDBRANCH   9  12
ENDBRANCH   5   6
ENDBRANCH   4   5
TORSDOF 9
ENDMDL
MODEL       79
REMARK 921   NORMALIZED FREE ENERGY PREDICTED BY IDOCK:   -5.95 KCAL/MOL
REMARK 922        TOTAL FREE ENERGY PREDICTED BY IDOCK:  -10.55 KCAL/MOL
REMARK 923 INTER-LIGAND FREE ENERGY PREDICTED BY IDOCK:   -8.69 KCAL/MOL
REMARK 924 INTRA-LIGAND FREE ENERGY PREDICTED BY IDOCK:   -1.86 KCAL/MOL
REMARK 927      BINDING AFFINITY PREDICTED BY RF-SCORE:    0.00 PKD
ROOT
HETATM    1  C   UNL     1     -13.946  13.619  72.289  1.00  0.00    -0.661 C  
HETATM    2  C   UNL     1     -13.421  15.048  72.445  1.00  0.00    -0.533 C  
HETATM    3  C   UNL     1     -12.462  15.131  73.630  1.00  0.00    -0.692 C  
HETATM    4  C   UNL     1     -12.800  15.580  71.140  1.00  0.00    -0.489 C  
ENDROOT
BRANCH   4   5
HETATM    5  O   UNL     1     -11.650  14.831  70.721  1.00  0.00    -0.280 OA 
BRANCH   5   6
HETATM    6  C   UNL     1     -11.710  14.348  69.436  1.00  0.00    -0.317 A  
HETATM    7  C   UNL     1     -11.966  13.017  69.091  1.00  0.00    -0.320 A  
HETATM    8  C   UNL     1     -11.775  12.572  67.768  1.00  0.00    -0.419 A  
HETATM    9  C   UNL     1     -11.356  13.461  66.772  1.00  0.00    -0.353 A  
HETATM   10  C   UNL     1     -11.274  14.826  67.097  1.00  0.00    -0.346 A  
HETATM   11  C   UNL     1     -11.448  15.262  68.417  1.00  0.00    -0.358 A  
BRANCH   9  12
HETATM   12  C   UNL     1     -10.768  12.962  65.468  1.00  0.00    -0.279 C  
BRANCH  12  13
HETATM   13  N   UNL     1      -9.463  12.344  65.551  1.00  0.00    -0.439 N  
HETATM   14  H   UNL     1      -8.637  12.901  65.770  1.00  0.00     0.000 HD 
BRANCH  13  15
HETATM   15  C   UNL     1      -9.357  10.993  65.330  1.00  0.00    -0.216 C  
HETATM   16  O   UNL     1      -9.984  10.457  64.413  1.00  0.00    -0.335 OA 
BRANCH  15  17
HETATM   17  N   UNL     1      -8.488  10.276  66.162  1.00  0.00    -0.137 N  
BRANCH  17  18
HETATM   18  C   UNL     1      -8.798  10.384  67.616  1.00  0.00    -0.124 C  
BRANCH  18  19
HETATM   19  C   UNL     1      -9.772   9.338  68.167  1.00  0.00    -0.169 A  
HETATM   20  C   UNL     1     -10.992   7.102  69.299  1.00  0.00    -0.136 A  
HETATM   21  C   UNL     1     -10.243   9.383  69.487  1.00  0.00    -0.219 A  
HETATM   22  C   UNL     1     -10.823   8.250  70.062  1.00  0.00    -0.232 A  
HETATM   23  F   UNL     1     -11.434   5.978  69.885  1.00  0.00    -0.444 F  
HETATM   24  C   UNL     1     -10.672   7.088  67.949  1.00  0.00    -0.274 A  
HETATM   25  C   UNL     1     -10.084   8.215  67.373  1.00  0.00    -0.298 A  
ENDBRANCH  18  19
ENDBRANCH  17  18
BRANCH  17  26
HETATM   26  C   UNL     1      -7.195   9.634  65.721  1.00  0.00    -0.100 C  
HETATM   27  C   UNL     1      -7.168   8.095  65.689  1.00  0.00    -0.071 C  
HETATM   28  C   UNL     1      -6.569  10.167  64.394  1.00  0.00    -0.116 C  
HETATM   29  C   UNL     1      -5.483   7.374  63.381  1.00  0.00    -0.034 C  
HETATM   30  C   UNL     1      -7.691   7.530  64.378  1.00  0.00    -0.124 C  
HETATM   31  N   UNL     1      -6.837   7.915  63.259  1.00  0.00    -0.078 NA 
HETATM   32  C   UNL     1      -6.860   9.369  63.116  1.00  0.00    -0.099 C  
ENDBRANCH  17  26
ENDBRANCH  15  17
ENDBRANCH  13  15
ENDBRANCH  12  13
ENDBRANCH   9  12
ENDBRANCH   5   6
ENDBRANCH   4   5
TORSDOF 9
ENDMDL
MODEL       80
REMARK 921   NORMALIZED FREE ENERGY PREDICTED BY IDOCK:   -5.94 KCAL/MOL
REMARK 922        TOTAL FREE ENERGY PREDICTED BY IDOCK:  -10.53 KCAL/MOL
REMARK 923 INTER-LIGAND FREE ENERGY PREDICTED BY IDOCK:   -8.28 KCAL/MOL
REMARK 924 INTRA-LIGAND FREE ENERGY PREDICTED BY IDOCK:   -2.26 KCAL/MOL
REMARK 927      BINDING AFFINITY PREDICTED BY RF-SCORE:    0.00 PKD
ROOT
HETATM    1  C   UNL     1     -11.892  10.199  70.325  1.00  0.00    -0.342 C  
HETATM    2  C   UNL     1     -12.104   9.696  71.754  1.00  0.00    -0.446 C  
HETATM    3  C   UNL     1     -13.583   9.404  71.997  1.00  0.00    -0.505 C  
HETATM    4  C   UNL     1     -11.200   8.492  72.082  1.00  0.00    -0.362 C  
ENDROOT
BRANCH   4   5
HETATM    5  O   UNL     1     -11.475   7.346  71.264  1.00  0.00    -0.259 OA 
BRANCH   5   6
HETATM    6  C   UNL     1     -10.620   7.174  70.202  1.00  0.00    -0.230 A  
HETATM    7  C   UNL     1      -9.258   7.489  70.210  1.00  0.00    -0.157 A  
HETATM    8  C   UNL     1      -8.520   7.501  69.011  1.00  0.00    -0.133 A  
HETATM    9  C   UNL     1      -9.129   7.165  67.797  1.00  0.00    -0.127 A  
HETATM   10  C   UNL     1     -10.448   6.680  67.832  1.00  0.00    -0.267 A  
HETATM   11  C   UNL     1     -11.185   6.688  69.024  1.00  0.00    -0.289 A  
BRANCH   9  12
HETATM   12  C   UNL     1      -8.501   7.539  66.471  1.00  0.00    -0.131 C  
BRANCH  12  13
HETATM   13  N   UNL     1      -9.369   8.186  65.512  1.00  0.00    -0.412 N  
HETATM   14  H   UNL     1     -10.157   7.683  65.102  1.00  0.00     0.000 HD 
BRANCH  13  15
HETATM   15  C   UNL     1      -9.114   9.489  65.164  1.00  0.00    -0.228 C  
HETATM   16  O   UNL     1      -8.725   9.771  64.028  1.00  0.00    -0.183 OA 
BRANCH  15  17
HETATM   17  N   UNL     1      -9.347  10.468  66.139  1.00  0.00    -0.170 N  
BRANCH  17  18
HETATM   18  C   UNL     1     -10.784  10.677  66.472  1.00  0.00    -0.151 C  
BRANCH  18  19
HETATM   19  C   UNL     1     -11.461  11.862  65.777  1.00  0.00    -0.326 A  
HETATM   20  C   UNL     1     -12.101  14.300  64.585  1.00  0.00    -0.463 A  
HETATM   21  C   UNL     1     -11.515  11.973  64.380  1.00  0.00    -0.413 A  
HETATM   22  C   UNL     1     -11.802  13.204  63.787  1.00  0.00    -0.546 A  
HETATM   23  F   UNL     1     -12.255  15.508  64.020  1.00  0.00    -0.457 F  
HETATM   24  C   UNL     1     -12.202  14.172  65.963  1.00  0.00    -0.464 A  
HETATM   25  C   UNL     1     -11.906  12.947  66.561  1.00  0.00    -0.473 A  
ENDBRANCH  18  19
ENDBRANCH  17  18
BRANCH  17  26
HETATM   26  C   UNL     1      -8.311  11.431  66.668  1.00  0.00    -0.172 C  
HETATM   27  C   UNL     1      -8.544  11.977  68.089  1.00  0.00    -0.173 C  
HETATM   28  C   UNL     1      -6.820  10.987  66.548  1.00  0.00    -0.132 C  
HETATM   29  C   UNL     1      -5.867  12.239  69.291  1.00  0.00    -0.080 C  
HETATM   30  C   UNL     1      -7.985  11.061  69.165  1.00  0.00    -0.078 C  
HETATM   31  N   UNL     1      -6.533  10.956  69.068  1.00  0.00    -0.052 NA 
HETATM   32  C   UNL     1      -6.181  10.346  67.788  1.00  0.00    -0.056 C  
ENDBRANCH  17  26
ENDBRANCH  15  17
ENDBRANCH  13  15
ENDBRANCH  12  13
ENDBRANCH   9  12
ENDBRANCH   5   6
ENDBRANCH   4   5
TORSDOF 9
ENDMDL
MODEL       81
REMARK 921   NORMALIZED FREE ENERGY PREDICTED BY IDOCK:   -5.93 KCAL/MOL
REMARK 922        TOTAL FREE ENERGY PREDICTED BY IDOCK:  -10.52 KCAL/MOL
REMARK 923 INTER-LIGAND FREE ENERGY PREDICTED BY IDOCK:   -8.40 KCAL/MOL
REMARK 924 INTRA-LIGAND FREE ENERGY PREDICTED BY IDOCK:   -2.12 KCAL/MOL
REMARK 927      BINDING AFFINITY PREDICTED BY RF-SCORE:    0.00 PKD
ROOT
HETATM    1  C   UNL     1     -13.573  15.916  73.174  1.00  0.00    -0.580 C  
HETATM    2  C   UNL     1     -13.128  15.484  71.776  1.00  0.00    -0.548 C  
HETATM    3  C   UNL     1     -11.604  15.480  71.685  1.00  0.00    -0.502 C  
HETATM    4  C   UNL     1     -13.751  14.137  71.363  1.00  0.00    -0.274 C  
ENDROOT
BRANCH   4   5
HETATM    5  O   UNL     1     -13.346  13.051  72.208  1.00  0.00    -0.517 OA 
BRANCH   5   6
HETATM    6  C   UNL     1     -12.950  11.916  71.542  1.00  0.00    -0.323 A  
HETATM    7  C   UNL     1     -13.223  10.608  71.955  1.00  0.00    -0.528 A  
HETATM    8  C   UNL     1     -12.578   9.516  71.341  1.00  0.00    -0.447 A  
HETATM    9  C   UNL     1     -11.678   9.720  70.289  1.00  0.00    -0.253 A  
HETATM   10  C   UNL     1     -11.551  11.021  69.772  1.00  0.00    -0.401 A  
HETATM   11  C   UNL     1     -12.180  12.107  70.395  1.00  0.00    -0.378 A  
BRANCH   9  12
HETATM   12  C   UNL     1     -10.690   8.648  69.880  1.00  0.00    -0.225 C  
BRANCH  12  13
HETATM   13  N   UNL     1     -11.243   7.488  69.217  1.00  0.00    -0.438 N  
HETATM   14  H   UNL     1     -12.041   6.994  69.616  1.00  0.00     0.000 HD 
BRANCH  13  15
HETATM   15  C   UNL     1     -10.672   7.064  68.043  1.00  0.00    -0.194 C  
HETATM   16  O   UNL     1     -11.369   6.591  67.142  1.00  0.00    -0.333 OA 
BRANCH  15  17
HETATM   17  N   UNL     1      -9.288   7.226  67.911  1.00  0.00    -0.130 N  
BRANCH  17  18
HETATM   18  C   UNL     1      -8.876   8.136  66.805  1.00  0.00    -0.138 C  
BRANCH  18  19
HETATM   19  C   UNL     1      -9.275   9.606  66.970  1.00  0.00    -0.167 A  
HETATM   20  C   UNL     1      -9.588  12.368  66.766  1.00  0.00    -0.224 A  
HETATM   21  C   UNL     1     -10.407  10.144  66.341  1.00  0.00    -0.258 A  
HETATM   22  C   UNL     1     -10.543  11.528  66.211  1.00  0.00    -0.309 A  
HETATM   23  F   UNL     1      -9.654  13.689  66.534  1.00  0.00    -0.256 F  
HETATM   24  C   UNL     1      -8.543  11.860  67.523  1.00  0.00    -0.160 A  
HETATM   25  C   UNL     1      -8.397  10.477  67.647  1.00  0.00    -0.114 A  
ENDBRANCH  18  19
ENDBRANCH  17  18
BRANCH  17  26
HETATM   26  C   UNL     1      -8.244   6.400  68.624  1.00  0.00    -0.121 C  
HETATM   27  C   UNL     1      -7.223   7.173  69.479  1.00  0.00    -0.080 C  
HETATM   28  C   UNL     1      -8.764   5.185  69.454  1.00  0.00    -0.112 C  
HETATM   29  C   UNL     1      -6.667   5.453  71.806  1.00  0.00    -0.060 C  
HETATM   30  C   UNL     1      -7.724   7.436  70.890  1.00  0.00    -0.088 C  
HETATM   31  N   UNL     1      -7.918   6.190  71.623  1.00  0.00    -0.102 NA 
HETATM   32  C   UNL     1      -8.954   5.400  70.962  1.00  0.00    -0.139 C  
ENDBRANCH  17  26
ENDBRANCH  15  17
ENDBRANCH  13  15
ENDBRANCH  12  13
ENDBRANCH   9  12
ENDBRANCH   5   6
ENDBRANCH   4   5
TORSDOF 9
ENDMDL
MODEL       82
REMARK 921   NORMALIZED FREE ENERGY PREDICTED BY IDOCK:   -5.93 KCAL/MOL
REMARK 922        TOTAL FREE ENERGY PREDICTED BY IDOCK:  -10.52 KCAL/MOL
REMARK 923 INTER-LIGAND FREE ENERGY PREDICTED BY IDOCK:   -7.84 KCAL/MOL
REMARK 924 INTRA-LIGAND FREE ENERGY PREDICTED BY IDOCK:   -2.67 KCAL/MOL
REMARK 927      BINDING AFFINITY PREDICTED BY RF-SCORE:    0.00 PKD
ROOT
HETATM    1  C   UNL     1      -9.835  19.272  68.088  1.00  0.00    -0.464 C  
HETATM    2  C   UNL     1      -9.911  19.442  66.570  1.00  0.00    -0.471 C  
HETATM    3  C   UNL     1      -8.582  19.965  66.030  1.00  0.00    -0.283 C  
HETATM    4  C   UNL     1     -10.369  18.150  65.868  1.00  0.00    -0.277 C  
ENDROOT
BRANCH   4   5
HETATM    5  O   UNL     1      -9.456  17.059  66.051  1.00  0.00    -0.436 OA 
BRANCH   5   6
HETATM    6  C   UNL     1      -9.953  16.004  66.778  1.00  0.00    -0.258 A  
HETATM    7  C   UNL     1     -10.984  15.157  66.360  1.00  0.00    -0.329 A  
HETATM    8  C   UNL     1     -11.582  14.258  67.265  1.00  0.00    -0.401 A  
HETATM    9  C   UNL     1     -11.134  14.177  68.588  1.00  0.00    -0.283 A  
HETATM   10  C   UNL     1      -9.986  14.905  68.943  1.00  0.00    -0.233 A  
HETATM   11  C   UNL     1      -9.404  15.811  68.045  1.00  0.00    -0.197 A  
BRANCH   9  12
HETATM   12  C   UNL     1     -11.982  13.538  69.668  1.00  0.00    -0.337 C  
BRANCH  12  13
HETATM   13  N   UNL     1     -11.425  12.367  70.309  1.00  0.00    -0.486 N  
HETATM   14  H   UNL     1     -10.948  12.443  71.207  1.00  0.00     0.000 HD 
BRANCH  13  15
HETATM   15  C   UNL     1     -11.551  11.151  69.685  1.00  0.00    -0.326 C  
HETATM   16  O   UNL     1     -12.514  10.919  68.950  1.00  0.00    -0.431 OA 
BRANCH  15  17
HETATM   17  N   UNL     1     -10.529  10.217  69.896  1.00  0.00    -0.266 N  
BRANCH  17  18
HETATM   18  C   UNL     1      -9.588  10.063  68.750  1.00  0.00    -0.168 C  
BRANCH  18  19
HETATM   19  C   UNL     1      -8.701  11.276  68.452  1.00  0.00    -0.159 A  
HETATM   20  C   UNL     1      -6.648  13.021  67.739  1.00  0.00    -0.146 A  
HETATM   21  C   UNL     1      -8.729  11.931  67.212  1.00  0.00    -0.171 A  
HETATM   22  C   UNL     1      -7.682  12.778  66.845  1.00  0.00     0.113 A  
HETATM   23  F   UNL     1      -5.582  13.735  67.340  1.00  0.00    -0.082 F  
HETATM   24  C   UNL     1      -6.679  12.503  69.025  1.00  0.00    -0.098 A  
HETATM   25  C   UNL     1      -7.719  11.648  69.393  1.00  0.00     0.280 A  
ENDBRANCH  18  19
ENDBRANCH  17  18
BRANCH  17  26
HETATM   26  C   UNL     1     -10.465   9.243  71.048  1.00  0.00    -0.314 C  
HETATM   27  C   UNL     1     -11.769   9.031  71.840  1.00  0.00    -0.445 C  
HETATM   28  C   UNL     1      -9.838   7.846  70.747  1.00  0.00    -0.188 C  
HETATM   29  C   UNL     1     -11.778   6.188  72.615  1.00  0.00    -0.151 C  
HETATM   30  C   UNL     1     -12.661   7.967  71.221  1.00  0.00    -0.217 C  
HETATM   31  N   UNL     1     -12.021   6.657  71.250  1.00  0.00    -0.352 NA 
HETATM   32  C   UNL     1     -10.808   6.698  70.436  1.00  0.00    -0.266 C  
ENDBRANCH  17  26
ENDBRANCH  15  17
ENDBRANCH  13  15
ENDBRANCH  12  13
ENDBRANCH   9  12
ENDBRANCH   5   6
ENDBRANCH   4   5
TORSDOF 9
ENDMDL
MODEL       83
REMARK 921   NORMALIZED FREE ENERGY PREDICTED BY IDOCK:   -5.92 KCAL/MOL
REMARK 922        TOTAL FREE ENERGY PREDICTED BY IDOCK:  -10.50 KCAL/MOL
REMARK 923 INTER-LIGAND FREE ENERGY PREDICTED BY IDOCK:   -9.63 KCAL/MOL
REMARK 924 INTRA-LIGAND FREE ENERGY PREDICTED BY IDOCK:   -0.87 KCAL/MOL
REMARK 927      BINDING AFFINITY PREDICTED BY RF-SCORE:    0.00 PKD
ROOT
HETATM    1  C   UNL     1      -6.672   8.659  71.971  1.00  0.00    -0.078 C  
HETATM    2  C   UNL     1      -7.285   7.391  72.568  1.00  0.00    -0.073 C  
HETATM    3  C   UNL     1      -7.192   7.425  74.091  1.00  0.00    -0.117 C  
HETATM    4  C   UNL     1      -8.723   7.155  72.066  1.00  0.00    -0.122 C  
ENDROOT
BRANCH   4   5
HETATM    5  O   UNL     1      -9.629   8.196  72.455  1.00  0.00    -0.219 OA 
BRANCH   5   6
HETATM    6  C   UNL     1     -10.216   8.872  71.413  1.00  0.00    -0.305 A  
HETATM    7  C   UNL     1      -9.591   9.171  70.198  1.00  0.00    -0.235 A  
HETATM    8  C   UNL     1     -10.187  10.067  69.289  1.00  0.00    -0.229 A  
HETATM    9  C   UNL     1     -11.428  10.648  69.572  1.00  0.00    -0.360 A  
HETATM   10  C   UNL     1     -12.121  10.202  70.710  1.00  0.00    -0.438 A  
HETATM   11  C   UNL     1     -11.518   9.324  71.621  1.00  0.00    -0.468 A  
BRANCH   9  12
HETATM   12  C   UNL     1     -11.904  11.884  68.837  1.00  0.00    -0.307 C  
BRANCH  12  13
HETATM   13  N   UNL     1     -11.307  13.137  69.242  1.00  0.00    -0.354 N  
HETATM   14  H   UNL     1     -11.520  13.544  70.153  1.00  0.00     0.000 HD 
BRANCH  13  15
HETATM   15  C   UNL     1     -10.449  13.769  68.377  1.00  0.00    -0.252 C  
HETATM   16  O   UNL     1      -9.298  13.354  68.220  1.00  0.00    -0.209 OA 
BRANCH  15  17
HETATM   17  N   UNL     1     -10.951  14.869  67.670  1.00  0.00    -0.290 N  
BRANCH  17  18
HETATM   18  C   UNL     1     -11.243  16.063  68.512  1.00  0.00    -0.374 C  
BRANCH  18  19
HETATM   19  C   UNL     1     -10.541  17.358  68.095  1.00  0.00    -0.376 A  
HETATM   20  C   UNL     1      -9.868  19.971  67.393  1.00  0.00    -0.422 A  
HETATM   21  C   UNL     1      -9.924  18.204  69.028  1.00  0.00    -0.294 A  
HETATM   22  C   UNL     1      -9.619  19.522  68.683  1.00  0.00    -0.483 A  
HETATM   23  F   UNL     1      -9.691  21.269  67.098  1.00  0.00    -0.550 F  
HETATM   24  C   UNL     1     -10.335  19.106  66.414  1.00  0.00    -0.536 A  
HETATM   25  C   UNL     1     -10.651  17.791  66.756  1.00  0.00    -0.235 A  
ENDBRANCH  18  19
ENDBRANCH  17  18
BRANCH  17  26
HETATM   26  C   UNL     1     -11.410  14.840  66.231  1.00  0.00    -0.334 C  
HETATM   27  C   UNL     1     -10.330  14.556  65.171  1.00  0.00    -0.438 C  
HETATM   28  C   UNL     1     -12.657  13.957  65.915  1.00  0.00    -0.498 C  
HETATM   29  C   UNL     1     -11.663  12.960  63.083  1.00  0.00    -0.143 C  
HETATM   30  C   UNL     1     -10.111  13.069  64.946  1.00  0.00    -0.213 C  
HETATM   31  N   UNL     1     -11.307  12.434  64.401  1.00  0.00    -0.322 NA 
HETATM   32  C   UNL     1     -12.393  12.546  65.372  1.00  0.00    -0.359 C  
ENDBRANCH  17  26
ENDBRANCH  15  17
ENDBRANCH  13  15
ENDBRANCH  12  13
ENDBRANCH   9  12
ENDBRANCH   5   6
ENDBRANCH   4   5
TORSDOF 9
ENDMDL
MODEL       84
REMARK 921   NORMALIZED FREE ENERGY PREDICTED BY IDOCK:   -5.90 KCAL/MOL
REMARK 922        TOTAL FREE ENERGY PREDICTED BY IDOCK:  -10.47 KCAL/MOL
REMARK 923 INTER-LIGAND FREE ENERGY PREDICTED BY IDOCK:   -8.70 KCAL/MOL
REMARK 924 INTRA-LIGAND FREE ENERGY PREDICTED BY IDOCK:   -1.77 KCAL/MOL
REMARK 927      BINDING AFFINITY PREDICTED BY RF-SCORE:    0.00 PKD
ROOT
HETATM    1  C   UNL     1      -8.506   4.614  68.150  1.00  0.00    -0.104 C  
HETATM    2  C   UNL     1      -8.806   5.130  66.742  1.00  0.00    -0.110 C  
HETATM    3  C   UNL     1     -10.180   4.647  66.285  1.00  0.00    -0.306 C  
HETATM    4  C   UNL     1      -8.651   6.660  66.644  1.00  0.00    -0.123 C  
ENDROOT
BRANCH   4   5
HETATM    5  O   UNL     1      -9.575   7.371  67.480  1.00  0.00    -0.134 OA 
BRANCH   5   6
HETATM    6  C   UNL     1      -9.098   8.551  67.997  1.00  0.00    -0.140 A  
HETATM    7  C   UNL     1      -9.889   9.558  68.557  1.00  0.00    -0.172 A  
HETATM    8  C   UNL     1      -9.339  10.823  68.843  1.00  0.00    -0.183 A  
HETATM    9  C   UNL     1      -7.985  11.082  68.600  1.00  0.00    -0.143 A  
HETATM   10  C   UNL     1      -7.168  10.009  68.205  1.00  0.00    -0.081 A  
HETATM   11  C   UNL     1      -7.722   8.757  67.905  1.00  0.00    -0.102 A  
BRANCH   9  12
HETATM   12  C   UNL     1      -7.457  12.499  68.516  1.00  0.00    -0.122 C  
BRANCH  12  13
HETATM   13  N   UNL     1      -8.423  13.554  68.731  1.00  0.00    -0.359 N  
HETATM   14  H   UNL     1      -8.803  13.728  69.661  1.00  0.00     0.000 HD 
BRANCH  13  15
HETATM   15  C   UNL     1      -8.817  14.317  67.660  1.00  0.00    -0.196 C  
HETATM   16  O   UNL     1      -7.984  14.926  66.983  1.00  0.00    -0.207 OA 
BRANCH  15  17
HETATM   17  N   UNL     1     -10.185  14.338  67.361  1.00  0.00    -0.247 N  
BRANCH  17  18
HETATM   18  C   UNL     1     -10.937  15.458  67.994  1.00  0.00    -0.307 C  
BRANCH  18  19
HETATM   19  C   UNL     1     -10.415  16.865  67.689  1.00  0.00    -0.332 A  
HETATM   20  C   UNL     1     -10.106  19.583  67.149  1.00  0.00    -0.400 A  
HETATM   21  C   UNL     1     -10.015  17.746  68.705  1.00  0.00    -0.379 A  
HETATM   22  C   UNL     1      -9.894  19.112  68.438  1.00  0.00    -0.473 A  
HETATM   23  F   UNL     1     -10.112  20.906  66.920  1.00  0.00    -0.552 F  
HETATM   24  C   UNL     1     -10.353  18.708  66.101  1.00  0.00    -0.481 A  
HETATM   25  C   UNL     1     -10.484  17.344  66.364  1.00  0.00    -0.267 A  
ENDBRANCH  18  19
ENDBRANCH  17  18
BRANCH  17  26
HETATM   26  C   UNL     1     -10.941  13.228  66.672  1.00  0.00    -0.283 C  
HETATM   27  C   UNL     1     -12.259  13.622  65.979  1.00  0.00    -0.492 C  
HETATM   28  C   UNL     1     -10.121  12.327  65.696  1.00  0.00    -0.275 C  
HETATM   29  C   UNL     1     -12.428  11.937  63.568  1.00  0.00    -0.492 C  
HETATM   30  C   UNL     1     -12.046  14.119  64.559  1.00  0.00    -0.468 C  
HETATM   31  N   UNL     1     -11.508  13.066  63.705  1.00  0.00    -0.428 NA 
HETATM   32  C   UNL     1     -10.191  12.672  64.202  1.00  0.00    -0.340 C  
ENDBRANCH  17  26
ENDBRANCH  15  17
ENDBRANCH  13  15
ENDBRANCH  12  13
ENDBRANCH   9  12
ENDBRANCH   5   6
ENDBRANCH   4   5
TORSDOF 9
ENDMDL
MODEL       85
REMARK 921   NORMALIZED FREE ENERGY PREDICTED BY IDOCK:   -5.90 KCAL/MOL
REMARK 922        TOTAL FREE ENERGY PREDICTED BY IDOCK:  -10.47 KCAL/MOL
REMARK 923 INTER-LIGAND FREE ENERGY PREDICTED BY IDOCK:   -8.73 KCAL/MOL
REMARK 924 INTRA-LIGAND FREE ENERGY PREDICTED BY IDOCK:   -1.74 KCAL/MOL
REMARK 927      BINDING AFFINITY PREDICTED BY RF-SCORE:    0.00 PKD
ROOT
HETATM    1  C   UNL     1     -14.141  15.299  72.236  1.00  0.00    -0.651 C  
HETATM    2  C   UNL     1     -12.749  14.666  72.289  1.00  0.00    -0.413 C  
HETATM    3  C   UNL     1     -12.757  13.314  71.579  1.00  0.00    -0.376 C  
HETATM    4  C   UNL     1     -11.663  15.615  71.748  1.00  0.00    -0.454 C  
ENDROOT
BRANCH   4   5
HETATM    5  O   UNL     1     -11.845  15.942  70.363  1.00  0.00    -0.346 OA 
BRANCH   5   6
HETATM    6  C   UNL     1     -10.861  15.474  69.525  1.00  0.00    -0.267 A  
HETATM    7  C   UNL     1     -11.083  14.926  68.258  1.00  0.00    -0.290 A  
HETATM    8  C   UNL     1     -10.045  14.261  67.576  1.00  0.00    -0.236 A  
HETATM    9  C   UNL     1      -8.768  14.167  68.140  1.00  0.00    -0.181 A  
HETATM   10  C   UNL     1      -8.517  14.874  69.329  1.00  0.00    -0.116 A  
HETATM   11  C   UNL     1      -9.556  15.518  70.013  1.00  0.00     0.022 A  
BRANCH   9  12
HETATM   12  C   UNL     1      -7.761  13.149  67.645  1.00  0.00    -0.168 C  
BRANCH  12  13
HETATM   13  N   UNL     1      -8.243  12.196  66.669  1.00  0.00    -0.375 N  
HETATM   14  H   UNL     1      -8.507  12.501  65.732  1.00  0.00     0.000 HD 
BRANCH  13  15
HETATM   15  C   UNL     1      -8.340  10.875  67.029  1.00  0.00    -0.132 C  
HETATM   16  O   UNL     1      -7.440  10.334  67.675  1.00  0.00    -0.088 OA 
BRANCH  15  17
HETATM   17  N   UNL     1      -9.509  10.197  66.661  1.00  0.00    -0.165 N  
BRANCH  17  18
HETATM   18  C   UNL     1      -9.815  10.244  65.203  1.00  0.00    -0.321 C  
BRANCH  18  19
HETATM   19  C   UNL     1     -10.825  11.311  64.771  1.00  0.00    -0.314 A  
HETATM   20  C   UNL     1     -12.212  13.668  64.229  1.00  0.00    -0.396 A  
HETATM   21  C   UNL     1     -10.835  11.842  63.473  1.00  0.00    -0.502 A  
HETATM   22  C   UNL     1     -11.503  13.041  63.213  1.00  0.00    -0.142 A  
HETATM   23  F   UNL     1     -12.748  14.880  64.012  1.00  0.00    -0.433 F  
HETATM   24  C   UNL     1     -12.339  13.080  65.479  1.00  0.00    -0.527 A  
HETATM   25  C   UNL     1     -11.665  11.887  65.746  1.00  0.00    -0.210 A  
ENDBRANCH  18  19
ENDBRANCH  17  18
BRANCH  17  26
HETATM   26  C   UNL     1     -10.540   9.657  67.623  1.00  0.00    -0.275 C  
HETATM   27  C   UNL     1     -10.535   8.135  67.852  1.00  0.00    -0.259 C  
HETATM   28  C   UNL     1     -10.637  10.365  69.011  1.00  0.00    -0.247 C  
HETATM   29  C   UNL     1     -11.240   7.753  70.687  1.00  0.00    -0.268 C  
HETATM   30  C   UNL     1      -9.559   7.712  68.938  1.00  0.00    -0.150 C  
HETATM   31  N   UNL     1      -9.942   8.256  70.236  1.00  0.00    -0.184 NA 
HETATM   32  C   UNL     1      -9.885   9.715  70.179  1.00  0.00    -0.262 C  
ENDBRANCH  17  26
ENDBRANCH  15  17
ENDBRANCH  13  15
ENDBRANCH  12  13
ENDBRANCH   9  12
ENDBRANCH   5   6
ENDBRANCH   4   5
TORSDOF 9
ENDMDL
MODEL       86
REMARK 921   NORMALIZED FREE ENERGY PREDICTED BY IDOCK:   -5.90 KCAL/MOL
REMARK 922        TOTAL FREE ENERGY PREDICTED BY IDOCK:  -10.47 KCAL/MOL
REMARK 923 INTER-LIGAND FREE ENERGY PREDICTED BY IDOCK:   -8.83 KCAL/MOL
REMARK 924 INTRA-LIGAND FREE ENERGY PREDICTED BY IDOCK:   -1.63 KCAL/MOL
REMARK 927      BINDING AFFINITY PREDICTED BY RF-SCORE:    0.00 PKD
ROOT
HETATM    1  C   UNL     1     -10.619   5.161  74.033  1.00  0.00    -0.335 C  
HETATM    2  C   UNL     1      -9.802   4.585  72.875  1.00  0.00    -0.185 C  
HETATM    3  C   UNL     1     -10.375   3.237  72.444  1.00  0.00    -0.148 C  
HETATM    4  C   UNL     1      -9.681   5.580  71.705  1.00  0.00    -0.163 C  
ENDROOT
BRANCH   4   5
HETATM    5  O   UNL     1     -10.946   5.904  71.112  1.00  0.00    -0.270 OA 
BRANCH   5   6
HETATM    6  C   UNL     1     -11.384   7.185  71.345  1.00  0.00    -0.259 A  
HETATM    7  C   UNL     1     -12.715   7.548  71.576  1.00  0.00    -0.391 A  
HETATM    8  C   UNL     1     -13.098   8.903  71.569  1.00  0.00    -0.376 A  
HETATM    9  C   UNL     1     -12.148   9.910  71.362  1.00  0.00    -0.501 A  
HETATM   10  C   UNL     1     -10.794   9.539  71.308  1.00  0.00    -0.413 A  
HETATM   11  C   UNL     1     -10.418   8.189  71.298  1.00  0.00    -0.254 A  
BRANCH   9  12
HETATM   12  C   UNL     1     -12.561  11.310  70.958  1.00  0.00    -0.394 C  
BRANCH  12  13
HETATM   13  N   UNL     1     -11.566  12.093  70.259  1.00  0.00    -0.529 N  
HETATM   14  H   UNL     1     -10.880  12.643  70.776  1.00  0.00     0.000 HD 
BRANCH  13  15
HETATM   15  C   UNL     1     -11.563  12.083  68.886  1.00  0.00    -0.321 C  
HETATM   16  O   UNL     1     -12.233  11.255  68.264  1.00  0.00    -0.611 OA 
BRANCH  15  17
HETATM   17  N   UNL     1     -10.801  13.065  68.242  1.00  0.00    -0.237 N  
BRANCH  17  18
HETATM   18  C   UNL     1      -9.342  12.769  68.175  1.00  0.00    -0.214 C  
BRANCH  18  19
HETATM   19  C   UNL     1      -8.958  11.492  67.420  1.00  0.00    -0.156 A  
HETATM   20  C   UNL     1      -8.879   8.991  66.190  1.00  0.00    -0.164 A  
HETATM   21  C   UNL     1      -9.083  11.386  66.027  1.00  0.00    -0.218 A  
HETATM   22  C   UNL     1      -9.077  10.129  65.419  1.00  0.00    -0.227 A  
HETATM   23  F   UNL     1      -8.997   7.779  65.624  1.00  0.00    -0.179 F  
HETATM   24  C   UNL     1      -8.602   9.088  67.546  1.00  0.00    -0.120 A  
HETATM   25  C   UNL     1      -8.617  10.341  68.160  1.00  0.00    -0.119 A  
ENDBRANCH  18  19
ENDBRANCH  17  18
BRANCH  17  26
HETATM   26  C   UNL     1     -11.303  14.434  67.847  1.00  0.00    -0.301 C  
HETATM   27  C   UNL     1     -11.063  15.571  68.858  1.00  0.00    -0.282 C  
HETATM   28  C   UNL     1     -10.898  14.942  66.428  1.00  0.00    -0.325 C  
HETATM   29  C   UNL     1     -10.527  17.976  67.242  1.00  0.00    -0.380 C  
HETATM   30  C   UNL     1      -9.698  16.218  68.696  1.00  0.00    -0.235 C  
HETATM   31  N   UNL     1      -9.575  16.876  67.399  1.00  0.00    -0.239 NA 
HETATM   32  C   UNL     1      -9.681  15.873  66.341  1.00  0.00    -0.287 C  
ENDBRANCH  17  26
ENDBRANCH  15  17
ENDBRANCH  13  15
ENDBRANCH  12  13
ENDBRANCH   9  12
ENDBRANCH   5   6
ENDBRANCH   4   5
TORSDOF 9
ENDMDL
MODEL       87
REMARK 921   NORMALIZED FREE ENERGY PREDICTED BY IDOCK:   -5.87 KCAL/MOL
REMARK 922        TOTAL FREE ENERGY PREDICTED BY IDOCK:  -10.42 KCAL/MOL
REMARK 923 INTER-LIGAND FREE ENERGY PREDICTED BY IDOCK:   -9.43 KCAL/MOL
REMARK 924 INTRA-LIGAND FREE ENERGY PREDICTED BY IDOCK:   -0.99 KCAL/MOL
REMARK 927      BINDING AFFINITY PREDICTED BY RF-SCORE:    0.00 PKD
ROOT
HETATM    1  C   UNL     1      -9.800   7.155  68.223  1.00  0.00    -0.159 C  
HETATM    2  C   UNL     1      -9.697   8.584  68.757  1.00  0.00    -0.168 C  
HETATM    3  C   UNL     1      -8.238   9.032  68.790  1.00  0.00    -0.117 C  
HETATM    4  C   UNL     1     -10.600   9.558  67.976  1.00  0.00    -0.230 C  
ENDROOT
BRANCH   4   5
HETATM    5  O   UNL     1     -10.232   9.676  66.594  1.00  0.00    -0.234 OA 
BRANCH   5   6
HETATM    6  C   UNL     1     -10.587  10.863  66.000  1.00  0.00    -0.189 A  
HETATM    7  C   UNL     1     -10.066  11.343  64.795  1.00  0.00    -0.326 A  
HETATM    8  C   UNL     1     -10.312  12.669  64.387  1.00  0.00    -0.386 A  
HETATM    9  C   UNL     1     -11.109  13.516  65.166  1.00  0.00    -0.326 A  
HETATM   10  C   UNL     1     -11.767  12.966  66.278  1.00  0.00    -0.457 A  
HETATM   11  C   UNL     1     -11.506  11.652  66.690  1.00  0.00    -0.280 A  
BRANCH   9  12
HETATM   12  C   UNL     1     -11.074  15.019  64.981  1.00  0.00    -0.413 C  
BRANCH  12  13
HETATM   13  N   UNL     1     -11.232  15.814  66.179  1.00  0.00    -0.069 N  
HETATM   14  H   UNL     1     -12.070  15.727  66.753  1.00  0.00     0.000 HD 
BRANCH  13  15
HETATM   15  C   UNL     1     -10.233  16.689  66.527  1.00  0.00    -0.310 C  
HETATM   16  O   UNL     1      -9.932  17.626  65.783  1.00  0.00    -0.544 OA 
BRANCH  15  17
HETATM   17  N   UNL     1      -9.608  16.485  67.763  1.00  0.00    -0.230 N  
BRANCH  17  18
HETATM   18  C   UNL     1      -9.929  15.180  68.409  1.00  0.00    -0.222 C  
BRANCH  18  19
HETATM   19  C   UNL     1     -11.027  15.219  69.476  1.00  0.00    -0.280 A  
HETATM   20  C   UNL     1     -12.603  14.911  71.755  1.00  0.00    -0.331 A  
HETATM   21  C   UNL     1     -11.105  16.249  70.425  1.00  0.00    -0.322 A  
HETATM   22  C   UNL     1     -11.868  16.077  71.582  1.00  0.00    -0.582 A  
HETATM   23  F   UNL     1     -13.236  14.695  72.919  1.00  0.00    -0.438 F  
HETATM   24  C   UNL     1     -12.659  13.949  70.758  1.00  0.00    -0.424 A  
HETATM   25  C   UNL     1     -11.890  14.111  69.605  1.00  0.00    -0.379 A  
ENDBRANCH  18  19
ENDBRANCH  17  18
BRANCH  17  26
HETATM   26  C   UNL     1      -8.865  17.541  68.546  1.00  0.00    -0.282 C  
HETATM   27  C   UNL     1      -7.340  17.602  68.340  1.00  0.00    -0.243 C  
HETATM   28  C   UNL     1      -9.432  18.993  68.471  1.00  0.00    -0.436 C  
HETATM   29  C   UNL     1      -6.629  20.458  68.489  1.00  0.00    -0.266 C  
HETATM   30  C   UNL     1      -6.947  18.460  67.148  1.00  0.00    -0.198 C  
HETATM   31  N   UNL     1      -7.325  19.854  67.352  1.00  0.00    -0.247 NA 
HETATM   32  C   UNL     1      -8.780  19.945  67.460  1.00  0.00    -0.338 C  
ENDBRANCH  17  26
ENDBRANCH  15  17
ENDBRANCH  13  15
ENDBRANCH  12  13
ENDBRANCH   9  12
ENDBRANCH   5   6
ENDBRANCH   4   5
TORSDOF 9
ENDMDL
MODEL       88
REMARK 921   NORMALIZED FREE ENERGY PREDICTED BY IDOCK:   -5.86 KCAL/MOL
REMARK 922        TOTAL FREE ENERGY PREDICTED BY IDOCK:  -10.42 KCAL/MOL
REMARK 923 INTER-LIGAND FREE ENERGY PREDICTED BY IDOCK:   -8.89 KCAL/MOL
REMARK 924 INTRA-LIGAND FREE ENERGY PREDICTED BY IDOCK:   -1.53 KCAL/MOL
REMARK 927      BINDING AFFINITY PREDICTED BY RF-SCORE:    0.00 PKD
ROOT
HETATM    1  C   UNL     1      -9.083  15.628  69.066  1.00  0.00    -0.241 C  
HETATM    2  C   UNL     1     -10.446  16.318  69.137  1.00  0.00    -0.280 C  
HETATM    3  C   UNL     1     -10.316  17.787  68.741  1.00  0.00    -0.332 C  
HETATM    4  C   UNL     1     -11.513  15.573  68.311  1.00  0.00    -0.353 C  
ENDROOT
BRANCH   4   5
HETATM    5  O   UNL     1     -11.212  15.539  66.908  1.00  0.00    -0.276 OA 
BRANCH   5   6
HETATM    6  C   UNL     1     -11.179  14.282  66.354  1.00  0.00    -0.337 A  
HETATM    7  C   UNL     1     -11.774  13.146  66.909  1.00  0.00    -0.441 A  
HETATM    8  C   UNL     1     -11.488  11.866  66.395  1.00  0.00    -0.371 A  
HETATM    9  C   UNL     1     -10.629  11.714  65.300  1.00  0.00    -0.333 A  
HETATM   10  C   UNL     1     -10.181  12.874  64.647  1.00  0.00    -0.321 A  
HETATM   11  C   UNL     1     -10.453  14.145  65.171  1.00  0.00    -0.422 A  
BRANCH   9  12
HETATM   12  C   UNL     1      -9.996  10.377  64.977  1.00  0.00    -0.330 C  
BRANCH  12  13
HETATM   13  N   UNL     1     -10.265   9.301  65.906  1.00  0.00    -0.310 N  
HETATM   14  H   UNL     1     -10.980   8.603  65.699  1.00  0.00     0.000 HD 
BRANCH  13  15
HETATM   15  C   UNL     1      -9.541   9.237  67.070  1.00  0.00    -0.171 C  
HETATM   16  O   UNL     1      -8.414   9.733  67.136  1.00  0.00    -0.124 OA 
BRANCH  15  17
HETATM   17  N   UNL     1     -10.153   8.622  68.169  1.00  0.00    -0.189 N  
BRANCH  17  18
HETATM   18  C   UNL     1     -10.818   9.565  69.113  1.00  0.00    -0.173 C  
BRANCH  18  19
HETATM   19  C   UNL     1     -10.775   9.165  70.591  1.00  0.00    -0.313 A  
HETATM   20  C   UNL     1     -10.663   7.828  73.034  1.00  0.00    -0.384 A  
HETATM   21  C   UNL     1      -9.573   9.110  71.311  1.00  0.00    -0.331 A  
HETATM   22  C   UNL     1      -9.513   8.410  72.518  1.00  0.00    -0.360 A  
HETATM   23  F   UNL     1     -10.579   7.052  74.128  1.00  0.00    -0.396 F  
HETATM   24  C   UNL     1     -11.891   8.002  72.414  1.00  0.00    -0.429 A  
HETATM   25  C   UNL     1     -11.955   8.692  71.202  1.00  0.00    -0.320 A  
ENDBRANCH  18  19
ENDBRANCH  17  18
BRANCH  17  26
HETATM   26  C   UNL     1      -9.985   7.172  68.558  1.00  0.00    -0.159 C  
HETATM   27  C   UNL     1     -11.020   6.185  67.988  1.00  0.00    -0.399 C  
HETATM   28  C   UNL     1      -8.562   6.560  68.369  1.00  0.00    -0.119 C  
HETATM   29  C   UNL     1      -9.540   3.691  67.468  1.00  0.00    -0.144 C  
HETATM   30  C   UNL     1     -10.641   5.675  66.607  1.00  0.00    -0.295 C  
HETATM   31  N   UNL     1      -9.407   4.898  66.651  1.00  0.00    -0.132 NA 
HETATM   32  C   UNL     1      -8.311   5.762  67.083  1.00  0.00    -0.104 C  
ENDBRANCH  17  26
ENDBRANCH  15  17
ENDBRANCH  13  15
ENDBRANCH  12  13
ENDBRANCH   9  12
ENDBRANCH   5   6
ENDBRANCH   4   5
TORSDOF 9
ENDMDL
MODEL       89
REMARK 921   NORMALIZED FREE ENERGY PREDICTED BY IDOCK:   -5.84 KCAL/MOL
REMARK 922        TOTAL FREE ENERGY PREDICTED BY IDOCK:  -10.37 KCAL/MOL
REMARK 923 INTER-LIGAND FREE ENERGY PREDICTED BY IDOCK:   -8.61 KCAL/MOL
REMARK 924 INTRA-LIGAND FREE ENERGY PREDICTED BY IDOCK:   -1.77 KCAL/MOL
REMARK 927      BINDING AFFINITY PREDICTED BY RF-SCORE:    0.00 PKD
ROOT
HETATM    1  C   UNL     1     -14.089  14.043  72.125  1.00  0.00    -0.641 C  
HETATM    2  C   UNL     1     -13.258  15.322  72.245  1.00  0.00    -0.493 C  
HETATM    3  C   UNL     1     -12.371  15.260  73.487  1.00  0.00    -0.653 C  
HETATM    4  C   UNL     1     -12.460  15.615  70.960  1.00  0.00    -0.447 C  
ENDROOT
BRANCH   4   5
HETATM    5  O   UNL     1     -11.494  14.599  70.657  1.00  0.00    -0.267 OA 
BRANCH   5   6
HETATM    6  C   UNL     1     -11.702  13.937  69.471  1.00  0.00    -0.313 A  
HETATM    7  C   UNL     1     -11.770  12.548  69.329  1.00  0.00    -0.379 A  
HETATM    8  C   UNL     1     -11.750  11.958  68.050  1.00  0.00    -0.382 A  
HETATM    9  C   UNL     1     -11.693  12.753  66.900  1.00  0.00    -0.447 A  
HETATM   10  C   UNL     1     -11.803  14.146  67.054  1.00  0.00    -0.458 A  
HETATM   11  C   UNL     1     -11.806  14.729  68.328  1.00  0.00    -0.316 A  
BRANCH   9  12
HETATM   12  C   UNL     1     -11.276  12.175  65.564  1.00  0.00    -0.334 C  
BRANCH  12  13
HETATM   13  N   UNL     1      -9.853  12.079  65.325  1.00  0.00    -0.314 N  
HETATM   14  H   UNL     1      -9.270  12.916  65.312  1.00  0.00     0.000 HD 
BRANCH  13  15
HETATM   15  C   UNL     1      -9.301  10.840  65.116  1.00  0.00    -0.217 C  
HETATM   16  O   UNL     1      -9.750  10.092  64.244  1.00  0.00    -0.296 OA 
BRANCH  15  17
HETATM   17  N   UNL     1      -8.199  10.490  65.907  1.00  0.00    -0.148 N  
BRANCH  17  18
HETATM   18  C   UNL     1      -8.073   9.030  66.177  1.00  0.00    -0.111 C  
BRANCH  18  19
HETATM   19  C   UNL     1      -9.223   8.400  66.969  1.00  0.00    -0.186 A  
HETATM   20  C   UNL     1     -10.844   6.843  68.619  1.00  0.00    -0.187 A  
HETATM   21  C   UNL     1      -9.597   8.868  68.237  1.00  0.00    -0.159 A  
HETATM   22  C   UNL     1     -10.381   8.070  69.074  1.00  0.00    -0.228 A  
HETATM   23  F   UNL     1     -11.491   6.025  69.465  1.00  0.00    -0.462 F  
HETATM   24  C   UNL     1     -10.612   6.431  67.315  1.00  0.00    -0.382 A  
HETATM   25  C   UNL     1      -9.821   7.220  66.478  1.00  0.00    -0.202 A  
ENDBRANCH  18  19
ENDBRANCH  17  18
BRANCH  17  26
HETATM   26  C   UNL     1      -7.321  11.465  66.653  1.00  0.00    -0.107 C  
HETATM   27  C   UNL     1      -7.948  12.154  67.879  1.00  0.00    -0.150 C  
HETATM   28  C   UNL     1      -5.896  10.961  67.045  1.00  0.00    -0.064 C  
HETATM   29  C   UNL     1      -5.764  12.442  69.837  1.00  0.00    -0.125 C  
HETATM   30  C   UNL     1      -7.808  11.329  69.148  1.00  0.00    -0.017 C  
HETATM   31  N   UNL     1      -6.407  11.165  69.521  1.00  0.00    -0.087 NA 
HETATM   32  C   UNL     1      -5.714  10.422  68.471  1.00  0.00    -0.037 C  
ENDBRANCH  17  26
ENDBRANCH  15  17
ENDBRANCH  13  15
ENDBRANCH  12  13
ENDBRANCH   9  12
ENDBRANCH   5   6
ENDBRANCH   4   5
TORSDOF 9
ENDMDL
MODEL       90
REMARK 921   NORMALIZED FREE ENERGY PREDICTED BY IDOCK:   -5.83 KCAL/MOL
REMARK 922        TOTAL FREE ENERGY PREDICTED BY IDOCK:  -10.36 KCAL/MOL
REMARK 923 INTER-LIGAND FREE ENERGY PREDICTED BY IDOCK:   -7.87 KCAL/MOL
REMARK 924 INTRA-LIGAND FREE ENERGY PREDICTED BY IDOCK:   -2.49 KCAL/MOL
REMARK 927      BINDING AFFINITY PREDICTED BY RF-SCORE:    0.00 PKD
ROOT
HETATM    1  C   UNL     1      -9.361   3.607  70.399  1.00  0.00    -0.238 C  
HETATM    2  C   UNL     1      -8.231   4.602  70.127  1.00  0.00    -0.068 C  
HETATM    3  C   UNL     1      -7.457   4.193  68.876  1.00  0.00    -0.055 C  
HETATM    4  C   UNL     1      -8.744   6.053  70.059  1.00  0.00    -0.135 C  
ENDROOT
BRANCH   4   5
HETATM    5  O   UNL     1      -9.667   6.271  68.982  1.00  0.00    -0.129 OA 
BRANCH   5   6
HETATM    6  C   UNL     1      -9.263   7.199  68.053  1.00  0.00    -0.130 A  
HETATM    7  C   UNL     1      -7.977   7.741  67.968  1.00  0.00    -0.122 A  
HETATM    8  C   UNL     1      -7.723   8.853  67.141  1.00  0.00    -0.095 A  
HETATM    9  C   UNL     1      -8.746   9.413  66.367  1.00  0.00    -0.149 A  
HETATM   10  C   UNL     1      -9.985   8.749  66.330  1.00  0.00    -0.315 A  
HETATM   11  C   UNL     1     -10.239   7.655  67.167  1.00  0.00    -0.360 A  
BRANCH   9  12
HETATM   12  C   UNL     1      -8.623  10.808  65.791  1.00  0.00    -0.183 C  
BRANCH  12  13
HETATM   13  N   UNL     1      -9.623  11.764  66.212  1.00  0.00    -0.220 N  
HETATM   14  H   UNL     1     -10.338  12.089  65.562  1.00  0.00     0.000 HD 
BRANCH  13  15
HETATM   15  C   UNL     1      -9.591  12.226  67.505  1.00  0.00    -0.184 C  
HETATM   16  O   UNL     1      -8.517  12.353  68.099  1.00  0.00    -0.167 OA 
BRANCH  15  17
HETATM   17  N   UNL     1     -10.815  12.571  68.090  1.00  0.00    -0.213 N  
BRANCH  17  18
HETATM   18  C   UNL     1     -11.722  11.417  68.349  1.00  0.00    -0.303 C  
BRANCH  18  19
HETATM   19  C   UNL     1     -11.576  10.753  69.721  1.00  0.00    -0.393 A  
HETATM   20  C   UNL     1     -11.635   9.048  71.927  1.00  0.00    -0.370 A  
HETATM   21  C   UNL     1     -10.439  10.009  70.070  1.00  0.00    -0.337 A  
HETATM   22  C   UNL     1     -10.484   9.131  71.155  1.00  0.00    -0.385 A  
HETATM   23  F   UNL     1     -11.720   8.117  72.891  1.00  0.00    -0.451 F  
HETATM   24  C   UNL     1     -12.715   9.887  71.690  1.00  0.00    -0.527 A  
HETATM   25  C   UNL     1     -12.679  10.758  70.601  1.00  0.00    -0.417 A  
ENDBRANCH  18  19
ENDBRANCH  17  18
BRANCH  17  26
HETATM   26  C   UNL     1     -11.338  13.979  68.245  1.00  0.00    -0.288 C  
HETATM   27  C   UNL     1     -10.904  14.736  69.515  1.00  0.00    -0.268 C  
HETATM   28  C   UNL     1     -11.158  14.929  67.019  1.00  0.00    -0.338 C  
HETATM   29  C   UNL     1     -10.577  17.548  68.695  1.00  0.00    -0.288 C  
HETATM   30  C   UNL     1      -9.567  15.439  69.347  1.00  0.00    -0.270 C  
HETATM   31  N   UNL     1      -9.642  16.482  68.330  1.00  0.00    -0.226 NA 
HETATM   32  C   UNL     1      -9.948  15.872  67.038  1.00  0.00    -0.247 C  
ENDBRANCH  17  26
ENDBRANCH  15  17
ENDBRANCH  13  15
ENDBRANCH  12  13
ENDBRANCH   9  12
ENDBRANCH   5   6
ENDBRANCH   4   5
TORSDOF 9
ENDMDL
MODEL       91
REMARK 921   NORMALIZED FREE ENERGY PREDICTED BY IDOCK:   -5.82 KCAL/MOL
REMARK 922        TOTAL FREE ENERGY PREDICTED BY IDOCK:  -10.35 KCAL/MOL
REMARK 923 INTER-LIGAND FREE ENERGY PREDICTED BY IDOCK:   -8.41 KCAL/MOL
REMARK 924 INTRA-LIGAND FREE ENERGY PREDICTED BY IDOCK:   -1.94 KCAL/MOL
REMARK 927      BINDING AFFINITY PREDICTED BY RF-SCORE:    0.00 PKD
ROOT
HETATM    1  C   UNL     1     -10.302  17.060  66.195  1.00  0.00    -0.326 C  
HETATM    2  C   UNL     1     -10.152  15.567  65.900  1.00  0.00    -0.374 C  
HETATM    3  C   UNL     1      -8.841  15.042  66.481  1.00  0.00    -0.286 C  
HETATM    4  C   UNL     1     -11.377  14.760  66.374  1.00  0.00    -0.339 C  
ENDROOT
BRANCH   4   5
HETATM    5  O   UNL     1     -11.569  14.817  67.794  1.00  0.00    -0.335 OA 
BRANCH   5   6
HETATM    6  C   UNL     1     -11.796  13.603  68.397  1.00  0.00    -0.372 A  
HETATM    7  C   UNL     1     -12.054  13.420  69.758  1.00  0.00    -0.374 A  
HETATM    8  C   UNL     1     -12.038  12.128  70.321  1.00  0.00    -0.385 A  
HETATM    9  C   UNL     1     -11.795  11.006  69.522  1.00  0.00    -0.404 A  
HETATM   10  C   UNL     1     -11.714  11.191  68.131  1.00  0.00    -0.304 A  
HETATM   11  C   UNL     1     -11.712  12.478  67.577  1.00  0.00    -0.439 A  
BRANCH   9  12
HETATM   12  C   UNL     1     -11.383   9.681  70.129  1.00  0.00    -0.227 C  
BRANCH  12  13
HETATM   13  N   UNL     1     -10.414   9.744  71.201  1.00  0.00    -0.282 N  
HETATM   14  H   UNL     1     -10.587  10.319  72.025  1.00  0.00     0.000 HD 
BRANCH  13  15
HETATM   15  C   UNL     1      -9.255   9.016  71.087  1.00  0.00    -0.256 C  
HETATM   16  O   UNL     1      -8.156   9.570  71.162  1.00  0.00    -0.308 OA 
BRANCH  15  17
HETATM   17  N   UNL     1      -9.386   7.631  70.918  1.00  0.00    -0.157 N  
BRANCH  17  18
HETATM   18  C   UNL     1      -8.539   7.059  69.834  1.00  0.00    -0.141 C  
BRANCH  18  19
HETATM   19  C   UNL     1      -8.821   7.585  68.423  1.00  0.00    -0.126 A  
HETATM   20  C   UNL     1      -9.681   9.001  66.181  1.00  0.00    -0.283 A  
HETATM   21  C   UNL     1      -7.952   8.474  67.773  1.00  0.00    -0.107 A  
HETATM   22  C   UNL     1      -8.398   9.207  66.671  1.00  0.00    -0.122 A  
HETATM   23  F   UNL     1     -10.150   9.791  65.202  1.00  0.00    -0.387 F  
HETATM   24  C   UNL     1     -10.500   8.017  66.716  1.00  0.00    -0.319 A  
HETATM   25  C   UNL     1     -10.063   7.290  67.824  1.00  0.00    -0.225 A  
ENDBRANCH  18  19
ENDBRANCH  17  18
BRANCH  17  26
HETATM   26  C   UNL     1     -10.444   6.773  71.569  1.00  0.00    -0.213 C  
HETATM   27  C   UNL     1     -10.376   5.262  71.280  1.00  0.00    -0.292 C  
HETATM   28  C   UNL     1     -10.658   6.972  73.102  1.00  0.00    -0.350 C  
HETATM   29  C   UNL     1     -11.228   3.934  73.768  1.00  0.00    -0.158 C  
HETATM   30  C   UNL     1      -9.446   4.527  72.231  1.00  0.00    -0.134 C  
HETATM   31  N   UNL     1      -9.932   4.595  73.604  1.00  0.00    -0.148 NA 
HETATM   32  C   UNL     1      -9.945   5.990  74.040  1.00  0.00    -0.237 C  
ENDBRANCH  17  26
ENDBRANCH  15  17
ENDBRANCH  13  15
ENDBRANCH  12  13
ENDBRANCH   9  12
ENDBRANCH   5   6
ENDBRANCH   4   5
TORSDOF 9
ENDMDL
MODEL       92
REMARK 921   NORMALIZED FREE ENERGY PREDICTED BY IDOCK:   -5.80 KCAL/MOL
REMARK 922        TOTAL FREE ENERGY PREDICTED BY IDOCK:  -10.32 KCAL/MOL
REMARK 923 INTER-LIGAND FREE ENERGY PREDICTED BY IDOCK:   -8.55 KCAL/MOL
REMARK 924 INTRA-LIGAND FREE ENERGY PREDICTED BY IDOCK:   -1.77 KCAL/MOL
REMARK 927      BINDING AFFINITY PREDICTED BY RF-SCORE:    0.00 PKD
ROOT
HETATM    1  C   UNL     1     -12.207  14.299  64.501  1.00  0.00    -0.476 C  
HETATM    2  C   UNL     1     -10.944  14.988  65.021  1.00  0.00    -0.436 C  
HETATM    3  C   UNL     1     -11.098  16.505  64.941  1.00  0.00    -0.199 C  
HETATM    4  C   UNL     1     -10.563  14.503  66.433  1.00  0.00    -0.302 C  
ENDROOT
BRANCH   4   5
HETATM    5  O   UNL     1     -11.559  14.812  67.418  1.00  0.00    -0.353 OA 
BRANCH   5   6
HETATM    6  C   UNL     1     -11.891  13.772  68.253  1.00  0.00    -0.378 A  
HETATM    7  C   UNL     1     -12.283  13.909  69.588  1.00  0.00    -0.374 A  
HETATM    8  C   UNL     1     -12.373  12.780  70.425  1.00  0.00    -0.324 A  
HETATM    9  C   UNL     1     -12.103  11.500  69.927  1.00  0.00    -0.389 A  
HETATM   10  C   UNL     1     -11.884  11.362  68.546  1.00  0.00    -0.364 A  
HETATM   11  C   UNL     1     -11.778  12.489  67.719  1.00  0.00    -0.419 A  
BRANCH   9  12
HETATM   12  C   UNL     1     -11.803  10.341  70.855  1.00  0.00    -0.377 C  
BRANCH  12  13
HETATM   13  N   UNL     1     -12.432   9.081  70.526  1.00  0.00    -0.433 N  
HETATM   14  H   UNL     1     -13.157   9.033  69.811  1.00  0.00     0.000 HD 
BRANCH  13  15
HETATM   15  C   UNL     1     -12.034   7.950  71.196  1.00  0.00    -0.285 C  
HETATM   16  O   UNL     1     -12.539   7.654  72.281  1.00  0.00    -0.229 OA 
BRANCH  15  17
HETATM   17  N   UNL     1     -11.066   7.149  70.577  1.00  0.00    -0.262 N  
BRANCH  17  18
HETATM   18  C   UNL     1     -11.573   6.346  69.428  1.00  0.00    -0.168 C  
BRANCH  18  19
HETATM   19  C   UNL     1     -10.832   6.544  68.102  1.00  0.00    -0.370 A  
HETATM   20  C   UNL     1      -8.971   7.027  66.084  1.00  0.00    -0.136 A  
HETATM   21  C   UNL     1     -10.247   5.473  67.411  1.00  0.00    -0.253 A  
HETATM   22  C   UNL     1      -9.289   5.719  66.424  1.00  0.00    -0.168 A  
HETATM   23  F   UNL     1      -7.965   7.261  65.226  1.00  0.00    -0.098 F  
HETATM   24  C   UNL     1      -9.650   8.096  66.649  1.00  0.00    -0.295 A  
HETATM   25  C   UNL     1     -10.600   7.857  67.642  1.00  0.00    -0.276 A  
ENDBRANCH  18  19
ENDBRANCH  17  18
BRANCH  17  26
HETATM   26  C   UNL     1      -9.682   6.884  71.119  1.00  0.00    -0.173 C  
HETATM   27  C   UNL     1      -9.006   8.043  71.874  1.00  0.00    -0.200 C  
HETATM   28  C   UNL     1      -9.498   5.577  71.953  1.00  0.00    -0.171 C  
HETATM   29  C   UNL     1      -7.448   6.786  74.036  1.00  0.00    -0.092 C  
HETATM   30  C   UNL     1      -9.383   8.079  73.346  1.00  0.00    -0.254 C  
HETATM   31  N   UNL     1      -8.908   6.888  74.043  1.00  0.00    -0.157 NA 
HETATM   32  C   UNL     1      -9.565   5.710  73.481  1.00  0.00    -0.140 C  
ENDBRANCH  17  26
ENDBRANCH  15  17
ENDBRANCH  13  15
ENDBRANCH  12  13
ENDBRANCH   9  12
ENDBRANCH   5   6
ENDBRANCH   4   5
TORSDOF 9
ENDMDL
MODEL       93
REMARK 921   NORMALIZED FREE ENERGY PREDICTED BY IDOCK:   -5.79 KCAL/MOL
REMARK 922        TOTAL FREE ENERGY PREDICTED BY IDOCK:  -10.31 KCAL/MOL
REMARK 923 INTER-LIGAND FREE ENERGY PREDICTED BY IDOCK:   -8.90 KCAL/MOL
REMARK 924 INTRA-LIGAND FREE ENERGY PREDICTED BY IDOCK:   -1.41 KCAL/MOL
REMARK 927      BINDING AFFINITY PREDICTED BY RF-SCORE:    0.00 PKD
ROOT
HETATM    1  C   UNL     1      -5.927  18.393  68.883  1.00  0.00    -0.212 C  
HETATM    2  C   UNL     1      -6.824  19.628  68.967  1.00  0.00    -0.378 C  
HETATM    3  C   UNL     1      -6.285  20.736  68.065  1.00  0.00    -0.373 C  
HETATM    4  C   UNL     1      -8.299  19.291  68.675  1.00  0.00    -0.372 C  
ENDROOT
BRANCH   4   5
HETATM    5  O   UNL     1      -8.508  18.799  67.344  1.00  0.00    -0.268 OA 
BRANCH   5   6
HETATM    6  C   UNL     1      -9.368  17.731  67.250  1.00  0.00    -0.254 A  
HETATM    7  C   UNL     1     -10.483  17.526  68.068  1.00  0.00    -0.387 A  
HETATM    8  C   UNL     1     -11.163  16.292  68.053  1.00  0.00    -0.260 A  
HETATM    9  C   UNL     1     -10.754  15.264  67.196  1.00  0.00    -0.316 A  
HETATM   10  C   UNL     1      -9.746  15.548  66.258  1.00  0.00    -0.328 A  
HETATM   11  C   UNL     1      -9.061  16.770  66.288  1.00  0.00    -0.320 A  
BRANCH   9  12
HETATM   12  C   UNL     1     -11.186  13.831  67.424  1.00  0.00    -0.310 C  
BRANCH  12  13
HETATM   13  N   UNL     1     -10.550  13.138  68.523  1.00  0.00    -0.256 N  
HETATM   14  H   UNL     1     -10.879  13.270  69.480  1.00  0.00     0.000 HD 
BRANCH  13  15
HETATM   15  C   UNL     1      -9.495  12.302  68.254  1.00  0.00    -0.209 C  
HETATM   16  O   UNL     1      -8.376  12.762  68.013  1.00  0.00    -0.153 OA 
BRANCH  15  17
HETATM   17  N   UNL     1      -9.744  10.925  68.302  1.00  0.00    -0.159 N  
BRANCH  17  18
HETATM   18  C   UNL     1      -9.706  10.338  69.671  1.00  0.00    -0.185 C  
BRANCH  18  19
HETATM   19  C   UNL     1     -11.068  10.018  70.295  1.00  0.00    -0.381 A  
HETATM   20  C   UNL     1     -13.197   9.413  71.989  1.00  0.00    -0.449 A  
HETATM   21  C   UNL     1     -11.955  11.025  70.701  1.00  0.00    -0.464 A  
HETATM   22  C   UNL     1     -13.000  10.724  71.577  1.00  0.00    -0.562 A  
HETATM   23  F   UNL     1     -14.122   9.146  72.925  1.00  0.00    -0.456 F  
HETATM   24  C   UNL     1     -12.424   8.381  71.479  1.00  0.00    -0.342 A  
HETATM   25  C   UNL     1     -11.372   8.677  70.612  1.00  0.00    -0.277 A  
ENDBRANCH  18  19
ENDBRANCH  17  18
BRANCH  17  26
HETATM   26  C   UNL     1      -9.809  10.011  67.101  1.00  0.00    -0.185 C  
HETATM   27  C   UNL     1     -10.509  10.572  65.849  1.00  0.00    -0.224 C  
HETATM   28  C   UNL     1      -8.469   9.343  66.660  1.00  0.00    -0.130 C  
HETATM   29  C   UNL     1      -9.024   9.481  63.549  1.00  0.00    -0.173 C  
HETATM   30  C   UNL     1      -9.569  11.376  64.966  1.00  0.00    -0.221 C  
HETATM   31  N   UNL     1      -8.507  10.536  64.422  1.00  0.00    -0.160 NA 
HETATM   32  C   UNL     1      -7.694  10.020  65.521  1.00  0.00    -0.135 C  
ENDBRANCH  17  26
ENDBRANCH  15  17
ENDBRANCH  13  15
ENDBRANCH  12  13
ENDBRANCH   9  12
ENDBRANCH   5   6
ENDBRANCH   4   5
TORSDOF 9
ENDMDL
MODEL       94
REMARK 921   NORMALIZED FREE ENERGY PREDICTED BY IDOCK:   -5.79 KCAL/MOL
REMARK 922        TOTAL FREE ENERGY PREDICTED BY IDOCK:  -10.31 KCAL/MOL
REMARK 923 INTER-LIGAND FREE ENERGY PREDICTED BY IDOCK:   -9.04 KCAL/MOL
REMARK 924 INTRA-LIGAND FREE ENERGY PREDICTED BY IDOCK:   -1.27 KCAL/MOL
REMARK 927      BINDING AFFINITY PREDICTED BY RF-SCORE:    0.00 PKD
ROOT
HETATM    1  C   UNL     1      -8.694  20.242  67.081  1.00  0.00    -0.429 C  
HETATM    2  C   UNL     1     -10.136  19.737  67.169  1.00  0.00    -0.553 C  
HETATM    3  C   UNL     1     -10.756  19.668  65.775  1.00  0.00    -0.493 C  
HETATM    4  C   UNL     1     -10.233  18.401  67.929  1.00  0.00    -0.381 C  
ENDROOT
BRANCH   4   5
HETATM    5  O   UNL     1      -9.529  17.333  67.279  1.00  0.00    -0.243 OA 
BRANCH   5   6
HETATM    6  C   UNL     1     -10.254  16.177  67.115  1.00  0.00    -0.281 A  
HETATM    7  C   UNL     1     -11.261  15.734  67.977  1.00  0.00    -0.338 A  
HETATM    8  C   UNL     1     -11.780  14.430  67.859  1.00  0.00    -0.388 A  
HETATM    9  C   UNL     1     -11.319  13.568  66.857  1.00  0.00    -0.350 A  
HETATM   10  C   UNL     1     -10.438  14.088  65.893  1.00  0.00    -0.314 A  
HETATM   11  C   UNL     1      -9.911  15.379  66.024  1.00  0.00    -0.355 A  
BRANCH   9  12
HETATM   12  C   UNL     1     -11.548  12.073  66.938  1.00  0.00    -0.318 C  
BRANCH  12  13
HETATM   13  N   UNL     1     -11.547  11.498  68.265  1.00  0.00    -0.301 N  
HETATM   14  H   UNL     1     -12.383  11.538  68.849  1.00  0.00     0.000 HD 
BRANCH  13  15
HETATM   15  C   UNL     1     -10.401  10.897  68.724  1.00  0.00    -0.198 C  
HETATM   16  O   UNL     1      -9.296  11.394  68.492  1.00  0.00    -0.182 OA 
BRANCH  15  17
HETATM   17  N   UNL     1     -10.552   9.730  69.483  1.00  0.00    -0.220 N  
BRANCH  17  18
HETATM   18  C   UNL     1     -10.748   9.965  70.942  1.00  0.00    -0.235 C  
BRANCH  18  19
HETATM   19  C   UNL     1     -11.160   8.739  71.762  1.00  0.00    -0.417 A  
HETATM   20  C   UNL     1     -11.665   6.177  72.740  1.00  0.00    -0.070 A  
HETATM   21  C   UNL     1     -10.316   8.172  72.729  1.00  0.00    -0.384 A  
HETATM   22  C   UNL     1     -10.553   6.876  73.190  1.00  0.00    -0.330 A  
HETATM   23  F   UNL     1     -11.823   4.890  73.088  1.00  0.00    -0.390 F  
HETATM   24  C   UNL     1     -12.593   6.777  71.902  1.00  0.00    -0.328 A  
HETATM   25  C   UNL     1     -12.356   8.069  71.429  1.00  0.00    -0.328 A  
ENDBRANCH  18  19
ENDBRANCH  17  18
BRANCH  17  26
HETATM   26  C   UNL     1     -10.306   8.328  68.980  1.00  0.00    -0.221 C  
HETATM   27  C   UNL     1     -10.716   8.039  67.524  1.00  0.00    -0.238 C  
HETATM   28  C   UNL     1      -8.878   7.743  69.216  1.00  0.00    -0.139 C  
HETATM   29  C   UNL     1      -8.702   6.154  66.488  1.00  0.00    -0.133 C  
HETATM   30  C   UNL     1      -9.625   8.398  66.528  1.00  0.00    -0.236 C  
HETATM   31  N   UNL     1      -8.438   7.573  66.724  1.00  0.00    -0.121 NA 
HETATM   32  C   UNL     1      -7.884   7.837  68.051  1.00  0.00    -0.124 C  
ENDBRANCH  17  26
ENDBRANCH  15  17
ENDBRANCH  13  15
ENDBRANCH  12  13
ENDBRANCH   9  12
ENDBRANCH   5   6
ENDBRANCH   4   5
TORSDOF 9
ENDMDL
MODEL       95
REMARK 921   NORMALIZED FREE ENERGY PREDICTED BY IDOCK:   -5.78 KCAL/MOL
REMARK 922        TOTAL FREE ENERGY PREDICTED BY IDOCK:  -10.30 KCAL/MOL
REMARK 923 INTER-LIGAND FREE ENERGY PREDICTED BY IDOCK:   -8.75 KCAL/MOL
REMARK 924 INTRA-LIGAND FREE ENERGY PREDICTED BY IDOCK:   -1.55 KCAL/MOL
REMARK 927      BINDING AFFINITY PREDICTED BY RF-SCORE:    0.00 PKD
ROOT
HETATM    1  C   UNL     1      -9.538   3.403  69.685  1.00  0.00    -0.160 C  
HETATM    2  C   UNL     1     -10.273   4.744  69.688  1.00  0.00    -0.200 C  
HETATM    3  C   UNL     1      -9.652   5.685  70.718  1.00  0.00    -0.213 C  
HETATM    4  C   UNL     1     -10.343   5.367  68.281  1.00  0.00    -0.146 C  
ENDROOT
BRANCH   4   5
HETATM    5  O   UNL     1      -9.051   5.681  67.743  1.00  0.00    -0.109 OA 
BRANCH   5   6
HETATM    6  C   UNL     1      -8.870   7.000  67.402  1.00  0.00    -0.119 A  
HETATM    7  C   UNL     1      -7.936   7.858  67.990  1.00  0.00    -0.128 A  
HETATM    8  C   UNL     1      -7.985   9.244  67.743  1.00  0.00    -0.100 A  
HETATM    9  C   UNL     1      -8.948   9.780  66.881  1.00  0.00    -0.154 A  
HETATM   10  C   UNL     1      -9.763   8.887  66.164  1.00  0.00    -0.338 A  
HETATM   11  C   UNL     1      -9.723   7.511  66.425  1.00  0.00    -0.180 A  
BRANCH   9  12
HETATM   12  C   UNL     1      -9.285  11.257  66.897  1.00  0.00    -0.175 C  
BRANCH  12  13
HETATM   13  N   UNL     1     -10.676  11.597  66.692  1.00  0.00    -0.258 N  
HETATM   14  H   UNL     1     -11.068  11.637  65.751  1.00  0.00     0.000 HD 
BRANCH  13  15
HETATM   15  C   UNL     1     -11.458  11.866  67.788  1.00  0.00    -0.319 C  
HETATM   16  O   UNL     1     -12.133  10.976  68.310  1.00  0.00    -0.604 OA 
BRANCH  15  17
HETATM   17  N   UNL     1     -11.423  13.172  68.292  1.00  0.00    -0.292 N  
BRANCH  17  18
HETATM   18  C   UNL     1     -11.191  13.260  69.762  1.00  0.00     0.039 C  
BRANCH  18  19
HETATM   19  C   UNL     1     -12.068  14.266  70.513  1.00  0.00    -0.413 A  
HETATM   20  C   UNL     1     -13.505  15.726  72.404  1.00  0.00    -0.463 A  
HETATM   21  C   UNL     1     -11.555  15.472  71.014  1.00  0.00    -0.424 A  
HETATM   22  C   UNL     1     -12.263  16.183  71.985  1.00  0.00    -0.524 A  
HETATM   23  F   UNL     1     -14.127  16.340  73.424  1.00  0.00    -0.627 F  
HETATM   24  C   UNL     1     -14.096  14.620  71.811  1.00  0.00    -0.592 A  
HETATM   25  C   UNL     1     -13.389  13.900  70.846  1.00  0.00    -0.131 A  
ENDBRANCH  18  19
ENDBRANCH  17  18
BRANCH  17  26
HETATM   26  C   UNL     1     -11.819  14.411  67.524  1.00  0.00    -0.386 C  
HETATM   27  C   UNL     1     -10.680  15.377  67.145  1.00  0.00    -0.314 C  
HETATM   28  C   UNL     1     -12.721  14.195  66.269  1.00  0.00    -0.164 C  
HETATM   29  C   UNL     1     -11.404  16.464  64.504  1.00  0.00    -0.114 C  
HETATM   30  C   UNL     1     -10.004  14.997  65.838  1.00  0.00    -0.326 C  
HETATM   31  N   UNL     1     -10.931  15.095  64.715  1.00  0.00    -0.398 NA 
HETATM   32  C   UNL     1     -12.019  14.139  64.906  1.00  0.00    -0.417 C  
ENDBRANCH  17  26
ENDBRANCH  15  17
ENDBRANCH  13  15
ENDBRANCH  12  13
ENDBRANCH   9  12
ENDBRANCH   5   6
ENDBRANCH   4   5
TORSDOF 9
ENDMDL
MODEL       96
REMARK 921   NORMALIZED FREE ENERGY PREDICTED BY IDOCK:   -5.77 KCAL/MOL
REMARK 922        TOTAL FREE ENERGY PREDICTED BY IDOCK:  -10.27 KCAL/MOL
REMARK 923 INTER-LIGAND FREE ENERGY PREDICTED BY IDOCK:   -8.21 KCAL/MOL
REMARK 924 INTRA-LIGAND FREE ENERGY PREDICTED BY IDOCK:   -2.05 KCAL/MOL
REMARK 927      BINDING AFFINITY PREDICTED BY RF-SCORE:    0.00 PKD
ROOT
HETATM    1  C   UNL     1      -9.124   2.626  65.538  1.00  0.00    -0.127 C  
HETATM    2  C   UNL     1      -9.494   3.849  64.696  1.00  0.00    -0.167 C  
HETATM    3  C   UNL     1     -10.782   3.585  63.920  1.00  0.00    -0.248 C  
HETATM    4  C   UNL     1      -9.564   5.133  65.544  1.00  0.00    -0.043 C  
ENDROOT
BRANCH   4   5
HETATM    5  O   UNL     1     -10.583   5.083  66.552  1.00  0.00    -0.291 OA 
BRANCH   5   6
HETATM    6  C   UNL     1     -10.210   5.580  67.778  1.00  0.00    -0.188 A  
HETATM    7  C   UNL     1     -11.086   5.851  68.833  1.00  0.00    -0.254 A  
HETATM    8  C   UNL     1     -10.646   6.575  69.959  1.00  0.00    -0.280 A  
HETATM    9  C   UNL     1      -9.317   7.006  70.054  1.00  0.00    -0.158 A  
HETATM   10  C   UNL     1      -8.411   6.573  69.070  1.00  0.00    -0.125 A  
HETATM   11  C   UNL     1      -8.856   5.869  67.944  1.00  0.00    -0.105 A  
BRANCH   9  12
HETATM   12  C   UNL     1      -8.911   8.097  71.023  1.00  0.00    -0.151 C  
BRANCH  12  13
HETATM   13  N   UNL     1      -9.720   9.296  71.010  1.00  0.00    -0.282 N  
HETATM   14  H   UNL     1     -10.300   9.539  71.813  1.00  0.00     0.000 HD 
BRANCH  13  15
HETATM   15  C   UNL     1      -9.693  10.099  69.897  1.00  0.00    -0.150 C  
HETATM   16  O   UNL     1      -8.626  10.558  69.481  1.00  0.00    -0.131 OA 
BRANCH  15  17
HETATM   17  N   UNL     1     -10.913  10.337  69.252  1.00  0.00    -0.229 N  
BRANCH  17  18
HETATM   18  C   UNL     1     -12.078  10.480  70.170  1.00  0.00    -0.300 C  
BRANCH  18  19
HETATM   19  C   UNL     1     -12.314  11.886  70.730  1.00  0.00    -0.416 A  
HETATM   20  C   UNL     1     -13.238  14.451  71.313  1.00  0.00    -0.349 A  
HETATM   21  C   UNL     1     -13.104  12.111  71.867  1.00  0.00    -0.475 A  
HETATM   22  C   UNL     1     -13.593  13.391  72.136  1.00  0.00    -0.660 A  
HETATM   23  F   UNL     1     -13.807  15.653  71.500  1.00  0.00    -0.529 F  
HETATM   24  C   UNL     1     -12.336  14.276  70.273  1.00  0.00    -0.418 A  
HETATM   25  C   UNL     1     -11.853  12.997  69.994  1.00  0.00    -0.355 A  
ENDBRANCH  18  19
ENDBRANCH  17  18
BRANCH  17  26
HETATM   26  C   UNL     1     -11.145  10.227  67.764  1.00  0.00    -0.269 C  
HETATM   27  C   UNL     1     -10.883  11.497  66.933  1.00  0.00    -0.331 C  
HETATM   28  C   UNL     1     -10.474   9.017  67.041  1.00  0.00    -0.316 C  
HETATM   29  C   UNL     1      -9.774  10.558  64.369  1.00  0.00    -0.328 C  
HETATM   30  C   UNL     1      -9.427  11.633  66.517  1.00  0.00    -0.206 C  
HETATM   31  N   UNL     1      -9.028  10.548  65.628  1.00  0.00    -0.172 NA 
HETATM   32  C   UNL     1      -9.132   9.278  66.343  1.00  0.00    -0.160 C  
ENDBRANCH  17  26
ENDBRANCH  15  17
ENDBRANCH  13  15
ENDBRANCH  12  13
ENDBRANCH   9  12
ENDBRANCH   5   6
ENDBRANCH   4   5
TORSDOF 9
ENDMDL
MODEL       97
REMARK 921   NORMALIZED FREE ENERGY PREDICTED BY IDOCK:   -5.76 KCAL/MOL
REMARK 922        TOTAL FREE ENERGY PREDICTED BY IDOCK:  -10.26 KCAL/MOL
REMARK 923 INTER-LIGAND FREE ENERGY PREDICTED BY IDOCK:   -9.29 KCAL/MOL
REMARK 924 INTRA-LIGAND FREE ENERGY PREDICTED BY IDOCK:   -0.97 KCAL/MOL
REMARK 927      BINDING AFFINITY PREDICTED BY RF-SCORE:    0.00 PKD
ROOT
HETATM    1  C   UNL     1     -10.767  20.269  65.559  1.00  0.00    -0.076 C  
HETATM    2  C   UNL     1     -10.666  19.371  66.794  1.00  0.00    -0.550 C  
HETATM    3  C   UNL     1     -10.314  17.944  66.382  1.00  0.00    -0.365 C  
HETATM    4  C   UNL     1      -9.695  19.943  67.845  1.00  0.00    -0.389 C  
ENDROOT
BRANCH   4   5
HETATM    5  O   UNL     1      -8.345  20.033  67.369  1.00  0.00    -0.312 OA 
BRANCH   5   6
HETATM    6  C   UNL     1      -7.598  18.891  67.529  1.00  0.00    -0.228 A  
HETATM    7  C   UNL     1      -6.721  18.367  66.574  1.00  0.00    -0.234 A  
HETATM    8  C   UNL     1      -6.183  17.074  66.731  1.00  0.00    -0.245 A  
HETATM    9  C   UNL     1      -6.491  16.307  67.860  1.00  0.00    -0.156 A  
HETATM   10  C   UNL     1      -7.229  16.915  68.890  1.00  0.00    -0.231 A  
HETATM   11  C   UNL     1      -7.777  18.194  68.723  1.00  0.00    -0.277 A  
BRANCH   9  12
HETATM   12  C   UNL     1      -6.268  14.809  67.878  1.00  0.00    -0.157 C  
BRANCH  12  13
HETATM   13  N   UNL     1      -7.189  14.016  67.094  1.00  0.00    -0.270 N  
HETATM   14  H   UNL     1      -6.976  13.780  66.125  1.00  0.00     0.000 HD 
BRANCH  13  15
HETATM   15  C   UNL     1      -8.354  13.587  67.679  1.00  0.00    -0.179 C  
HETATM   16  O   UNL     1      -8.334  12.715  68.551  1.00  0.00    -0.141 OA 
BRANCH  15  17
HETATM   17  N   UNL     1      -9.541  14.206  67.266  1.00  0.00    -0.228 N  
BRANCH  17  18
HETATM   18  C   UNL     1     -10.320  14.842  68.365  1.00  0.00    -0.233 C  
BRANCH  18  19
HETATM   19  C   UNL     1     -11.317  13.930  69.087  1.00  0.00    -0.331 A  
HETATM   20  C   UNL     1     -12.644  12.219  70.843  1.00  0.00    -0.241 A  
HETATM   21  C   UNL     1     -12.281  14.435  69.972  1.00  0.00    -0.408 A  
HETATM   22  C   UNL     1     -12.918  13.580  70.873  1.00  0.00    -0.224 A  
HETATM   23  F   UNL     1     -13.162  11.419  71.788  1.00  0.00    -0.514 F  
HETATM   24  C   UNL     1     -11.808  11.681  69.875  1.00  0.00    -0.434 A  
HETATM   25  C   UNL     1     -11.161  12.532  68.979  1.00  0.00    -0.321 A  
ENDBRANCH  18  19
ENDBRANCH  17  18
BRANCH  17  26
HETATM   26  C   UNL     1     -10.160  14.069  65.895  1.00  0.00    -0.321 C  
HETATM   27  C   UNL     1     -10.095  12.673  65.249  1.00  0.00    -0.271 C  
HETATM   28  C   UNL     1     -11.610  14.624  65.727  1.00  0.00    -0.328 C  
HETATM   29  C   UNL     1     -12.611  12.372  63.745  1.00  0.00    -0.437 C  
HETATM   30  C   UNL     1     -11.253  11.781  65.667  1.00  0.00    -0.267 C  
HETATM   31  N   UNL     1     -12.528  12.318  65.205  1.00  0.00    -0.545 NA 
HETATM   32  C   UNL     1     -12.760  13.615  65.838  1.00  0.00    -0.372 C  
ENDBRANCH  17  26
ENDBRANCH  15  17
ENDBRANCH  13  15
ENDBRANCH  12  13
ENDBRANCH   9  12
ENDBRANCH   5   6
ENDBRANCH   4   5
TORSDOF 9
ENDMDL
MODEL       98
REMARK 921   NORMALIZED FREE ENERGY PREDICTED BY IDOCK:   -5.76 KCAL/MOL
REMARK 922        TOTAL FREE ENERGY PREDICTED BY IDOCK:  -10.25 KCAL/MOL
REMARK 923 INTER-LIGAND FREE ENERGY PREDICTED BY IDOCK:   -6.88 KCAL/MOL
REMARK 924 INTRA-LIGAND FREE ENERGY PREDICTED BY IDOCK:   -3.38 KCAL/MOL
REMARK 927      BINDING AFFINITY PREDICTED BY RF-SCORE:    0.00 PKD
ROOT
HETATM    1  C   UNL     1      -7.169   2.970  65.326  1.00  0.00    -0.066 C  
HETATM    2  C   UNL     1      -8.181   3.451  64.284  1.00  0.00    -0.089 C  
HETATM    3  C   UNL     1      -8.860   2.257  63.617  1.00  0.00    -0.089 C  
HETATM    4  C   UNL     1      -9.190   4.452  64.879  1.00  0.00    -0.157 C  
ENDROOT
BRANCH   4   5
HETATM    5  O   UNL     1     -10.002   3.880  65.914  1.00  0.00    -0.167 OA 
BRANCH   5   6
HETATM    6  C   UNL     1     -10.100   4.637  67.057  1.00  0.00    -0.167 A  
HETATM    7  C   UNL     1      -9.676   4.231  68.326  1.00  0.00    -0.162 A  
HETATM    8  C   UNL     1     -10.031   4.973  69.469  1.00  0.00    -0.302 A  
HETATM    9  C   UNL     1     -10.786   6.145  69.351  1.00  0.00    -0.420 A  
HETATM   10  C   UNL     1     -11.052   6.632  68.060  1.00  0.00    -0.296 A  
HETATM   11  C   UNL     1     -10.713   5.882  66.926  1.00  0.00    -0.395 A  
BRANCH   9  12
HETATM   12  C   UNL     1     -11.510   6.737  70.542  1.00  0.00    -0.360 C  
BRANCH  12  13
HETATM   13  N   UNL     1     -11.897   8.126  70.428  1.00  0.00    -0.472 N  
HETATM   14  H   UNL     1     -12.845   8.380  70.148  1.00  0.00     0.000 HD 
BRANCH  13  15
HETATM   15  C   UNL     1     -10.966   9.096  70.704  1.00  0.00    -0.263 C  
HETATM   16  O   UNL     1     -10.492   9.207  71.838  1.00  0.00    -0.348 OA 
BRANCH  15  17
HETATM   17  N   UNL     1     -10.563   9.915  69.642  1.00  0.00    -0.232 N  
BRANCH  17  18
HETATM   18  C   UNL     1      -9.100  10.198  69.602  1.00  0.00    -0.174 C  
BRANCH  18  19
HETATM   19  C   UNL     1      -8.236   9.136  68.916  1.00  0.00    -0.112 A  
HETATM   20  C   UNL     1      -7.195   6.823  67.760  1.00  0.00    -0.091 A  
HETATM   21  C   UNL     1      -8.190   9.003  67.520  1.00  0.00    -0.109 A  
HETATM   22  C   UNL     1      -7.699   7.828  66.946  1.00  0.00    -0.103 A  
HETATM   23  F   UNL     1      -6.839   5.647  67.217  1.00  0.00    -0.055 F  
HETATM   24  C   UNL     1      -7.092   6.999  69.132  1.00  0.00    -0.084 A  
HETATM   25  C   UNL     1      -7.590   8.167  69.712  1.00  0.00    -0.090 A  
ENDBRANCH  18  19
ENDBRANCH  17  18
BRANCH  17  26
HETATM   26  C   UNL     1     -11.495  10.675  68.729  1.00  0.00    -0.262 C  
HETATM   27  C   UNL     1     -11.894  12.092  69.182  1.00  0.00    -0.361 C  
HETATM   28  C   UNL     1     -11.100  10.733  67.220  1.00  0.00    -0.339 C  
HETATM   29  C   UNL     1     -12.102  13.689  66.714  1.00  0.00    -0.399 C  
HETATM   30  C   UNL     1     -10.891  13.148  68.747  1.00  0.00    -0.246 C  
HETATM   31  N   UNL     1     -10.831  13.253  67.293  1.00  0.00    -0.262 NA 
HETATM   32  C   UNL     1     -10.357  11.986  66.740  1.00  0.00    -0.207 C  
ENDBRANCH  17  26
ENDBRANCH  15  17
ENDBRANCH  13  15
ENDBRANCH  12  13
ENDBRANCH   9  12
ENDBRANCH   5   6
ENDBRANCH   4   5
TORSDOF 9
ENDMDL
MODEL       99
REMARK 921   NORMALIZED FREE ENERGY PREDICTED BY IDOCK:   -5.74 KCAL/MOL
REMARK 922        TOTAL FREE ENERGY PREDICTED BY IDOCK:  -10.22 KCAL/MOL
REMARK 923 INTER-LIGAND FREE ENERGY PREDICTED BY IDOCK:   -8.85 KCAL/MOL
REMARK 924 INTRA-LIGAND FREE ENERGY PREDICTED BY IDOCK:   -1.37 KCAL/MOL
REMARK 927      BINDING AFFINITY PREDICTED BY RF-SCORE:    0.00 PKD
ROOT
HETATM    1  C   UNL     1     -11.959  14.921  64.414  1.00  0.00    -0.408 C  
HETATM    2  C   UNL     1     -12.429  13.897  65.449  1.00  0.00    -0.528 C  
HETATM    3  C   UNL     1     -12.892  12.619  64.754  1.00  0.00    -0.349 C  
HETATM    4  C   UNL     1     -11.360  13.634  66.526  1.00  0.00    -0.319 C  
ENDROOT
BRANCH   4   5
HETATM    5  O   UNL     1     -10.157  13.063  65.993  1.00  0.00    -0.275 OA 
BRANCH   5   6
HETATM    6  C   UNL     1      -9.945  11.746  66.323  1.00  0.00    -0.218 A  
HETATM    7  C   UNL     1      -9.854  10.695  65.405  1.00  0.00    -0.325 A  
HETATM    8  C   UNL     1      -9.874   9.357  65.847  1.00  0.00    -0.362 A  
HETATM    9  C   UNL     1      -9.953   9.059  67.212  1.00  0.00    -0.275 A  
HETATM   10  C   UNL     1      -9.865  10.123  68.126  1.00  0.00    -0.164 A  
HETATM   11  C   UNL     1      -9.863  11.452  67.683  1.00  0.00    -0.189 A  
BRANCH   9  12
HETATM   12  C   UNL     1     -10.369   7.685  67.694  1.00  0.00    -0.237 C  
BRANCH  12  13
HETATM   13  N   UNL     1      -9.597   7.130  68.784  1.00  0.00    -0.144 N  
HETATM   14  H   UNL     1      -8.722   7.565  69.076  1.00  0.00     0.000 HD 
BRANCH  13  15
HETATM   15  C   UNL     1     -10.065   6.005  69.418  1.00  0.00    -0.192 C  
HETATM   16  O   UNL     1     -10.447   5.031  68.765  1.00  0.00    -0.111 OA 
BRANCH  15  17
HETATM   17  N   UNL     1     -10.051   6.010  70.818  1.00  0.00    -0.190 N  
BRANCH  17  18
HETATM   18  C   UNL     1     -11.396   6.144  71.447  1.00  0.00    -0.275 C  
BRANCH  18  19
HETATM   19  C   UNL     1     -12.040   7.531  71.347  1.00  0.00    -0.354 A  
HETATM   20  C   UNL     1     -13.149  10.044  71.821  1.00  0.00    -0.457 A  
HETATM   21  C   UNL     1     -11.280   8.690  71.133  1.00  0.00    -0.329 A  
HETATM   22  C   UNL     1     -11.829   9.945  71.404  1.00  0.00    -0.476 A  
HETATM   23  F   UNL     1     -13.637  11.237  72.200  1.00  0.00    -0.499 F  
HETATM   24  C   UNL     1     -13.961   8.921  71.892  1.00  0.00    -0.476 A  
HETATM   25  C   UNL     1     -13.415   7.664  71.632  1.00  0.00    -0.415 A  
ENDBRANCH  18  19
ENDBRANCH  17  18
BRANCH  17  26
HETATM   26  C   UNL     1      -8.813   6.120  71.675  1.00  0.00    -0.138 C  
HETATM   27  C   UNL     1      -7.751   7.138  71.219  1.00  0.00    -0.093 C  
HETATM   28  C   UNL     1      -9.040   6.298  73.209  1.00  0.00    -0.131 C  
HETATM   29  C   UNL     1      -6.606   8.258  73.693  1.00  0.00    -0.121 C  
HETATM   30  C   UNL     1      -8.023   8.539  71.742  1.00  0.00    -0.131 C  
HETATM   31  N   UNL     1      -7.944   8.585  73.198  1.00  0.00    -0.390 NA 
HETATM   32  C   UNL     1      -8.986   7.728  73.762  1.00  0.00    -0.277 C  
ENDBRANCH  17  26
ENDBRANCH  15  17
ENDBRANCH  13  15
ENDBRANCH  12  13
ENDBRANCH   9  12
ENDBRANCH   5   6
ENDBRANCH   4   5
TORSDOF 9
ENDMDL
MODEL      100
REMARK 921   NORMALIZED FREE ENERGY PREDICTED BY IDOCK:   -5.73 KCAL/MOL
REMARK 922        TOTAL FREE ENERGY PREDICTED BY IDOCK:  -10.20 KCAL/MOL
REMARK 923 INTER-LIGAND FREE ENERGY PREDICTED BY IDOCK:   -8.81 KCAL/MOL
REMARK 924 INTRA-LIGAND FREE ENERGY PREDICTED BY IDOCK:   -1.40 KCAL/MOL
REMARK 927      BINDING AFFINITY PREDICTED BY RF-SCORE:    0.00 PKD
ROOT
HETATM    1  C   UNL     1     -10.510   5.613  70.200  1.00  0.00    -0.366 C  
HETATM    2  C   UNL     1     -10.569   5.176  71.665  1.00  0.00    -0.226 C  
HETATM    3  C   UNL     1      -9.221   4.609  72.101  1.00  0.00    -0.159 C  
HETATM    4  C   UNL     1     -11.062   6.310  72.584  1.00  0.00    -0.263 C  
ENDROOT
BRANCH   4   5
HETATM    5  O   UNL     1     -10.184   7.444  72.594  1.00  0.00    -0.196 OA 
BRANCH   5   6
HETATM    6  C   UNL     1     -10.635   8.531  71.884  1.00  0.00    -0.322 A  
HETATM    7  C   UNL     1     -11.948   9.013  71.903  1.00  0.00    -0.445 A  
HETATM    8  C   UNL     1     -12.368   9.978  70.968  1.00  0.00    -0.458 A  
HETATM    9  C   UNL     1     -11.472  10.495  70.026  1.00  0.00    -0.393 A  
HETATM   10  C   UNL     1     -10.118  10.132  70.135  1.00  0.00    -0.197 A  
HETATM   11  C   UNL     1      -9.707   9.159  71.054  1.00  0.00    -0.359 A  
BRANCH   9  12
HETATM   12  C   UNL     1     -11.960  11.212  68.784  1.00  0.00    -0.268 C  
BRANCH  12  13
HETATM   13  N   UNL     1     -11.945  12.657  68.833  1.00  0.00    -0.286 N  
HETATM   14  H   UNL     1     -12.261  13.152  69.667  1.00  0.00     0.000 HD 
BRANCH  13  15
HETATM   15  C   UNL     1     -11.496  13.349  67.736  1.00  0.00    -0.316 C  
HETATM   16  O   UNL     1     -12.295  13.862  66.948  1.00  0.00    -0.410 OA 
BRANCH  15  17
HETATM   17  N   UNL     1     -10.110  13.470  67.581  1.00  0.00    -0.226 N  
BRANCH  17  18
HETATM   18  C   UNL     1      -9.470  14.456  68.498  1.00  0.00    -0.212 C  
BRANCH  18  19
HETATM   19  C   UNL     1      -9.570  15.923  68.069  1.00  0.00    -0.211 A  
HETATM   20  C   UNL     1     -10.359  18.416  67.103  1.00  0.00    -0.394 A  
HETATM   21  C   UNL     1      -9.966  16.933  68.959  1.00  0.00    -0.265 A  
HETATM   22  C   UNL     1     -10.393  18.169  68.469  1.00  0.00    -0.352 A  
HETATM   23  F   UNL     1     -10.884  19.556  66.624  1.00  0.00    -0.515 F  
HETATM   24  C   UNL     1      -9.828  17.486  66.222  1.00  0.00    -0.295 A  
HETATM   25  C   UNL     1      -9.409  16.246  66.705  1.00  0.00    -0.258 A  
ENDBRANCH  18  19
ENDBRANCH  17  18
BRANCH  17  26
HETATM   26  C   UNL     1      -9.306  12.875  66.449  1.00  0.00    -0.187 C  
HETATM   27  C   UNL     1      -8.352  11.724  66.816  1.00  0.00    -0.165 C  
HETATM   28  C   UNL     1     -10.101  12.468  65.168  1.00  0.00    -0.266 C  
HETATM   29  C   UNL     1      -8.400   9.884  64.515  1.00  0.00    -0.166 C  
HETATM   30  C   UNL     1      -9.041  10.369  66.805  1.00  0.00    -0.143 C  
HETATM   31  N   UNL     1      -9.504  10.022  65.466  1.00  0.00    -0.216 NA 
HETATM   32  C   UNL     1     -10.507  10.994  65.038  1.00  0.00    -0.277 C  
ENDBRANCH  17  26
ENDBRANCH  15  17
ENDBRANCH  13  15
ENDBRANCH  12  13
ENDBRANCH   9  12
ENDBRANCH   5   6
ENDBRANCH   4   5
TORSDOF 9
ENDMDL
MODEL      101
REMARK 921   NORMALIZED FREE ENERGY PREDICTED BY IDOCK:   -5.72 KCAL/MOL
REMARK 922        TOTAL FREE ENERGY PREDICTED BY IDOCK:  -10.19 KCAL/MOL
REMARK 923 INTER-LIGAND FREE ENERGY PREDICTED BY IDOCK:   -7.79 KCAL/MOL
REMARK 924 INTRA-LIGAND FREE ENERGY PREDICTED BY IDOCK:   -2.41 KCAL/MOL
REMARK 927      BINDING AFFINITY PREDICTED BY RF-SCORE:    0.00 PKD
ROOT
HETATM    1  C   UNL     1     -12.960  15.645  70.849  1.00  0.00    -0.471 C  
HETATM    2  C   UNL     1     -12.104  14.378  70.893  1.00  0.00    -0.414 C  
HETATM    3  C   UNL     1     -12.960  13.174  71.278  1.00  0.00    -0.339 C  
HETATM    4  C   UNL     1     -11.329  14.160  69.579  1.00  0.00    -0.259 C  
ENDROOT
BRANCH   4   5
HETATM    5  O   UNL     1     -12.190  13.960  68.449  1.00  0.00    -0.339 OA 
BRANCH   5   6
HETATM    6  C   UNL     1     -11.569  13.461  67.329  1.00  0.00    -0.360 A  
HETATM    7  C   UNL     1     -12.227  13.015  66.179  1.00  0.00    -0.428 A  
HETATM    8  C   UNL     1     -11.526  12.306  65.184  1.00  0.00    -0.390 A  
HETATM    9  C   UNL     1     -10.153  12.065  65.315  1.00  0.00    -0.289 A  
HETATM   10  C   UNL     1      -9.476  12.671  66.387  1.00  0.00    -0.231 A  
HETATM   11  C   UNL     1     -10.179  13.361  67.383  1.00  0.00    -0.237 A  
BRANCH   9  12
HETATM   12  C   UNL     1      -9.460  10.996  64.496  1.00  0.00    -0.233 C  
BRANCH  12  13
HETATM   13  N   UNL     1      -9.752   9.626  64.856  1.00  0.00    -0.438 N  
HETATM   14  H   UNL     1     -10.597   9.168  64.515  1.00  0.00     0.000 HD 
BRANCH  13  15
HETATM   15  C   UNL     1      -8.869   8.954  65.664  1.00  0.00    -0.191 C  
HETATM   16  O   UNL     1      -7.811   9.483  66.014  1.00  0.00    -0.099 OA 
BRANCH  15  17
HETATM   17  N   UNL     1      -9.243   7.673  66.091  1.00  0.00    -0.152 N  
BRANCH  17  18
HETATM   18  C   UNL     1     -10.492   7.634  66.903  1.00  0.00    -0.318 C  
BRANCH  18  19
HETATM   19  C   UNL     1     -10.465   8.444  68.203  1.00  0.00    -0.228 A  
HETATM   20  C   UNL     1     -11.048   9.731  70.606  1.00  0.00    -0.332 A  
HETATM   21  C   UNL     1     -10.058   7.882  69.422  1.00  0.00    -0.196 A  
HETATM   22  C   UNL     1     -10.381   8.513  70.625  1.00  0.00    -0.232 A  
HETATM   23  F   UNL     1     -11.467  10.274  71.761  1.00  0.00    -0.315 F  
HETATM   24  C   UNL     1     -11.323  10.376  69.409  1.00  0.00    -0.310 A  
HETATM   25  C   UNL     1     -11.011   9.745  68.204  1.00  0.00    -0.228 A  
ENDBRANCH  18  19
ENDBRANCH  17  18
BRANCH  17  26
HETATM   26  C   UNL     1      -8.382   6.437  65.987  1.00  0.00    -0.132 C  
HETATM   27  C   UNL     1      -7.265   6.288  67.037  1.00  0.00    -0.075 C  
HETATM   28  C   UNL     1      -9.132   5.073  65.867  1.00  0.00    -0.150 C  
HETATM   29  C   UNL     1      -7.087   3.402  67.608  1.00  0.00    -0.051 C  
HETATM   30  C   UNL     1      -7.751   5.627  68.317  1.00  0.00    -0.089 C  
HETATM   31  N   UNL     1      -8.183   4.255  68.072  1.00  0.00    -0.093 NA 
HETATM   32  C   UNL     1      -9.323   4.266  67.158  1.00  0.00    -0.167 C  
ENDBRANCH  17  26
ENDBRANCH  15  17
ENDBRANCH  13  15
ENDBRANCH  12  13
ENDBRANCH   9  12
ENDBRANCH   5   6
ENDBRANCH   4   5
TORSDOF 9
ENDMDL
MODEL      102
REMARK 921   NORMALIZED FREE ENERGY PREDICTED BY IDOCK:   -5.71 KCAL/MOL
REMARK 922        TOTAL FREE ENERGY PREDICTED BY IDOCK:  -10.19 KCAL/MOL
REMARK 923 INTER-LIGAND FREE ENERGY PREDICTED BY IDOCK:   -8.00 KCAL/MOL
REMARK 924 INTRA-LIGAND FREE ENERGY PREDICTED BY IDOCK:   -2.18 KCAL/MOL
REMARK 927      BINDING AFFINITY PREDICTED BY RF-SCORE:    0.00 PKD
ROOT
HETATM    1  C   UNL     1     -13.367  16.014  73.384  1.00  0.00    -0.582 C  
HETATM    2  C   UNL     1     -13.260  15.478  71.956  1.00  0.00    -0.549 C  
HETATM    3  C   UNL     1     -11.797  15.428  71.519  1.00  0.00    -0.450 C  
HETATM    4  C   UNL     1     -13.973  14.122  71.794  1.00  0.00    -0.421 C  
ENDROOT
BRANCH   4   5
HETATM    5  O   UNL     1     -13.395  13.085  72.600  1.00  0.00    -0.463 OA 
BRANCH   5   6
HETATM    6  C   UNL     1     -13.011  11.961  71.910  1.00  0.00    -0.329 A  
HETATM    7  C   UNL     1     -13.177  10.648  72.360  1.00  0.00     0.025 A  
HETATM    8  C   UNL     1     -12.542   9.580  71.697  1.00  0.00    -0.476 A  
HETATM    9  C   UNL     1     -11.763   9.811  70.558  1.00  0.00    -0.343 A  
HETATM   10  C   UNL     1     -11.752  11.109  70.018  1.00  0.00    -0.438 A  
HETATM   11  C   UNL     1     -12.369  12.172  70.690  1.00  0.00    -0.385 A  
BRANCH   9  12
HETATM   12  C   UNL     1     -10.767   8.782  70.063  1.00  0.00    -0.228 C  
BRANCH  12  13
HETATM   13  N   UNL     1     -10.199   9.021  68.754  1.00  0.00    -0.203 N  
HETATM   14  H   UNL     1     -10.741   8.832  67.911  1.00  0.00     0.000 HD 
BRANCH  13  15
HETATM   15  C   UNL     1      -8.918   9.505  68.670  1.00  0.00    -0.132 C  
HETATM   16  O   UNL     1      -8.194   9.544  69.668  1.00  0.00    -0.112 OA 
BRANCH  15  17
HETATM   17  N   UNL     1      -8.472   9.914  67.406  1.00  0.00    -0.118 N  
BRANCH  17  18
HETATM   18  C   UNL     1      -8.124  11.360  67.312  1.00  0.00    -0.148 C  
BRANCH  18  19
HETATM   19  C   UNL     1      -9.225  12.337  67.735  1.00  0.00    -0.191 A  
HETATM   20  C   UNL     1     -10.936  14.513  68.067  1.00  0.00    -0.260 A  
HETATM   21  C   UNL     1     -10.488  12.342  67.125  1.00  0.00    -0.238 A  
HETATM   22  C   UNL     1     -11.328  13.448  67.266  1.00  0.00    -0.348 A  
HETATM   23  F   UNL     1     -11.686  15.626  68.103  1.00  0.00    -0.349 F  
HETATM   24  C   UNL     1      -9.759  14.459  68.799  1.00  0.00    -0.190 A  
HETATM   25  C   UNL     1      -8.911  13.360  68.653  1.00  0.00     0.018 A  
ENDBRANCH  18  19
ENDBRANCH  17  18
BRANCH  17  26
HETATM   26  C   UNL     1      -8.545   9.081  66.148  1.00  0.00    -0.135 C  
HETATM   27  C   UNL     1      -9.709   9.390  65.188  1.00  0.00    -0.106 C  
HETATM   28  C   UNL     1      -7.232   8.966  65.311  1.00  0.00    -0.088 C  
HETATM   29  C   UNL     1      -8.629   8.998  62.474  1.00  0.00    -0.210 C  
HETATM   30  C   UNL     1      -9.382  10.512  64.216  1.00  0.00    -0.267 C  
HETATM   31  N   UNL     1      -8.288  10.138  63.326  1.00  0.00    -0.160 NA 
HETATM   32  C   UNL     1      -7.080   9.917  64.117  1.00  0.00    -0.128 C  
ENDBRANCH  17  26
ENDBRANCH  15  17
ENDBRANCH  13  15
ENDBRANCH  12  13
ENDBRANCH   9  12
ENDBRANCH   5   6
ENDBRANCH   4   5
TORSDOF 9
ENDMDL
MODEL      103
REMARK 921   NORMALIZED FREE ENERGY PREDICTED BY IDOCK:   -5.71 KCAL/MOL
REMARK 922        TOTAL FREE ENERGY PREDICTED BY IDOCK:  -10.19 KCAL/MOL
REMARK 923 INTER-LIGAND FREE ENERGY PREDICTED BY IDOCK:   -8.63 KCAL/MOL
REMARK 924 INTRA-LIGAND FREE ENERGY PREDICTED BY IDOCK:   -1.56 KCAL/MOL
REMARK 927      BINDING AFFINITY PREDICTED BY RF-SCORE:    0.00 PKD
ROOT
HETATM    1  C   UNL     1      -8.507   5.901  69.060  1.00  0.00    -0.105 C  
HETATM    2  C   UNL     1      -8.775   5.619  67.580  1.00  0.00    -0.107 C  
HETATM    3  C   UNL     1      -9.789   4.486  67.434  1.00  0.00    -0.204 C  
HETATM    4  C   UNL     1      -9.191   6.890  66.817  1.00  0.00    -0.152 C  
ENDROOT
BRANCH   4   5
HETATM    5  O   UNL     1     -10.423   7.451  67.292  1.00  0.00    -0.253 OA 
BRANCH   5   6
HETATM    6  C   UNL     1     -10.455   8.824  67.335  1.00  0.00    -0.279 A  
HETATM    7  C   UNL     1     -10.994   9.582  68.379  1.00  0.00    -0.117 A  
HETATM    8  C   UNL     1     -11.196  10.967  68.227  1.00  0.00    -0.340 A  
HETATM    9  C   UNL     1     -10.830  11.614  67.041  1.00  0.00    -0.311 A  
HETATM   10  C   UNL     1     -10.131  10.873  66.073  1.00  0.00    -0.303 A  
HETATM   11  C   UNL     1      -9.948   9.492  66.220  1.00  0.00    -0.344 A  
BRANCH   9  12
HETATM   12  C   UNL     1     -11.378  12.981  66.689  1.00  0.00    -0.325 C  
BRANCH  12  13
HETATM   13  N   UNL     1     -10.446  14.084  66.772  1.00  0.00    -0.276 N  
HETATM   14  H   UNL     1     -10.151  14.579  65.931  1.00  0.00     0.000 HD 
BRANCH  13  15
HETATM   15  C   UNL     1      -9.967  14.451  68.005  1.00  0.00    -0.225 C  
HETATM   16  O   UNL     1      -8.764  14.361  68.263  1.00  0.00    -0.166 OA 
BRANCH  15  17
HETATM   17  N   UNL     1     -10.893  14.958  68.925  1.00  0.00    -0.241 N  
BRANCH  17  18
HETATM   18  C   UNL     1     -11.586  16.201  68.483  1.00  0.00    -0.265 C  
BRANCH  18  19
HETATM   19  C   UNL     1     -10.675  17.388  68.154  1.00  0.00    -0.343 A  
HETATM   20  C   UNL     1      -9.581  19.891  67.600  1.00  0.00    -0.372 A  
HETATM   21  C   UNL     1      -9.985  18.093  69.151  1.00  0.00    -0.204 A  
HETATM   22  C   UNL     1      -9.468  19.361  68.879  1.00  0.00    -0.448 A  
HETATM   23  F   UNL     1      -9.195  21.157  67.372  1.00  0.00    -0.491 F  
HETATM   24  C   UNL     1     -10.124  19.146  66.564  1.00  0.00    -0.476 A  
HETATM   25  C   UNL     1     -10.652  17.882  66.834  1.00  0.00    -0.271 A  
ENDBRANCH  18  19
ENDBRANCH  17  18
BRANCH  17  26
HETATM   26  C   UNL     1     -11.049  14.485  70.351  1.00  0.00     0.007 C  
HETATM   27  C   UNL     1     -10.853  15.544  71.451  1.00  0.00    -0.028 C  
HETATM   28  C   UNL     1     -12.338  13.667  70.677  1.00  0.00    -0.440 C  
HETATM   29  C   UNL     1     -12.770  14.850  73.579  1.00  0.00    -0.499 C  
HETATM   30  C   UNL     1     -12.128  16.315  71.753  1.00  0.00    -0.346 C  
HETATM   31  N   UNL     1     -13.160  15.438  72.297  1.00  0.00    -0.371 NA 
HETATM   32  C   UNL     1     -13.515  14.437  71.294  1.00  0.00    -0.335 C  
ENDBRANCH  17  26
ENDBRANCH  15  17
ENDBRANCH  13  15
ENDBRANCH  12  13
ENDBRANCH   9  12
ENDBRANCH   5   6
ENDBRANCH   4   5
TORSDOF 9
ENDMDL
MODEL      104
REMARK 921   NORMALIZED FREE ENERGY PREDICTED BY IDOCK:   -5.71 KCAL/MOL
REMARK 922        TOTAL FREE ENERGY PREDICTED BY IDOCK:  -10.18 KCAL/MOL
REMARK 923 INTER-LIGAND FREE ENERGY PREDICTED BY IDOCK:   -8.45 KCAL/MOL
REMARK 924 INTRA-LIGAND FREE ENERGY PREDICTED BY IDOCK:   -1.74 KCAL/MOL
REMARK 927      BINDING AFFINITY PREDICTED BY RF-SCORE:    0.00 PKD
ROOT
HETATM    1  C   UNL     1     -12.845  12.007  63.605  1.00  0.00    -0.472 C  
HETATM    2  C   UNL     1     -11.776  13.091  63.461  1.00  0.00    -0.532 C  
HETATM    3  C   UNL     1     -12.277  14.408  64.048  1.00  0.00    -0.300 C  
HETATM    4  C   UNL     1     -10.425  12.651  64.058  1.00  0.00    -0.416 C  
ENDROOT
BRANCH   4   5
HETATM    5  O   UNL     1     -10.489  12.410  65.471  1.00  0.00    -0.261 OA 
BRANCH   5   6
HETATM    6  C   UNL     1     -10.114  11.147  65.860  1.00  0.00    -0.247 A  
HETATM    7  C   UNL     1      -9.271  10.301  65.132  1.00  0.00    -0.252 A  
HETATM    8  C   UNL     1      -9.134   8.947  65.492  1.00  0.00    -0.248 A  
HETATM    9  C   UNL     1      -9.813   8.432  66.602  1.00  0.00    -0.343 A  
HETATM   10  C   UNL     1     -10.513   9.333  67.423  1.00  0.00    -0.340 A  
HETATM   11  C   UNL     1     -10.662  10.676  67.053  1.00  0.00    -0.317 A  
BRANCH   9  12
HETATM   12  C   UNL     1     -10.009   6.942  66.784  1.00  0.00    -0.182 C  
BRANCH  12  13
HETATM   13  N   UNL     1      -9.389   6.354  67.952  1.00  0.00    -0.116 N  
HETATM   14  H   UNL     1      -8.427   6.018  67.916  1.00  0.00     0.000 HD 
BRANCH  13  15
HETATM   15  C   UNL     1     -10.122   6.257  69.109  1.00  0.00    -0.168 C  
HETATM   16  O   UNL     1     -11.351   6.168  69.068  1.00  0.00    -0.390 OA 
BRANCH  15  17
HETATM   17  N   UNL     1      -9.410   6.231  70.315  1.00  0.00    -0.160 N  
BRANCH  17  18
HETATM   18  C   UNL     1      -9.007   7.573  70.823  1.00  0.00    -0.149 C  
BRANCH  18  19
HETATM   19  C   UNL     1     -10.145   8.452  71.351  1.00  0.00    -0.278 A  
HETATM   20  C   UNL     1     -12.544   9.799  71.799  1.00  0.00    -0.416 A  
HETATM   21  C   UNL     1     -11.034   8.003  72.339  1.00  0.00    -0.402 A  
HETATM   22  C   UNL     1     -12.250   8.660  72.537  1.00  0.00    -0.374 A  
HETATM   23  F   UNL     1     -13.762  10.357  71.900  1.00  0.00    -0.376 F  
HETATM   24  C   UNL     1     -11.614  10.345  70.927  1.00  0.00    -0.428 A  
HETATM   25  C   UNL     1     -10.402   9.686  70.719  1.00  0.00    -0.356 A  
ENDBRANCH  18  19
ENDBRANCH  17  18
BRANCH  17  26
HETATM   26  C   UNL     1      -8.852   4.989  70.968  1.00  0.00    -0.131 C  
HETATM   27  C   UNL     1      -7.667   5.192  71.931  1.00  0.00    -0.109 C  
HETATM   28  C   UNL     1      -9.884   4.036  71.649  1.00  0.00    -0.253 C  
HETATM   29  C   UNL     1      -8.036   3.209  74.079  1.00  0.00    -0.069 C  
HETATM   30  C   UNL     1      -8.115   5.521  73.345  1.00  0.00    -0.114 C  
HETATM   31  N   UNL     1      -8.856   4.412  73.937  1.00  0.00    -0.104 NA 
HETATM   32  C   UNL     1     -10.075   4.184  73.164  1.00  0.00    -0.146 C  
ENDBRANCH  17  26
ENDBRANCH  15  17
ENDBRANCH  13  15
ENDBRANCH  12  13
ENDBRANCH   9  12
ENDBRANCH   5   6
ENDBRANCH   4   5
TORSDOF 9
ENDMDL
MODEL      105
REMARK 921   NORMALIZED FREE ENERGY PREDICTED BY IDOCK:   -5.71 KCAL/MOL
REMARK 922        TOTAL FREE ENERGY PREDICTED BY IDOCK:  -10.18 KCAL/MOL
REMARK 923 INTER-LIGAND FREE ENERGY PREDICTED BY IDOCK:   -7.00 KCAL/MOL
REMARK 924 INTRA-LIGAND FREE ENERGY PREDICTED BY IDOCK:   -3.17 KCAL/MOL
REMARK 927      BINDING AFFINITY PREDICTED BY RF-SCORE:    0.00 PKD
ROOT
HETATM    1  C   UNL     1     -12.568  11.903  63.405  1.00  0.00    -0.555 C  
HETATM    2  C   UNL     1     -11.538  13.014  63.616  1.00  0.00    -0.507 C  
HETATM    3  C   UNL     1     -12.207  14.246  64.223  1.00  0.00    -0.451 C  
HETATM    4  C   UNL     1     -10.328  12.531  64.438  1.00  0.00    -0.352 C  
ENDROOT
BRANCH   4   5
HETATM    5  O   UNL     1     -10.681  12.126  65.769  1.00  0.00    -0.251 OA 
BRANCH   5   6
HETATM    6  C   UNL     1     -10.448  10.801  66.051  1.00  0.00    -0.208 A  
HETATM    7  C   UNL     1     -10.976  10.111  67.146  1.00  0.00    -0.204 A  
HETATM    8  C   UNL     1     -10.495   8.831  67.483  1.00  0.00    -0.340 A  
HETATM    9  C   UNL     1      -9.504   8.216  66.710  1.00  0.00    -0.256 A  
HETATM   10  C   UNL     1      -9.112   8.847  65.516  1.00  0.00    -0.248 A  
HETATM   11  C   UNL     1      -9.579  10.127  65.194  1.00  0.00    -0.354 A  
BRANCH   9  12
HETATM   12  C   UNL     1      -8.695   7.053  67.246  1.00  0.00    -0.120 C  
BRANCH  12  13
HETATM   13  N   UNL     1      -9.189   6.437  68.458  1.00  0.00    -0.125 N  
HETATM   14  H   UNL     1     -10.163   6.147  68.534  1.00  0.00     0.000 HD 
BRANCH  13  15
HETATM   15  C   UNL     1      -8.320   6.251  69.505  1.00  0.00    -0.118 C  
HETATM   16  O   UNL     1      -7.506   5.325  69.488  1.00  0.00    -0.063 OA 
BRANCH  15  17
HETATM   17  N   UNL     1      -8.381   7.174  70.557  1.00  0.00    -0.129 N  
BRANCH  17  18
HETATM   18  C   UNL     1      -7.128   7.950  70.771  1.00  0.00    -0.052 C  
BRANCH  18  19
HETATM   19  C   UNL     1      -6.867   9.080  69.770  1.00  0.00    -0.050 A  
HETATM   20  C   UNL     1      -6.836  10.809  67.583  1.00  0.00    -0.073 A  
HETATM   21  C   UNL     1      -7.570  10.293  69.819  1.00  0.00    -0.168 A  
HETATM   22  C   UNL     1      -7.579  11.141  68.709  1.00  0.00    -0.129 A  
HETATM   23  F   UNL     1      -6.943  11.559  66.475  1.00  0.00    -0.133 F  
HETATM   24  C   UNL     1      -6.015   9.691  67.574  1.00  0.00    -0.051 A  
HETATM   25  C   UNL     1      -6.010   8.836  68.677  1.00  0.00    -0.045 A  
ENDBRANCH  18  19
ENDBRANCH  17  18
BRANCH  17  26
HETATM   26  C   UNL     1      -9.492   7.255  71.577  1.00  0.00    -0.152 C  
HETATM   27  C   UNL     1      -9.931   8.668  72.003  1.00  0.00    -0.399 C  
HETATM   28  C   UNL     1     -10.770   6.408  71.285  1.00  0.00    -0.288 C  
HETATM   29  C   UNL     1     -12.841   8.502  72.437  1.00  0.00    -0.321 C  
HETATM   30  C   UNL     1     -10.980   9.258  71.074  1.00  0.00    -0.320 C  
HETATM   31  N   UNL     1     -12.216   8.484  71.113  1.00  0.00    -0.271 NA 
HETATM   32  C   UNL     1     -11.952   7.132  70.626  1.00  0.00    -0.269 C  
ENDBRANCH  17  26
ENDBRANCH  15  17
ENDBRANCH  13  15
ENDBRANCH  12  13
ENDBRANCH   9  12
ENDBRANCH   5   6
ENDBRANCH   4   5
TORSDOF 9
ENDMDL
MODEL      106
REMARK 921   NORMALIZED FREE ENERGY PREDICTED BY IDOCK:   -5.70 KCAL/MOL
REMARK 922        TOTAL FREE ENERGY PREDICTED BY IDOCK:  -10.17 KCAL/MOL
REMARK 923 INTER-LIGAND FREE ENERGY PREDICTED BY IDOCK:   -8.73 KCAL/MOL
REMARK 924 INTRA-LIGAND FREE ENERGY PREDICTED BY IDOCK:   -1.45 KCAL/MOL
REMARK 927      BINDING AFFINITY PREDICTED BY RF-SCORE:    0.00 PKD
ROOT
HETATM    1  C   UNL     1     -13.339  16.090  73.423  1.00  0.00    -0.582 C  
HETATM    2  C   UNL     1     -12.934  15.629  72.022  1.00  0.00    -0.530 C  
HETATM    3  C   UNL     1     -11.432  15.359  71.968  1.00  0.00    -0.521 C  
HETATM    4  C   UNL     1     -13.771  14.425  71.547  1.00  0.00    -0.382 C  
ENDROOT
BRANCH   4   5
HETATM    5  O   UNL     1     -13.589  13.260  72.363  1.00  0.00    -0.564 OA 
BRANCH   5   6
HETATM    6  C   UNL     1     -13.062  12.172  71.710  1.00  0.00    -0.352 A  
HETATM    7  C   UNL     1     -13.225  10.841  72.108  1.00  0.00    -0.360 A  
HETATM    8  C   UNL     1     -12.457   9.819  71.517  1.00  0.00    -0.495 A  
HETATM    9  C   UNL     1     -11.543  10.113  70.499  1.00  0.00    -0.411 A  
HETATM   10  C   UNL     1     -11.520  11.423  69.991  1.00  0.00    -0.331 A  
HETATM   11  C   UNL     1     -12.272  12.441  70.593  1.00  0.00    -0.368 A  
BRANCH   9  12
HETATM   12  C   UNL     1     -10.443   9.142  70.125  1.00  0.00    -0.218 C  
BRANCH  12  13
HETATM   13  N   UNL     1     -10.395   7.910  70.879  1.00  0.00    -0.200 N  
HETATM   14  H   UNL     1      -9.900   7.865  71.770  1.00  0.00     0.000 HD 
BRANCH  13  15
HETATM   15  C   UNL     1     -11.027   6.801  70.374  1.00  0.00    -0.283 C  
HETATM   16  O   UNL     1     -12.149   6.482  70.774  1.00  0.00    -0.362 OA 
BRANCH  15  17
HETATM   17  N   UNL     1     -10.358   6.085  69.373  1.00  0.00    -0.211 N  
BRANCH  17  18
HETATM   18  C   UNL     1     -11.025   6.116  68.041  1.00  0.00    -0.305 C  
BRANCH  18  19
HETATM   19  C   UNL     1     -10.320   6.947  66.964  1.00  0.00    -0.348 A  
HETATM   20  C   UNL     1      -8.661   8.653  65.512  1.00  0.00    -0.186 A  
HETATM   21  C   UNL     1      -9.276   6.424  66.186  1.00  0.00    -0.132 A  
HETATM   22  C   UNL     1      -8.427   7.285  65.488  1.00  0.00    -0.119 A  
HETATM   23  F   UNL     1      -7.775   9.486  64.944  1.00  0.00    -0.103 F  
HETATM   24  C   UNL     1      -9.776   9.175  66.151  1.00  0.00    -0.357 A  
HETATM   25  C   UNL     1     -10.623   8.321  66.859  1.00  0.00    -0.302 A  
ENDBRANCH  18  19
ENDBRANCH  17  18
BRANCH  17  26
HETATM   26  C   UNL     1      -9.199   5.144  69.605  1.00  0.00    -0.119 C  
HETATM   27  C   UNL     1      -7.790   5.726  69.394  1.00  0.00    -0.093 C  
HETATM   28  C   UNL     1      -9.208   4.345  70.946  1.00  0.00    -0.202 C  
HETATM   29  C   UNL     1      -6.082   4.436  71.420  1.00  0.00    -0.018 C  
HETATM   30  C   UNL     1      -7.250   6.414  70.637  1.00  0.00    -0.074 C  
HETATM   31  N   UNL     1      -7.073   5.466  71.732  1.00  0.00    -0.073 NA 
HETATM   32  C   UNL     1      -8.374   4.913  72.102  1.00  0.00    -0.123 C  
ENDBRANCH  17  26
ENDBRANCH  15  17
ENDBRANCH  13  15
ENDBRANCH  12  13
ENDBRANCH   9  12
ENDBRANCH   5   6
ENDBRANCH   4   5
TORSDOF 9
ENDMDL
MODEL      107
REMARK 921   NORMALIZED FREE ENERGY PREDICTED BY IDOCK:   -5.69 KCAL/MOL
REMARK 922        TOTAL FREE ENERGY PREDICTED BY IDOCK:  -10.15 KCAL/MOL
REMARK 923 INTER-LIGAND FREE ENERGY PREDICTED BY IDOCK:   -7.82 KCAL/MOL
REMARK 924 INTRA-LIGAND FREE ENERGY PREDICTED BY IDOCK:   -2.33 KCAL/MOL
REMARK 927      BINDING AFFINITY PREDICTED BY RF-SCORE:    0.00 PKD
ROOT
HETATM    1  C   UNL     1      -8.820  11.077  62.332  1.00  0.00    -0.358 C  
HETATM    2  C   UNL     1      -9.798  10.472  63.340  1.00  0.00    -0.323 C  
HETATM    3  C   UNL     1      -9.046   9.624  64.363  1.00  0.00    -0.279 C  
HETATM    4  C   UNL     1     -10.687  11.545  63.997  1.00  0.00    -0.384 C  
ENDROOT
BRANCH   4   5
HETATM    5  O   UNL     1      -9.939  12.497  64.766  1.00  0.00    -0.240 OA 
BRANCH   5   6
HETATM    6  C   UNL     1     -10.251  12.534  66.104  1.00  0.00    -0.252 A  
HETATM    7  C   UNL     1      -9.427  12.067  67.133  1.00  0.00    -0.187 A  
HETATM    8  C   UNL     1      -9.927  11.929  68.442  1.00  0.00    -0.203 A  
HETATM    9  C   UNL     1     -11.246  12.287  68.742  1.00  0.00    -0.312 A  
HETATM   10  C   UNL     1     -12.003  12.918  67.740  1.00  0.00    -0.336 A  
HETATM   11  C   UNL     1     -11.509  13.037  66.434  1.00  0.00    -0.384 A  
BRANCH   9  12
HETATM   12  C   UNL     1     -11.928  11.796  70.002  1.00  0.00    -0.344 C  
BRANCH  12  13
HETATM   13  N   UNL     1     -12.431  10.441  69.969  1.00  0.00    -0.529 N  
HETATM   14  H   UNL     1     -12.841  10.059  69.117  1.00  0.00     0.000 HD 
BRANCH  13  15
HETATM   15  C   UNL     1     -12.348   9.678  71.108  1.00  0.00    -0.339 C  
HETATM   16  O   UNL     1     -12.961  10.004  72.128  1.00  0.00    -0.418 OA 
BRANCH  15  17
HETATM   17  N   UNL     1     -11.574   8.513  71.041  1.00  0.00    -0.278 N  
BRANCH  17  18
HETATM   18  C   UNL     1     -10.949   8.264  69.711  1.00  0.00    -0.129 C  
BRANCH  18  19
HETATM   19  C   UNL     1      -9.439   8.512  69.629  1.00  0.00    -0.165 A  
HETATM   20  C   UNL     1      -6.874   9.460  69.087  1.00  0.00    -0.050 A  
HETATM   21  C   UNL     1      -8.764   9.301  70.572  1.00  0.00    -0.276 A  
HETATM   22  C   UNL     1      -7.493   9.802  70.282  1.00  0.00    -0.173 A  
HETATM   23  F   UNL     1      -5.709  10.040  68.755  1.00  0.00    -0.036 F  
HETATM   24  C   UNL     1      -7.463   8.560  68.211  1.00  0.00    -0.096 A  
HETATM   25  C   UNL     1      -8.737   8.064  68.491  1.00  0.00    -0.131 A  
ENDBRANCH  18  19
ENDBRANCH  17  18
BRANCH  17  26
HETATM   26  C   UNL     1     -11.530   7.436  72.098  1.00  0.00    -0.282 C  
HETATM   27  C   UNL     1     -11.342   5.992  71.600  1.00  0.00    -0.313 C  
HETATM   28  C   UNL     1     -10.558   7.675  73.297  1.00  0.00    -0.411 C  
HETATM   29  C   UNL     1      -9.678   4.656  73.632  1.00  0.00    -0.135 C  
HETATM   30  C   UNL     1      -9.879   5.623  71.415  1.00  0.00    -0.173 C  
HETATM   31  N   UNL     1      -9.163   5.647  72.686  1.00  0.00    -0.138 NA 
HETATM   32  C   UNL     1      -9.179   7.007  73.220  1.00  0.00    -0.144 C  
ENDBRANCH  17  26
ENDBRANCH  15  17
ENDBRANCH  13  15
ENDBRANCH  12  13
ENDBRANCH   9  12
ENDBRANCH   5   6
ENDBRANCH   4   5
TORSDOF 9
ENDMDL
MODEL      108
REMARK 921   NORMALIZED FREE ENERGY PREDICTED BY IDOCK:   -5.69 KCAL/MOL
REMARK 922        TOTAL FREE ENERGY PREDICTED BY IDOCK:  -10.14 KCAL/MOL
REMARK 923 INTER-LIGAND FREE ENERGY PREDICTED BY IDOCK:   -8.81 KCAL/MOL
REMARK 924 INTRA-LIGAND FREE ENERGY PREDICTED BY IDOCK:   -1.33 KCAL/MOL
REMARK 927      BINDING AFFINITY PREDICTED BY RF-SCORE:    0.00 PKD
ROOT
HETATM    1  C   UNL     1     -13.482  16.017  73.307  1.00  0.00    -0.570 C  
HETATM    2  C   UNL     1     -13.137  15.609  71.873  1.00  0.00    -0.545 C  
HETATM    3  C   UNL     1     -11.622  15.553  71.690  1.00  0.00    -0.502 C  
HETATM    4  C   UNL     1     -13.834  14.298  71.463  1.00  0.00    -0.352 C  
ENDROOT
BRANCH   4   5
HETATM    5  O   UNL     1     -13.422  13.174  72.253  1.00  0.00    -0.527 OA 
BRANCH   5   6
HETATM    6  C   UNL     1     -12.995  12.085  71.531  1.00  0.00    -0.304 A  
HETATM    7  C   UNL     1     -13.172  10.752  71.913  1.00  0.00    -0.524 A  
HETATM    8  C   UNL     1     -12.497   9.718  71.233  1.00  0.00    -0.461 A  
HETATM    9  C   UNL     1     -11.664  10.007  70.146  1.00  0.00    -0.285 A  
HETATM   10  C   UNL     1     -11.637  11.328  69.668  1.00  0.00    -0.401 A  
HETATM   11  C   UNL     1     -12.295  12.355  70.356  1.00  0.00    -0.307 A  
BRANCH   9  12
HETATM   12  C   UNL     1     -10.637   9.007  69.655  1.00  0.00    -0.224 C  
BRANCH  12  13
HETATM   13  N   UNL     1     -11.147   7.719  69.240  1.00  0.00    -0.435 N  
HETATM   14  H   UNL     1     -11.329   7.525  68.255  1.00  0.00     0.000 HD 
BRANCH  13  15
HETATM   15  C   UNL     1     -11.382   6.763  70.197  1.00  0.00    -0.350 C  
HETATM   16  O   UNL     1     -12.509   6.619  70.677  1.00  0.00    -0.289 OA 
BRANCH  15  17
HETATM   17  N   UNL     1     -10.302   5.951  70.566  1.00  0.00    -0.219 N  
BRANCH  17  18
HETATM   18  C   UNL     1     -10.114   4.747  69.709  1.00  0.00    -0.219 C  
BRANCH  18  19
HETATM   19  C   UNL     1      -9.459   4.998  68.347  1.00  0.00    -0.178 A  
HETATM   20  C   UNL     1      -8.703   5.950  65.838  1.00  0.00    -0.150 A  
HETATM   21  C   UNL     1      -8.309   5.788  68.208  1.00  0.00    -0.107 A  
HETATM   22  C   UNL     1      -7.953   6.291  66.955  1.00  0.00    -0.109 A  
HETATM   23  F   UNL     1      -8.435   6.531  64.658  1.00  0.00    -0.124 F  
HETATM   24  C   UNL     1      -9.753   5.048  65.931  1.00  0.00    -0.182 A  
HETATM   25  C   UNL     1     -10.119   4.551  67.183  1.00  0.00    -0.160 A  
ENDBRANCH  18  19
ENDBRANCH  17  18
BRANCH  17  26
HETATM   26  C   UNL     1      -9.512   6.086  71.846  1.00  0.00    -0.150 C  
HETATM   27  C   UNL     1      -8.013   6.406  71.697  1.00  0.00    -0.102 C  
HETATM   28  C   UNL     1     -10.110   7.026  72.939  1.00  0.00    -0.225 C  
HETATM   29  C   UNL     1      -7.345   8.173  73.958  1.00  0.00    -0.171 C  
HETATM   30  C   UNL     1      -7.743   7.897  71.580  1.00  0.00    -0.092 C  
HETATM   31  N   UNL     1      -8.128   8.601  72.799  1.00  0.00    -0.403 NA 
HETATM   32  C   UNL     1      -9.568   8.461  72.999  1.00  0.00    -0.145 C  
ENDBRANCH  17  26
ENDBRANCH  15  17
ENDBRANCH  13  15
ENDBRANCH  12  13
ENDBRANCH   9  12
ENDBRANCH   5   6
ENDBRANCH   4   5
TORSDOF 9
ENDMDL
MODEL      109
REMARK 921   NORMALIZED FREE ENERGY PREDICTED BY IDOCK:   -5.66 KCAL/MOL
REMARK 922        TOTAL FREE ENERGY PREDICTED BY IDOCK:  -10.10 KCAL/MOL
REMARK 923 INTER-LIGAND FREE ENERGY PREDICTED BY IDOCK:   -8.55 KCAL/MOL
REMARK 924 INTRA-LIGAND FREE ENERGY PREDICTED BY IDOCK:   -1.55 KCAL/MOL
REMARK 927      BINDING AFFINITY PREDICTED BY RF-SCORE:    0.00 PKD
ROOT
HETATM    1  C   UNL     1     -10.720  15.610  65.276  1.00  0.00    -0.444 C  
HETATM    2  C   UNL     1     -11.410  14.624  66.221  1.00  0.00    -0.347 C  
HETATM    3  C   UNL     1     -12.562  13.923  65.503  1.00  0.00    -0.560 C  
HETATM    4  C   UNL     1     -10.412  13.634  66.850  1.00  0.00    -0.272 C  
ENDROOT
BRANCH   4   5
HETATM    5  O   UNL     1      -9.769  12.795  65.880  1.00  0.00    -0.258 OA 
BRANCH   5   6
HETATM    6  C   UNL     1      -9.642  11.477  66.248  1.00  0.00    -0.218 A  
HETATM    7  C   UNL     1      -9.974  10.384  65.442  1.00  0.00    -0.362 A  
HETATM    8  C   UNL     1     -10.033   9.086  65.987  1.00  0.00    -0.246 A  
HETATM    9  C   UNL     1      -9.728   8.865  67.335  1.00  0.00    -0.227 A  
HETATM   10  C   UNL     1      -9.227   9.944  68.083  1.00  0.00    -0.131 A  
HETATM   11  C   UNL     1      -9.187  11.236  67.544  1.00  0.00    -0.159 A  
BRANCH   9  12
HETATM   12  C   UNL     1     -10.153   7.594  68.040  1.00  0.00    -0.187 C  
BRANCH  12  13
HETATM   13  N   UNL     1      -9.977   7.569  69.475  1.00  0.00    -0.177 N  
HETATM   14  H   UNL     1      -9.255   8.136  69.919  1.00  0.00     0.000 HD 
BRANCH  13  15
HETATM   15  C   UNL     1     -10.801   6.769  70.227  1.00  0.00    -0.270 C  
HETATM   16  O   UNL     1     -11.095   5.635  69.843  1.00  0.00    -0.321 OA 
BRANCH  15  17
HETATM   17  N   UNL     1     -11.252   7.286  71.448  1.00  0.00    -0.244 N  
BRANCH  17  18
HETATM   18  C   UNL     1     -12.515   8.072  71.356  1.00  0.00    -0.301 C  
BRANCH  18  19
HETATM   19  C   UNL     1     -12.352   9.595  71.382  1.00  0.00    -0.468 A  
HETATM   20  C   UNL     1     -12.459  12.340  70.906  1.00  0.00    -0.276 A  
HETATM   21  C   UNL     1     -13.171  10.417  72.170  1.00  0.00    -0.418 A  
HETATM   22  C   UNL     1     -13.247  11.786  71.907  1.00  0.00    -0.468 A  
HETATM   23  F   UNL     1     -12.625  13.630  70.571  1.00  0.00    -0.371 F  
HETATM   24  C   UNL     1     -11.533  11.569  70.219  1.00  0.00    -0.192 A  
HETATM   25  C   UNL     1     -11.460  10.199  70.472  1.00  0.00    -0.417 A  
ENDBRANCH  18  19
ENDBRANCH  17  18
BRANCH  17  26
HETATM   26  C   UNL     1     -10.459   7.296  72.733  1.00  0.00    -0.260 C  
HETATM   27  C   UNL     1     -10.103   5.923  73.331  1.00  0.00    -0.207 C  
HETATM   28  C   UNL     1      -9.180   8.192  72.757  1.00  0.00    -0.341 C  
HETATM   29  C   UNL     1      -7.429   6.243  74.528  1.00  0.00    -0.096 C  
HETATM   30  C   UNL     1      -8.820   5.349  72.752  1.00  0.00    -0.122 C  
HETATM   31  N   UNL     1      -7.670   6.181  73.086  1.00  0.00    -0.097 NA 
HETATM   32  C   UNL     1      -7.839   7.500  72.479  1.00  0.00    -0.099 C  
ENDBRANCH  17  26
ENDBRANCH  15  17
ENDBRANCH  13  15
ENDBRANCH  12  13
ENDBRANCH   9  12
ENDBRANCH   5   6
ENDBRANCH   4   5
TORSDOF 9
ENDMDL
MODEL      110
REMARK 921   NORMALIZED FREE ENERGY PREDICTED BY IDOCK:   -5.65 KCAL/MOL
REMARK 922        TOTAL FREE ENERGY PREDICTED BY IDOCK:  -10.09 KCAL/MOL
REMARK 923 INTER-LIGAND FREE ENERGY PREDICTED BY IDOCK:   -7.78 KCAL/MOL
REMARK 924 INTRA-LIGAND FREE ENERGY PREDICTED BY IDOCK:   -2.31 KCAL/MOL
REMARK 927      BINDING AFFINITY PREDICTED BY RF-SCORE:    0.00 PKD
ROOT
HETATM    1  C   UNL     1     -13.958  13.716  72.253  1.00  0.00    -0.661 C  
HETATM    2  C   UNL     1     -13.316  15.093  72.435  1.00  0.00    -0.522 C  
HETATM    3  C   UNL     1     -12.362  15.077  73.627  1.00  0.00    -0.639 C  
HETATM    4  C   UNL     1     -12.643  15.590  71.142  1.00  0.00    -0.448 C  
ENDROOT
BRANCH   4   5
HETATM    5  O   UNL     1     -11.557  14.753  70.718  1.00  0.00    -0.280 OA 
BRANCH   5   6
HETATM    6  C   UNL     1     -11.713  14.188  69.476  1.00  0.00    -0.312 A  
HETATM    7  C   UNL     1     -11.748  12.813  69.220  1.00  0.00    -0.376 A  
HETATM    8  C   UNL     1     -11.673  12.331  67.898  1.00  0.00    -0.410 A  
HETATM    9  C   UNL     1     -11.596  13.218  66.819  1.00  0.00    -0.408 A  
HETATM   10  C   UNL     1     -11.740  14.592  67.082  1.00  0.00    -0.420 A  
HETATM   11  C   UNL     1     -11.796  15.069  68.398  1.00  0.00    -0.298 A  
BRANCH   9  12
HETATM   12  C   UNL     1     -11.124  12.760  65.455  1.00  0.00    -0.285 C  
BRANCH  12  13
HETATM   13  N   UNL     1      -9.738  12.355  65.361  1.00  0.00    -0.424 N  
HETATM   14  H   UNL     1      -9.004  13.046  65.208  1.00  0.00     0.000 HD 
BRANCH  13  15
HETATM   15  C   UNL     1      -9.431  11.022  65.483  1.00  0.00    -0.216 C  
HETATM   16  O   UNL     1      -9.927  10.192  64.717  1.00  0.00    -0.331 OA 
BRANCH  15  17
HETATM   17  N   UNL     1      -8.514  10.667  66.480  1.00  0.00    -0.139 N  
BRANCH  17  18
HETATM   18  C   UNL     1      -7.177  11.312  66.348  1.00  0.00    -0.052 C  
BRANCH  18  19
HETATM   19  C   UNL     1      -6.866  12.412  67.368  1.00  0.00    -0.147 A  
HETATM   20  C   UNL     1      -6.626  14.014  69.636  1.00  0.00    -0.099 A  
HETATM   21  C   UNL     1      -5.665  12.437  68.091  1.00  0.00    -0.063 A  
HETATM   22  C   UNL     1      -5.560  13.215  69.246  1.00  0.00    -0.079 A  
HETATM   23  F   UNL     1      -6.571  14.664  70.810  1.00  0.00    -0.170 F  
HETATM   24  C   UNL     1      -7.765  14.119  68.851  1.00  0.00    -0.091 A  
HETATM   25  C   UNL     1      -7.878  13.336  67.702  1.00  0.00    -0.168 A  
ENDBRANCH  18  19
ENDBRANCH  17  18
BRANCH  17  26
HETATM   26  C   UNL     1      -8.710   9.556  67.484  1.00  0.00    -0.126 C  
HETATM   27  C   UNL     1      -7.661   8.428  67.472  1.00  0.00    -0.099 C  
HETATM   28  C   UNL     1      -8.953   9.988  68.964  1.00  0.00    -0.163 C  
HETATM   29  C   UNL     1      -7.331   7.617  70.286  1.00  0.00    -0.071 C  
HETATM   30  C   UNL     1      -6.448   8.750  68.330  1.00  0.00    -0.060 C  
HETATM   31  N   UNL     1      -6.812   8.870  69.737  1.00  0.00    -0.045 NA 
HETATM   32  C   UNL     1      -7.737   9.990  69.900  1.00  0.00    -0.175 C  
ENDBRANCH  17  26
ENDBRANCH  15  17
ENDBRANCH  13  15
ENDBRANCH  12  13
ENDBRANCH   9  12
ENDBRANCH   5   6
ENDBRANCH   4   5
TORSDOF 9
ENDMDL
MODEL      111
REMARK 921   NORMALIZED FREE ENERGY PREDICTED BY IDOCK:   -5.64 KCAL/MOL
REMARK 922        TOTAL FREE ENERGY PREDICTED BY IDOCK:  -10.08 KCAL/MOL
REMARK 923 INTER-LIGAND FREE ENERGY PREDICTED BY IDOCK:   -7.87 KCAL/MOL
REMARK 924 INTRA-LIGAND FREE ENERGY PREDICTED BY IDOCK:   -2.21 KCAL/MOL
REMARK 927      BINDING AFFINITY PREDICTED BY RF-SCORE:    0.00 PKD
ROOT
HETATM    1  C   UNL     1     -13.651  13.498  72.335  1.00  0.00    -0.709 C  
HETATM    2  C   UNL     1     -13.329  14.964  72.628  1.00  0.00    -0.553 C  
HETATM    3  C   UNL     1     -12.329  15.067  73.777  1.00  0.00    -0.654 C  
HETATM    4  C   UNL     1     -12.863  15.716  71.367  1.00  0.00    -0.482 C  
ENDROOT
BRANCH   4   5
HETATM    5  O   UNL     1     -11.642  15.193  70.824  1.00  0.00    -0.273 OA 
BRANCH   5   6
HETATM    6  C   UNL     1     -11.711  14.813  69.505  1.00  0.00    -0.321 A  
HETATM    7  C   UNL     1     -12.092  13.545  69.056  1.00  0.00    -0.330 A  
HETATM    8  C   UNL     1     -11.906  13.178  67.708  1.00  0.00    -0.392 A  
HETATM    9  C   UNL     1     -11.366  14.088  66.791  1.00  0.00    -0.346 A  
HETATM   10  C   UNL     1     -11.155  15.410  67.219  1.00  0.00    -0.302 A  
HETATM   11  C   UNL     1     -11.325  15.766  68.563  1.00  0.00    -0.374 A  
BRANCH   9  12
HETATM   12  C   UNL     1     -10.792  13.624  65.469  1.00  0.00    -0.294 C  
BRANCH  12  13
HETATM   13  N   UNL     1      -9.531  12.919  65.531  1.00  0.00    -0.463 N  
HETATM   14  H   UNL     1      -8.650  13.432  65.569  1.00  0.00     0.000 HD 
BRANCH  13  15
HETATM   15  C   UNL     1      -9.543  11.546  65.540  1.00  0.00    -0.227 C  
HETATM   16  O   UNL     1     -10.257  10.920  64.753  1.00  0.00    -0.293 OA 
BRANCH  15  17
HETATM   17  N   UNL     1      -8.690  10.906  66.448  1.00  0.00    -0.164 N  
BRANCH  17  18
HETATM   18  C   UNL     1      -8.885  11.312  67.869  1.00  0.00    -0.142 C  
BRANCH  18  19
HETATM   19  C   UNL     1      -7.827  12.261  68.440  1.00  0.00    -0.151 A  
HETATM   20  C   UNL     1      -6.291  13.975  70.012  1.00  0.00    -0.118 A  
HETATM   21  C   UNL     1      -6.670  11.788  69.076  1.00  0.00    -0.102 A  
HETATM   22  C   UNL     1      -5.922  12.642  69.890  1.00  0.00    -0.141 A  
HETATM   23  F   UNL     1      -5.647  14.762  70.889  1.00  0.00    -0.128 F  
HETATM   24  C   UNL     1      -7.341  14.496  69.271  1.00  0.00    -0.126 A  
HETATM   25  C   UNL     1      -8.098  13.645  68.464  1.00  0.00    -0.118 A  
ENDBRANCH  18  19
ENDBRANCH  17  18
BRANCH  17  26
HETATM   26  C   UNL     1      -7.497  10.060  66.071  1.00  0.00    -0.112 C  
HETATM   27  C   UNL     1      -7.646   8.539  66.260  1.00  0.00    -0.090 C  
HETATM   28  C   UNL     1      -6.870  10.324  64.666  1.00  0.00    -0.077 C  
HETATM   29  C   UNL     1      -6.151   7.309  64.039  1.00  0.00    -0.044 C  
HETATM   30  C   UNL     1      -8.283   7.862  65.057  1.00  0.00    -0.131 C  
HETATM   31  N   UNL     1      -7.439   7.983  63.874  1.00  0.00    -0.109 NA 
HETATM   32  C   UNL     1      -7.303   9.396  63.524  1.00  0.00    -0.103 C  
ENDBRANCH  17  26
ENDBRANCH  15  17
ENDBRANCH  13  15
ENDBRANCH  12  13
ENDBRANCH   9  12
ENDBRANCH   5   6
ENDBRANCH   4   5
TORSDOF 9
ENDMDL
MODEL      112
REMARK 921   NORMALIZED FREE ENERGY PREDICTED BY IDOCK:   -5.64 KCAL/MOL
REMARK 922        TOTAL FREE ENERGY PREDICTED BY IDOCK:  -10.07 KCAL/MOL
REMARK 923 INTER-LIGAND FREE ENERGY PREDICTED BY IDOCK:   -7.39 KCAL/MOL
REMARK 924 INTRA-LIGAND FREE ENERGY PREDICTED BY IDOCK:   -2.69 KCAL/MOL
REMARK 927      BINDING AFFINITY PREDICTED BY RF-SCORE:    0.00 PKD
ROOT
HETATM    1  C   UNL     1      -6.334  20.189  70.230  1.00  0.00    -0.341 C  
HETATM    2  C   UNL     1      -5.860  19.095  69.272  1.00  0.00    -0.255 C  
HETATM    3  C   UNL     1      -5.574  17.807  70.041  1.00  0.00    -0.246 C  
HETATM    4  C   UNL     1      -6.845  18.883  68.106  1.00  0.00    -0.241 C  
ENDROOT
BRANCH   4   5
HETATM    5  O   UNL     1      -8.136  18.432  68.538  1.00  0.00    -0.308 OA 
BRANCH   5   6
HETATM    6  C   UNL     1      -8.400  17.107  68.287  1.00  0.00    -0.232 A  
HETATM    7  C   UNL     1      -9.102  16.253  69.144  1.00  0.00    -0.230 A  
HETATM    8  C   UNL     1      -9.117  14.864  68.912  1.00  0.00    -0.191 A  
HETATM    9  C   UNL     1      -8.459  14.319  67.804  1.00  0.00    -0.177 A  
HETATM   10  C   UNL     1      -7.911  15.205  66.860  1.00  0.00    -0.110 A  
HETATM   11  C   UNL     1      -7.881  16.585  67.103  1.00  0.00    -0.215 A  
BRANCH   9  12
HETATM   12  C   UNL     1      -8.119  12.845  67.736  1.00  0.00    -0.166 C  
BRANCH  12  13
HETATM   13  N   UNL     1      -8.499  12.049  68.882  1.00  0.00    -0.365 N  
HETATM   14  H   UNL     1      -7.955  12.087  69.745  1.00  0.00     0.000 HD 
BRANCH  13  15
HETATM   15  C   UNL     1      -9.604  11.240  68.787  1.00  0.00    -0.151 C  
HETATM   16  O   UNL     1     -10.440  11.210  69.694  1.00  0.00    -0.118 OA 
BRANCH  15  17
HETATM   17  N   UNL     1      -9.747  10.490  67.613  1.00  0.00    -0.163 N  
BRANCH  17  18
HETATM   18  C   UNL     1     -11.057  10.667  66.925  1.00  0.00    -0.090 C  
BRANCH  18  19
HETATM   19  C   UNL     1     -11.272  12.021  66.241  1.00  0.00    -0.394 A  
HETATM   20  C   UNL     1     -11.183  14.679  65.408  1.00  0.00    -0.347 A  
HETATM   21  C   UNL     1     -10.611  12.367  65.053  1.00  0.00    -0.330 A  
HETATM   22  C   UNL     1     -10.540  13.704  64.657  1.00  0.00    -0.446 A  
HETATM   23  F   UNL     1     -11.010  15.974  65.096  1.00  0.00    -0.361 F  
HETATM   24  C   UNL     1     -11.967  14.338  66.500  1.00  0.00    -0.448 A  
HETATM   25  C   UNL     1     -12.033  13.005  66.906  1.00  0.00    -0.415 A  
ENDBRANCH  18  19
ENDBRANCH  17  18
BRANCH  17  26
HETATM   26  C   UNL     1      -8.807   9.400  67.157  1.00  0.00    -0.127 C  
HETATM   27  C   UNL     1      -8.039   8.651  68.261  1.00  0.00    -0.118 C  
HETATM   28  C   UNL     1      -9.388   8.349  66.160  1.00  0.00    -0.267 C  
HETATM   29  C   UNL     1      -7.828   5.862  67.334  1.00  0.00    -0.102 C  
HETATM   30  C   UNL     1      -8.829   7.486  68.834  1.00  0.00    -0.135 C  
HETATM   31  N   UNL     1      -9.070   6.462  67.823  1.00  0.00    -0.113 NA 
HETATM   32  C   UNL     1      -9.890   7.027  66.754  1.00  0.00    -0.186 C  
ENDBRANCH  17  26
ENDBRANCH  15  17
ENDBRANCH  13  15
ENDBRANCH  12  13
ENDBRANCH   9  12
ENDBRANCH   5   6
ENDBRANCH   4   5
TORSDOF 9
ENDMDL
MODEL      113
REMARK 921   NORMALIZED FREE ENERGY PREDICTED BY IDOCK:   -5.63 KCAL/MOL
REMARK 922        TOTAL FREE ENERGY PREDICTED BY IDOCK:  -10.06 KCAL/MOL
REMARK 923 INTER-LIGAND FREE ENERGY PREDICTED BY IDOCK:   -8.03 KCAL/MOL
REMARK 924 INTRA-LIGAND FREE ENERGY PREDICTED BY IDOCK:   -2.03 KCAL/MOL
REMARK 927      BINDING AFFINITY PREDICTED BY RF-SCORE:    0.00 PKD
ROOT
HETATM    1  C   UNL     1      -8.143   4.003  66.650  1.00  0.00    -0.097 C  
HETATM    2  C   UNL     1      -8.850   5.358  66.700  1.00  0.00    -0.115 C  
HETATM    3  C   UNL     1     -10.358   5.173  66.545  1.00  0.00    -0.336 C  
HETATM    4  C   UNL     1      -8.477   6.157  67.963  1.00  0.00    -0.116 C  
ENDROOT
BRANCH   4   5
HETATM    5  O   UNL     1      -8.883   5.507  69.176  1.00  0.00    -0.102 OA 
BRANCH   5   6
HETATM    6  C   UNL     1      -9.696   6.258  69.991  1.00  0.00    -0.168 A  
HETATM    7  C   UNL     1     -11.094   6.223  69.981  1.00  0.00    -0.455 A  
HETATM    8  C   UNL     1     -11.838   7.193  70.679  1.00  0.00    -0.334 A  
HETATM    9  C   UNL     1     -11.192   8.189  71.421  1.00  0.00    -0.297 A  
HETATM   10  C   UNL     1      -9.796   8.104  71.565  1.00  0.00    -0.233 A  
HETATM   11  C   UNL     1      -9.058   7.148  70.854  1.00  0.00    -0.152 A  
BRANCH   9  12
HETATM   12  C   UNL     1     -11.916   9.449  71.845  1.00  0.00    -0.346 C  
BRANCH  12  13
HETATM   13  N   UNL     1     -11.517  10.670  71.179  1.00  0.00    -0.214 N  
HETATM   14  H   UNL     1     -10.824  11.288  71.600  1.00  0.00     0.000 HD 
BRANCH  13  15
HETATM   15  C   UNL     1     -12.090  10.980  69.971  1.00  0.00    -0.364 C  
HETATM   16  O   UNL     1     -13.242  10.623  69.713  1.00  0.00    -0.009 OA 
BRANCH  15  17
HETATM   17  N   UNL     1     -11.324  11.739  69.077  1.00  0.00    -0.255 N  
BRANCH  17  18
HETATM   18  C   UNL     1     -12.000  12.968  68.575  1.00  0.00    -0.261 C  
BRANCH  18  19
HETATM   19  C   UNL     1     -12.076  14.136  69.564  1.00  0.00    -0.388 A  
HETATM   20  C   UNL     1     -11.827  15.871  71.731  1.00  0.00    -0.497 A  
HETATM   21  C   UNL     1     -11.190  15.221  69.501  1.00  0.00    -0.289 A  
HETATM   22  C   UNL     1     -11.043  16.068  70.602  1.00  0.00    -0.352 A  
HETATM   23  F   UNL     1     -11.599  16.607  72.832  1.00  0.00    -0.548 F  
HETATM   24  C   UNL     1     -12.815  14.898  71.753  1.00  0.00    -0.404 A  
HETATM   25  C   UNL     1     -12.958  14.042  70.660  1.00  0.00    -0.261 A  
ENDBRANCH  18  19
ENDBRANCH  17  18
BRANCH  17  26
HETATM   26  C   UNL     1     -10.028  11.290  68.446  1.00  0.00    -0.197 C  
HETATM   27  C   UNL     1      -9.804   9.770  68.344  1.00  0.00    -0.168 C  
HETATM   28  C   UNL     1      -9.660  11.936  67.073  1.00  0.00    -0.196 C  
HETATM   29  C   UNL     1      -8.361   9.344  65.810  1.00  0.00    -0.122 C  
HETATM   30  C   UNL     1     -10.417   9.172  67.089  1.00  0.00    -0.255 C  
HETATM   31  N   UNL     1      -9.779   9.698  65.886  1.00  0.00    -0.257 NA 
HETATM   32  C   UNL     1     -10.012  11.138  65.810  1.00  0.00    -0.245 C  
ENDBRANCH  17  26
ENDBRANCH  15  17
ENDBRANCH  13  15
ENDBRANCH  12  13
ENDBRANCH   9  12
ENDBRANCH   5   6
ENDBRANCH   4   5
TORSDOF 9
ENDMDL
MODEL      114
REMARK 921   NORMALIZED FREE ENERGY PREDICTED BY IDOCK:   -5.62 KCAL/MOL
REMARK 922        TOTAL FREE ENERGY PREDICTED BY IDOCK:  -10.05 KCAL/MOL
REMARK 923 INTER-LIGAND FREE ENERGY PREDICTED BY IDOCK:   -7.00 KCAL/MOL
REMARK 924 INTRA-LIGAND FREE ENERGY PREDICTED BY IDOCK:   -3.05 KCAL/MOL
REMARK 927      BINDING AFFINITY PREDICTED BY RF-SCORE:    0.00 PKD
ROOT
HETATM    1  C   UNL     1     -10.175  13.260  65.714  1.00  0.00    -0.296 C  
HETATM    2  C   UNL     1     -11.491  13.469  66.465  1.00  0.00    -0.365 C  
HETATM    3  C   UNL     1     -12.672  13.350  65.504  1.00  0.00    -0.469 C  
HETATM    4  C   UNL     1     -11.618  12.531  67.680  1.00  0.00    -0.355 C  
ENDROOT
BRANCH   4   5
HETATM    5  O   UNL     1     -11.642  11.144  67.316  1.00  0.00    -0.514 OA 
BRANCH   5   6
HETATM    6  C   UNL     1     -10.886  10.322  68.117  1.00  0.00    -0.265 A  
HETATM    7  C   UNL     1      -9.988  10.761  69.095  1.00  0.00    -0.206 A  
HETATM    8  C   UNL     1      -9.090   9.858  69.697  1.00  0.00    -0.245 A  
HETATM    9  C   UNL     1      -9.102   8.502  69.350  1.00  0.00    -0.150 A  
HETATM   10  C   UNL     1     -10.125   8.049  68.499  1.00  0.00    -0.218 A  
HETATM   11  C   UNL     1     -11.005   8.952  67.888  1.00  0.00     0.031 A  
BRANCH   9  12
HETATM   12  C   UNL     1      -7.928   7.599  69.662  1.00  0.00    -0.124 C  
BRANCH  12  13
HETATM   13  N   UNL     1      -7.804   7.163  71.035  1.00  0.00    -0.094 N  
HETATM   14  H   UNL     1      -7.595   7.832  71.776  1.00  0.00     0.000 HD 
BRANCH  13  15
HETATM   15  C   UNL     1      -7.972   5.831  71.322  1.00  0.00    -0.113 C  
HETATM   16  O   UNL     1      -6.996   5.105  71.527  1.00  0.00    -0.053 OA 
BRANCH  15  17
HETATM   17  N   UNL     1      -9.287   5.357  71.403  1.00  0.00    -0.146 N  
BRANCH  17  18
HETATM   18  C   UNL     1     -10.038   5.820  72.604  1.00  0.00    -0.180 C  
BRANCH  18  19
HETATM   19  C   UNL     1     -11.133   6.859  72.342  1.00  0.00    -0.296 A  
HETATM   20  C   UNL     1     -12.781   8.859  71.316  1.00  0.00    -0.248 A  
HETATM   21  C   UNL     1     -12.339   6.525  71.708  1.00  0.00    -0.340 A  
HETATM   22  C   UNL     1     -13.144   7.528  71.165  1.00  0.00    -0.240 A  
HETATM   23  F   UNL     1     -13.488   9.813  70.689  1.00  0.00    -0.339 F  
HETATM   24  C   UNL     1     -11.673   9.216  72.071  1.00  0.00    -0.384 A  
HETATM   25  C   UNL     1     -10.860   8.217  72.607  1.00  0.00    -0.381 A  
ENDBRANCH  18  19
ENDBRANCH  17  18
BRANCH  17  26
HETATM   26  C   UNL     1      -9.878   4.279  70.525  1.00  0.00    -0.198 C  
HETATM   27  C   UNL     1      -9.740   4.479  69.005  1.00  0.00    -0.235 C  
HETATM   28  C   UNL     1      -9.483   2.808  70.867  1.00  0.00    -0.224 C  
HETATM   29  C   UNL     1      -9.346   1.786  67.877  1.00  0.00    -0.155 C  
HETATM   30  C   UNL     1      -8.421   3.951  68.463  1.00  0.00    -0.091 C  
HETATM   31  N   UNL     1      -8.321   2.506  68.633  1.00  0.00    -0.062 NA 
HETATM   32  C   UNL     1      -8.335   2.188  70.059  1.00  0.00    -0.045 C  
ENDBRANCH  17  26
ENDBRANCH  15  17
ENDBRANCH  13  15
ENDBRANCH  12  13
ENDBRANCH   9  12
ENDBRANCH   5   6
ENDBRANCH   4   5
TORSDOF 9
ENDMDL
MODEL      115
REMARK 921   NORMALIZED FREE ENERGY PREDICTED BY IDOCK:   -5.62 KCAL/MOL
REMARK 922        TOTAL FREE ENERGY PREDICTED BY IDOCK:  -10.04 KCAL/MOL
REMARK 923 INTER-LIGAND FREE ENERGY PREDICTED BY IDOCK:   -8.73 KCAL/MOL
REMARK 924 INTRA-LIGAND FREE ENERGY PREDICTED BY IDOCK:   -1.31 KCAL/MOL
REMARK 927      BINDING AFFINITY PREDICTED BY RF-SCORE:    0.00 PKD
ROOT
HETATM    1  C   UNL     1     -10.180   5.538  68.277  1.00  0.00    -0.237 C  
HETATM    2  C   UNL     1     -10.413   5.711  69.779  1.00  0.00    -0.377 C  
HETATM    3  C   UNL     1      -9.169   5.289  70.558  1.00  0.00    -0.187 C  
HETATM    4  C   UNL     1     -10.876   7.138  70.129  1.00  0.00    -0.257 C  
ENDROOT
BRANCH   4   5
HETATM    5  O   UNL     1      -9.899   8.139  69.810  1.00  0.00    -0.182 OA 
BRANCH   5   6
HETATM    6  C   UNL     1     -10.408   9.395  69.586  1.00  0.00    -0.216 A  
HETATM    7  C   UNL     1      -9.670  10.489  69.124  1.00  0.00    -0.226 A  
HETATM    8  C   UNL     1     -10.220  11.785  69.151  1.00  0.00     0.048 A  
HETATM    9  C   UNL     1     -11.524  11.996  69.611  1.00  0.00    -0.322 A  
HETATM   10  C   UNL     1     -12.311  10.869  69.905  1.00  0.00    -0.354 A  
HETATM   11  C   UNL     1     -11.755   9.582  69.894  1.00  0.00     0.053 A  
BRANCH   9  12
HETATM   12  C   UNL     1     -12.000  13.373  70.024  1.00  0.00    -0.337 C  
BRANCH  12  13
HETATM   13  N   UNL     1     -12.295  14.296  68.950  1.00  0.00    -0.570 N  
HETATM   14  H   UNL     1     -13.236  14.356  68.560  1.00  0.00     0.000 HD 
BRANCH  13  15
HETATM   15  C   UNL     1     -11.285  15.088  68.464  1.00  0.00    -0.287 C  
HETATM   16  O   UNL     1     -10.462  15.596  69.231  1.00  0.00    -0.215 OA 
BRANCH  15  17
HETATM   17  N   UNL     1     -11.217  15.257  67.076  1.00  0.00    -0.312 N  
BRANCH  17  18
HETATM   18  C   UNL     1     -12.036  14.286  66.295  1.00  0.00    -0.412 C  
BRANCH  18  19
HETATM   19  C   UNL     1     -11.252  13.347  65.373  1.00  0.00    -0.303 A  
HETATM   20  C   UNL     1     -10.289  11.203  63.875  1.00  0.00    -0.380 A  
HETATM   21  C   UNL     1     -11.500  13.281  63.994  1.00  0.00    -0.432 A  
HETATM   22  C   UNL     1     -11.045  12.188  63.254  1.00  0.00    -0.408 A  
HETATM   23  F   UNL     1      -9.959  10.094  63.192  1.00  0.00    -0.303 F  
HETATM   24  C   UNL     1      -9.905  11.327  65.202  1.00  0.00    -0.298 A  
HETATM   25  C   UNL     1     -10.366  12.412  65.949  1.00  0.00    -0.282 A  
ENDBRANCH  18  19
ENDBRANCH  17  18
BRANCH  17  26
HETATM   26  C   UNL     1     -10.239  16.155  66.356  1.00  0.00    -0.306 C  
HETATM   27  C   UNL     1     -10.620  17.644  66.257  1.00  0.00    -0.215 C  
HETATM   28  C   UNL     1      -8.746  16.055  66.798  1.00  0.00    -0.287 C  
HETATM   29  C   UNL     1      -8.084  19.131  66.469  1.00  0.00    -0.298 C  
HETATM   30  C   UNL     1     -10.182  18.440  67.475  1.00  0.00    -0.374 C  
HETATM   31  N   UNL     1      -8.729  18.461  67.600  1.00  0.00    -0.258 NA 
HETATM   32  C   UNL     1      -8.246  17.098  67.807  1.00  0.00    -0.197 C  
ENDBRANCH  17  26
ENDBRANCH  15  17
ENDBRANCH  13  15
ENDBRANCH  12  13
ENDBRANCH   9  12
ENDBRANCH   5   6
ENDBRANCH   4   5
TORSDOF 9
ENDMDL
MODEL      116
REMARK 921   NORMALIZED FREE ENERGY PREDICTED BY IDOCK:   -5.61 KCAL/MOL
REMARK 922        TOTAL FREE ENERGY PREDICTED BY IDOCK:  -10.02 KCAL/MOL
REMARK 923 INTER-LIGAND FREE ENERGY PREDICTED BY IDOCK:   -9.14 KCAL/MOL
REMARK 924 INTRA-LIGAND FREE ENERGY PREDICTED BY IDOCK:   -0.88 KCAL/MOL
REMARK 927      BINDING AFFINITY PREDICTED BY RF-SCORE:    0.00 PKD
ROOT
HETATM    1  C   UNL     1     -10.120   6.123  71.017  1.00  0.00    -0.231 C  
HETATM    2  C   UNL     1     -10.950   6.251  72.295  1.00  0.00    -0.297 C  
HETATM    3  C   UNL     1     -10.068   6.026  73.522  1.00  0.00    -0.207 C  
HETATM    4  C   UNL     1     -11.717   7.586  72.353  1.00  0.00    -0.290 C  
ENDROOT
BRANCH   4   5
HETATM    5  O   UNL     1     -10.851   8.729  72.384  1.00  0.00    -0.320 OA 
BRANCH   5   6
HETATM    6  C   UNL     1     -10.992   9.591  71.323  1.00  0.00    -0.370 A  
HETATM    7  C   UNL     1     -12.136  10.347  71.052  1.00  0.00    -0.488 A  
HETATM    8  C   UNL     1     -12.274  11.017  69.820  1.00  0.00    -0.388 A  
HETATM    9  C   UNL     1     -11.255  10.962  68.862  1.00  0.00    -0.327 A  
HETATM   10  C   UNL     1     -10.044  10.347  69.220  1.00  0.00    -0.248 A  
HETATM   11  C   UNL     1      -9.916   9.667  70.439  1.00  0.00    -0.330 A  
BRANCH   9  12
HETATM   12  C   UNL     1     -11.518  11.318  67.413  1.00  0.00    -0.221 C  
BRANCH  12  13
HETATM   13  N   UNL     1     -11.929  12.680  67.155  1.00  0.00    -0.332 N  
HETATM   14  H   UNL     1     -12.129  13.318  67.925  1.00  0.00     0.000 HD 
BRANCH  13  15
HETATM   15  C   UNL     1     -12.046  13.099  65.852  1.00  0.00    -0.444 C  
HETATM   16  O   UNL     1     -13.136  13.061  65.276  1.00  0.00    -0.689 OA 
BRANCH  15  17
HETATM   17  N   UNL     1     -10.890  13.594  65.235  1.00  0.00    -0.309 N  
BRANCH  17  18
HETATM   18  C   UNL     1     -10.507  12.882  63.983  1.00  0.00    -0.368 C  
BRANCH  18  19
HETATM   19  C   UNL     1      -9.808  11.533  64.173  1.00  0.00    -0.288 A  
HETATM   20  C   UNL     1      -8.042   9.376  64.202  1.00  0.00    -0.145 A  
HETATM   21  C   UNL     1      -9.086  11.227  65.336  1.00  0.00    -0.162 A  
HETATM   22  C   UNL     1      -8.177  10.166  65.335  1.00  0.00    -0.151 A  
HETATM   23  F   UNL     1      -7.082   8.438  64.160  1.00  0.00    -0.077 F  
HETATM   24  C   UNL     1      -8.857   9.569  63.096  1.00  0.00    -0.239 A  
HETATM   25  C   UNL     1      -9.759  10.633  63.087  1.00  0.00    -0.375 A  
ENDBRANCH  18  19
ENDBRANCH  17  18
BRANCH  17  26
HETATM   26  C   UNL     1      -9.934  14.588  65.850  1.00  0.00    -0.329 C  
HETATM   27  C   UNL     1     -10.537  15.931  66.302  1.00  0.00    -0.301 C  
HETATM   28  C   UNL     1      -9.010  14.053  66.989  1.00  0.00    -0.248 C  
HETATM   29  C   UNL     1      -9.062  16.687  68.738  1.00  0.00    -0.256 C  
HETATM   30  C   UNL     1     -11.104  15.871  67.712  1.00  0.00    -0.288 C  
HETATM   31  N   UNL     1     -10.055  15.613  68.693  1.00  0.00    -0.205 NA 
HETATM   32  C   UNL     1      -9.466  14.302  68.432  1.00  0.00    -0.213 C  
ENDBRANCH  17  26
ENDBRANCH  15  17
ENDBRANCH  13  15
ENDBRANCH  12  13
ENDBRANCH   9  12
ENDBRANCH   5   6
ENDBRANCH   4   5
TORSDOF 9
ENDMDL
MODEL      117
REMARK 921   NORMALIZED FREE ENERGY PREDICTED BY IDOCK:   -5.61 KCAL/MOL
REMARK 922        TOTAL FREE ENERGY PREDICTED BY IDOCK:  -10.02 KCAL/MOL
REMARK 923 INTER-LIGAND FREE ENERGY PREDICTED BY IDOCK:   -8.22 KCAL/MOL
REMARK 924 INTRA-LIGAND FREE ENERGY PREDICTED BY IDOCK:   -1.80 KCAL/MOL
REMARK 927      BINDING AFFINITY PREDICTED BY RF-SCORE:    0.00 PKD
ROOT
HETATM    1  C   UNL     1      -8.881   3.334  66.288  1.00  0.00    -0.140 C  
HETATM    2  C   UNL     1      -8.962   4.241  65.060  1.00  0.00    -0.141 C  
HETATM    3  C   UNL     1     -10.333   4.113  64.399  1.00  0.00    -0.156 C  
HETATM    4  C   UNL     1      -8.600   5.701  65.395  1.00  0.00    -0.150 C  
ENDROOT
BRANCH   4   5
HETATM    5  O   UNL     1      -9.505   6.301  66.333  1.00  0.00    -0.156 OA 
BRANCH   5   6
HETATM    6  C   UNL     1      -8.993   7.370  67.028  1.00  0.00    -0.130 A  
HETATM    7  C   UNL     1      -9.612   7.986  68.120  1.00  0.00    -0.165 A  
HETATM    8  C   UNL     1      -9.131   9.214  68.615  1.00  0.00    -0.136 A  
HETATM    9  C   UNL     1      -8.008   9.822  68.043  1.00  0.00    -0.097 A  
HETATM   10  C   UNL     1      -7.296   9.105  67.065  1.00  0.00    -0.090 A  
HETATM   11  C   UNL     1      -7.787   7.893  66.563  1.00  0.00    -0.098 A  
BRANCH   9  12
HETATM   12  C   UNL     1      -7.705  11.288  68.269  1.00  0.00    -0.122 C  
BRANCH  12  13
HETATM   13  N   UNL     1      -8.794  12.094  68.777  1.00  0.00    -0.381 N  
HETATM   14  H   UNL     1      -9.123  11.978  69.736  1.00  0.00     0.000 HD 
BRANCH  13  15
HETATM   15  C   UNL     1      -9.375  13.018  67.945  1.00  0.00    -0.212 C  
HETATM   16  O   UNL     1      -8.683  13.706  67.190  1.00  0.00    -0.210 OA 
BRANCH  15  17
HETATM   17  N   UNL     1     -10.772  13.112  67.973  1.00  0.00    -0.227 N  
BRANCH  17  18
HETATM   18  C   UNL     1     -11.328  13.661  69.242  1.00  0.00    -0.269 C  
BRANCH  18  19
HETATM   19  C   UNL     1     -12.125  12.673  70.100  1.00  0.00    -0.368 A  
HETATM   20  C   UNL     1     -12.991  10.780  71.953  1.00  0.00    -0.419 A  
HETATM   21  C   UNL     1     -12.815  13.077  71.252  1.00  0.00    -0.370 A  
HETATM   22  C   UNL     1     -13.217  12.129  72.194  1.00  0.00    -0.438 A  
HETATM   23  F   UNL     1     -13.266   9.881  72.913  1.00  0.00    -0.216 F  
HETATM   24  C   UNL     1     -12.448  10.351  70.751  1.00  0.00    -0.461 A  
HETATM   25  C   UNL     1     -12.035  11.295  69.811  1.00  0.00    -0.431 A  
ENDBRANCH  18  19
ENDBRANCH  17  18
BRANCH  17  26
HETATM   26  C   UNL     1     -11.704  12.507  66.951  1.00  0.00    -0.377 C  
HETATM   27  C   UNL     1     -12.469  13.494  66.049  1.00  0.00    -0.456 C  
HETATM   28  C   UNL     1     -11.114  11.374  66.053  1.00  0.00    -0.235 C  
HETATM   29  C   UNL     1     -12.659  12.185  63.416  1.00  0.00    -0.463 C  
HETATM   30  C   UNL     1     -11.671  13.900  64.821  1.00  0.00    -0.386 C  
HETATM   31  N   UNL     1     -11.422  12.756  63.950  1.00  0.00    -0.411 NA 
HETATM   32  C   UNL     1     -10.604  11.779  64.664  1.00  0.00    -0.308 C  
ENDBRANCH  17  26
ENDBRANCH  15  17
ENDBRANCH  13  15
ENDBRANCH  12  13
ENDBRANCH   9  12
ENDBRANCH   5   6
ENDBRANCH   4   5
TORSDOF 9
ENDMDL
MODEL      118
REMARK 921   NORMALIZED FREE ENERGY PREDICTED BY IDOCK:   -5.60 KCAL/MOL
REMARK 922        TOTAL FREE ENERGY PREDICTED BY IDOCK:  -10.01 KCAL/MOL
REMARK 923 INTER-LIGAND FREE ENERGY PREDICTED BY IDOCK:   -8.52 KCAL/MOL
REMARK 924 INTRA-LIGAND FREE ENERGY PREDICTED BY IDOCK:   -1.48 KCAL/MOL
REMARK 927      BINDING AFFINITY PREDICTED BY RF-SCORE:    0.00 PKD
ROOT
HETATM    1  C   UNL     1     -10.387  20.317  65.570  1.00  0.00    -0.112 C  
HETATM    2  C   UNL     1     -10.019  20.035  67.027  1.00  0.00    -0.582 C  
HETATM    3  C   UNL     1     -10.817  18.845  67.553  1.00  0.00    -0.440 C  
HETATM    4  C   UNL     1      -8.499  19.860  67.215  1.00  0.00    -0.324 C  
ENDROOT
BRANCH   4   5
HETATM    5  O   UNL     1      -7.973  18.734  66.498  1.00  0.00    -0.260 OA 
BRANCH   5   6
HETATM    6  C   UNL     1      -7.974  17.551  67.198  1.00  0.00    -0.209 A  
HETATM    7  C   UNL     1      -7.582  17.409  68.532  1.00  0.00    -0.254 A  
HETATM    8  C   UNL     1      -7.392  16.128  69.088  1.00  0.00    -0.215 A  
HETATM    9  C   UNL     1      -7.625  14.979  68.325  1.00  0.00    -0.111 A  
HETATM   10  C   UNL     1      -8.187  15.138  67.046  1.00  0.00    -0.262 A  
HETATM   11  C   UNL     1      -8.357  16.412  66.490  1.00  0.00    -0.337 A  
BRANCH   9  12
HETATM   12  C   UNL     1      -7.067  13.633  68.739  1.00  0.00    -0.103 C  
BRANCH  12  13
HETATM   13  N   UNL     1      -8.034  12.582  68.964  1.00  0.00    -0.327 N  
HETATM   14  H   UNL     1      -8.700  12.644  69.734  1.00  0.00     0.000 HD 
BRANCH  13  15
HETATM   15  C   UNL     1      -8.039  11.498  68.121  1.00  0.00    -0.146 C  
HETATM   16  O   UNL     1      -7.082  11.280  67.374  1.00  0.00    -0.096 OA 
BRANCH  15  17
HETATM   17  N   UNL     1      -9.152  10.650  68.178  1.00  0.00    -0.143 N  
BRANCH  17  18
HETATM   18  C   UNL     1      -8.956   9.430  69.011  1.00  0.00    -0.141 C  
BRANCH  18  19
HETATM   19  C   UNL     1     -10.227   8.828  69.617  1.00  0.00    -0.210 A  
HETATM   20  C   UNL     1     -12.112   7.426  71.118  1.00  0.00    -0.325 A  
HETATM   21  C   UNL     1     -10.946   9.476  70.632  1.00  0.00    -0.370 A  
HETATM   22  C   UNL     1     -11.865   8.762  71.404  1.00  0.00    -0.369 A  
HETATM   23  F   UNL     1     -12.900   6.709  71.936  1.00  0.00    -0.381 F  
HETATM   24  C   UNL     1     -11.524   6.809  70.024  1.00  0.00    -0.390 A  
HETATM   25  C   UNL     1     -10.598   7.516  69.255  1.00  0.00    -0.215 A  
ENDBRANCH  18  19
ENDBRANCH  17  18
BRANCH  17  26
HETATM   26  C   UNL     1     -10.381  10.769  67.309  1.00  0.00    -0.220 C  
HETATM   27  C   UNL     1     -11.433  11.806  67.746  1.00  0.00    -0.381 C  
HETATM   28  C   UNL     1     -10.138  10.929  65.776  1.00  0.00    -0.308 C  
HETATM   29  C   UNL     1     -12.540  12.919  65.253  1.00  0.00    -0.439 C  
HETATM   30  C   UNL     1     -11.137  13.198  67.213  1.00  0.00    -0.279 C  
HETATM   31  N   UNL     1     -11.202  13.232  65.756  1.00  0.00    -0.292 NA 
HETATM   32  C   UNL     1     -10.168  12.355  65.210  1.00  0.00    -0.282 C  
ENDBRANCH  17  26
ENDBRANCH  15  17
ENDBRANCH  13  15
ENDBRANCH  12  13
ENDBRANCH   9  12
ENDBRANCH   5   6
ENDBRANCH   4   5
TORSDOF 9
ENDMDL
MODEL      119
REMARK 921   NORMALIZED FREE ENERGY PREDICTED BY IDOCK:   -5.59 KCAL/MOL
REMARK 922        TOTAL FREE ENERGY PREDICTED BY IDOCK:  -10.00 KCAL/MOL
REMARK 923 INTER-LIGAND FREE ENERGY PREDICTED BY IDOCK:   -7.69 KCAL/MOL
REMARK 924 INTRA-LIGAND FREE ENERGY PREDICTED BY IDOCK:   -2.31 KCAL/MOL
REMARK 927      BINDING AFFINITY PREDICTED BY RF-SCORE:    0.00 PKD
ROOT
HETATM    1  C   UNL     1     -12.095  13.448  64.560  1.00  0.00    -0.457 C  
HETATM    2  C   UNL     1     -10.772  14.137  64.900  1.00  0.00    -0.444 C  
HETATM    3  C   UNL     1     -10.883  15.641  64.663  1.00  0.00    -0.266 C  
HETATM    4  C   UNL     1     -10.292  13.794  66.323  1.00  0.00    -0.294 C  
ENDROOT
BRANCH   4   5
HETATM    5  O   UNL     1     -11.194  14.249  67.342  1.00  0.00    -0.293 OA 
BRANCH   5   6
HETATM    6  C   UNL     1     -11.599  13.282  68.231  1.00  0.00    -0.334 A  
HETATM    7  C   UNL     1     -11.999  13.522  69.549  1.00  0.00    -0.390 A  
HETATM    8  C   UNL     1     -12.168  12.452  70.450  1.00  0.00    -0.370 A  
HETATM    9  C   UNL     1     -11.970  11.131  70.032  1.00  0.00    -0.447 A  
HETATM   10  C   UNL     1     -11.742  10.898  68.665  1.00  0.00    -0.334 A  
HETATM   11  C   UNL     1     -11.557  11.965  67.776  1.00  0.00    -0.393 A  
BRANCH   9  12
HETATM   12  C   UNL     1     -11.754  10.014  71.032  1.00  0.00    -0.392 C  
BRANCH  12  13
HETATM   13  N   UNL     1     -11.344   8.739  70.486  1.00  0.00    -0.322 N  
HETATM   14  H   UNL     1     -11.849   8.322  69.704  1.00  0.00     0.000 HD 
BRANCH  13  15
HETATM   15  C   UNL     1     -10.264   8.100  71.042  1.00  0.00    -0.188 C  
HETATM   16  O   UNL     1     -10.054   8.162  72.255  1.00  0.00    -0.219 OA 
BRANCH  15  17
HETATM   17  N   UNL     1      -9.447   7.359  70.178  1.00  0.00    -0.165 N  
BRANCH  17  18
HETATM   18  C   UNL     1      -8.104   7.958  69.934  1.00  0.00    -0.118 C  
BRANCH  18  19
HETATM   19  C   UNL     1      -8.076   9.167  68.994  1.00  0.00    -0.102 A  
HETATM   20  C   UNL     1      -7.419  11.446  67.530  1.00  0.00    -0.113 A  
HETATM   21  C   UNL     1      -7.690   9.056  67.651  1.00  0.00    -0.097 A  
HETATM   22  C   UNL     1      -7.329  10.196  66.931  1.00  0.00    -0.092 A  
HETATM   23  F   UNL     1      -6.955  12.526  66.880  1.00  0.00    -0.124 F  
HETATM   24  C   UNL     1      -7.943  11.589  68.806  1.00  0.00    -0.107 A  
HETATM   25  C   UNL     1      -8.296  10.452  69.533  1.00  0.00    -0.126 A  
ENDBRANCH  18  19
ENDBRANCH  17  18
BRANCH  17  26
HETATM   26  C   UNL     1      -9.903   6.187  69.342  1.00  0.00    -0.157 C  
HETATM   27  C   UNL     1     -11.053   6.455  68.353  1.00  0.00    -0.374 C  
HETATM   28  C   UNL     1      -8.789   5.385  68.599  1.00  0.00    -0.107 C  
HETATM   29  C   UNL     1     -10.476   4.792  65.990  1.00  0.00    -0.292 C  
HETATM   30  C   UNL     1     -10.561   6.989  67.018  1.00  0.00    -0.341 C  
HETATM   31  N   UNL     1      -9.732   6.007  66.328  1.00  0.00    -0.122 NA 
HETATM   32  C   UNL     1      -8.538   5.740  67.127  1.00  0.00    -0.109 C  
ENDBRANCH  17  26
ENDBRANCH  15  17
ENDBRANCH  13  15
ENDBRANCH  12  13
ENDBRANCH   9  12
ENDBRANCH   5   6
ENDBRANCH   4   5
TORSDOF 9
ENDMDL
MODEL      120
REMARK 921   NORMALIZED FREE ENERGY PREDICTED BY IDOCK:   -5.57 KCAL/MOL
REMARK 922        TOTAL FREE ENERGY PREDICTED BY IDOCK:   -9.97 KCAL/MOL
REMARK 923 INTER-LIGAND FREE ENERGY PREDICTED BY IDOCK:   -7.73 KCAL/MOL
REMARK 924 INTRA-LIGAND FREE ENERGY PREDICTED BY IDOCK:   -2.24 KCAL/MOL
REMARK 927      BINDING AFFINITY PREDICTED BY RF-SCORE:    0.00 PKD
ROOT
HETATM    1  C   UNL     1     -12.381  12.007  63.299  1.00  0.00    -0.553 C  
HETATM    2  C   UNL     1     -10.904  12.332  63.526  1.00  0.00    -0.508 C  
HETATM    3  C   UNL     1     -10.743  13.232  64.748  1.00  0.00    -0.393 C  
HETATM    4  C   UNL     1     -10.039  11.060  63.607  1.00  0.00    -0.371 C  
ENDROOT
BRANCH   4   5
HETATM    5  O   UNL     1     -10.385  10.218  64.717  1.00  0.00    -0.277 OA 
BRANCH   5   6
HETATM    6  C   UNL     1      -9.326   9.834  65.504  1.00  0.00    -0.240 A  
HETATM    7  C   UNL     1      -9.052   8.520  65.894  1.00  0.00    -0.237 A  
HETATM    8  C   UNL     1      -8.090   8.255  66.888  1.00  0.00    -0.103 A  
HETATM    9  C   UNL     1      -7.370   9.299  67.479  1.00  0.00    -0.087 A  
HETATM   10  C   UNL     1      -7.531  10.592  66.952  1.00  0.00    -0.115 A  
HETATM   11  C   UNL     1      -8.501  10.855  65.976  1.00  0.00    -0.167 A  
BRANCH   9  12
HETATM   12  C   UNL     1      -6.640   9.108  68.791  1.00  0.00    -0.053 C  
BRANCH  12  13
HETATM   13  N   UNL     1      -7.185   8.111  69.687  1.00  0.00    -0.064 N  
HETATM   14  H   UNL     1      -7.109   7.118  69.467  1.00  0.00     0.000 HD 
BRANCH  13  15
HETATM   15  C   UNL     1      -7.807   8.528  70.837  1.00  0.00    -0.107 C  
HETATM   16  O   UNL     1      -7.316   9.424  71.527  1.00  0.00    -0.334 OA 
BRANCH  15  17
HETATM   17  N   UNL     1      -9.025   7.916  71.161  1.00  0.00    -0.136 N  
BRANCH  17  18
HETATM   18  C   UNL     1     -10.053   8.843  71.713  1.00  0.00    -0.337 C  
BRANCH  18  19
HETATM   19  C   UNL     1     -10.907   9.581  70.678  1.00  0.00    -0.371 A  
HETATM   20  C   UNL     1     -12.000  11.394  68.864  1.00  0.00    -0.304 A  
HETATM   21  C   UNL     1     -10.729   9.395  69.299  1.00  0.00    -0.228 A  
HETATM   22  C   UNL     1     -11.250  10.324  68.395  1.00  0.00    -0.284 A  
HETATM   23  F   UNL     1     -12.394  12.351  68.008  1.00  0.00    -0.311 F  
HETATM   24  C   UNL     1     -12.315  11.510  70.210  1.00  0.00    -0.355 A  
HETATM   25  C   UNL     1     -11.788  10.591  71.118  1.00  0.00    -0.391 A  
ENDBRANCH  18  19
ENDBRANCH  17  18
BRANCH  17  26
HETATM   26  C   UNL     1      -9.264   6.426  71.205  1.00  0.00    -0.156 C  
HETATM   27  C   UNL     1      -8.598   5.658  72.362  1.00  0.00    -0.121 C  
HETATM   28  C   UNL     1     -10.748   5.954  71.089  1.00  0.00    -0.328 C  
HETATM   29  C   UNL     1     -10.495   3.528  73.102  1.00  0.00    -0.172 C  
HETATM   30  C   UNL     1      -9.445   5.653  73.624  1.00  0.00    -0.138 C  
HETATM   31  N   UNL     1     -10.702   4.943  73.415  1.00  0.00    -0.238 NA 
HETATM   32  C   UNL     1     -11.485   5.642  72.399  1.00  0.00    -0.251 C  
ENDBRANCH  17  26
ENDBRANCH  15  17
ENDBRANCH  13  15
ENDBRANCH  12  13
ENDBRANCH   9  12
ENDBRANCH   5   6
ENDBRANCH   4   5
TORSDOF 9
ENDMDL
MODEL      121
REMARK 921   NORMALIZED FREE ENERGY PREDICTED BY IDOCK:   -5.56 KCAL/MOL
REMARK 922        TOTAL FREE ENERGY PREDICTED BY IDOCK:   -9.95 KCAL/MOL
REMARK 923 INTER-LIGAND FREE ENERGY PREDICTED BY IDOCK:   -8.47 KCAL/MOL
REMARK 924 INTRA-LIGAND FREE ENERGY PREDICTED BY IDOCK:   -1.48 KCAL/MOL
REMARK 927      BINDING AFFINITY PREDICTED BY RF-SCORE:    0.00 PKD
ROOT
HETATM    1  C   UNL     1     -10.653  18.997  67.311  1.00  0.00    -0.554 C  
HETATM    2  C   UNL     1      -9.747  17.791  67.057  1.00  0.00    -0.290 C  
HETATM    3  C   UNL     1      -8.714  17.662  68.175  1.00  0.00    -0.265 C  
HETATM    4  C   UNL     1     -10.555  16.497  66.844  1.00  0.00    -0.238 C  
ENDROOT
BRANCH   4   5
HETATM    5  O   UNL     1     -11.322  16.119  67.996  1.00  0.00    -0.326 OA 
BRANCH   5   6
HETATM    6  C   UNL     1     -11.560  14.771  68.117  1.00  0.00    -0.332 A  
HETATM    7  C   UNL     1     -11.611  14.071  69.326  1.00  0.00    -0.356 A  
HETATM    8  C   UNL     1     -11.624  12.663  69.337  1.00  0.00    -0.369 A  
HETATM    9  C   UNL     1     -11.619  11.942  68.138  1.00  0.00    -0.400 A  
HETATM   10  C   UNL     1     -11.746  12.659  66.936  1.00  0.00    -0.453 A  
HETATM   11  C   UNL     1     -11.715  14.060  66.928  1.00  0.00    -0.435 A  
BRANCH   9  12
HETATM   12  C   UNL     1     -11.239  10.476  68.102  1.00  0.00    -0.293 C  
BRANCH  12  13
HETATM   13  N   UNL     1     -11.486   9.723  69.312  1.00  0.00    -0.452 N  
HETATM   14  H   UNL     1     -12.419   9.691  69.724  1.00  0.00     0.000 HD 
BRANCH  13  15
HETATM   15  C   UNL     1     -10.440   9.051  69.896  1.00  0.00    -0.215 C  
HETATM   16  O   UNL     1      -9.889   9.502  70.903  1.00  0.00    -0.275 OA 
BRANCH  15  17
HETATM   17  N   UNL     1     -10.063   7.832  69.319  1.00  0.00    -0.193 N  
BRANCH  17  18
HETATM   18  C   UNL     1     -10.989   6.700  69.606  1.00  0.00    -0.313 C  
BRANCH  18  19
HETATM   19  C   UNL     1     -10.717   5.933  70.904  1.00  0.00    -0.338 A  
HETATM   20  C   UNL     1     -10.750   4.189  73.078  1.00  0.00    -0.173 A  
HETATM   21  C   UNL     1      -9.825   4.852  70.955  1.00  0.00    -0.266 A  
HETATM   22  C   UNL     1      -9.868   3.961  72.030  1.00  0.00    -0.245 A  
HETATM   23  F   UNL     1     -10.878   3.268  74.047  1.00  0.00    -0.229 F  
HETATM   24  C   UNL     1     -11.531   5.335  73.118  1.00  0.00    -0.316 A  
HETATM   25  C   UNL     1     -11.499   6.223  72.041  1.00  0.00    -0.359 A  
ENDBRANCH  18  19
ENDBRANCH  17  18
BRANCH  17  26
HETATM   26  C   UNL     1      -8.731   7.557  68.661  1.00  0.00    -0.128 C  
HETATM   27  C   UNL     1      -8.669   6.342  67.718  1.00  0.00    -0.113 C  
HETATM   28  C   UNL     1      -8.040   8.766  67.955  1.00  0.00    -0.107 C  
HETATM   29  C   UNL     1      -6.833   7.111  65.545  1.00  0.00    -0.052 C  
HETATM   30  C   UNL     1      -9.099   6.680  66.301  1.00  0.00    -0.145 C  
HETATM   31  N   UNL     1      -8.190   7.642  65.687  1.00  0.00    -0.130 NA 
HETATM   32  C   UNL     1      -8.237   8.894  66.439  1.00  0.00    -0.115 C  
ENDBRANCH  17  26
ENDBRANCH  15  17
ENDBRANCH  13  15
ENDBRANCH  12  13
ENDBRANCH   9  12
ENDBRANCH   5   6
ENDBRANCH   4   5
TORSDOF 9
ENDMDL
MODEL      122
REMARK 921   NORMALIZED FREE ENERGY PREDICTED BY IDOCK:   -5.55 KCAL/MOL
REMARK 922        TOTAL FREE ENERGY PREDICTED BY IDOCK:   -9.94 KCAL/MOL
REMARK 923 INTER-LIGAND FREE ENERGY PREDICTED BY IDOCK:   -7.48 KCAL/MOL
REMARK 924 INTRA-LIGAND FREE ENERGY PREDICTED BY IDOCK:   -2.46 KCAL/MOL
REMARK 927      BINDING AFFINITY PREDICTED BY RF-SCORE:    0.00 PKD
ROOT
HETATM    1  C   UNL     1      -9.693  13.662  66.784  1.00  0.00    -0.275 C  
HETATM    2  C   UNL     1     -11.099  14.045  67.249  1.00  0.00    -0.314 C  
HETATM    3  C   UNL     1     -11.934  14.525  66.065  1.00  0.00    -0.319 C  
HETATM    4  C   UNL     1     -11.778  12.906  68.032  1.00  0.00    -0.356 C  
ENDROOT
BRANCH   4   5
HETATM    5  O   UNL     1     -11.983  11.727  67.240  1.00  0.00    -0.618 OA 
BRANCH   5   6
HETATM    6  C   UNL     1     -11.161  10.670  67.551  1.00  0.00    -0.300 A  
HETATM    7  C   UNL     1     -10.898  10.214  68.846  1.00  0.00    -0.256 A  
HETATM    8  C   UNL     1      -9.866   9.284  69.080  1.00  0.00    -0.167 A  
HETATM    9  C   UNL     1      -9.109   8.778  68.018  1.00  0.00    -0.144 A  
HETATM   10  C   UNL     1      -9.501   9.112  66.710  1.00  0.00    -0.230 A  
HETATM   11  C   UNL     1     -10.516  10.050  66.481  1.00  0.00    -0.223 A  
BRANCH   9  12
HETATM   12  C   UNL     1      -7.771   8.108  68.254  1.00  0.00    -0.114 C  
BRANCH  12  13
HETATM   13  N   UNL     1      -7.722   7.143  69.330  1.00  0.00    -0.106 N  
HETATM   14  H   UNL     1      -7.555   7.444  70.290  1.00  0.00     0.000 HD 
BRANCH  13  15
HETATM   15  C   UNL     1      -7.902   5.815  69.034  1.00  0.00    -0.094 C  
HETATM   16  O   UNL     1      -6.941   5.105  68.727  1.00  0.00    -0.050 OA 
BRANCH  15  17
HETATM   17  N   UNL     1      -9.204   5.310  69.132  1.00  0.00    -0.114 N  
BRANCH  17  18
HETATM   18  C   UNL     1      -9.729   5.224  70.525  1.00  0.00    -0.190 C  
BRANCH  18  19
HETATM   19  C   UNL     1     -10.549   6.428  71.001  1.00  0.00    -0.282 A  
HETATM   20  C   UNL     1     -12.331   8.168  72.251  1.00  0.00    -0.323 A  
HETATM   21  C   UNL     1     -10.110   7.261  72.040  1.00  0.00    -0.207 A  
HETATM   22  C   UNL     1     -11.014   8.107  72.687  1.00  0.00    -0.440 A  
HETATM   23  F   UNL     1     -13.226   8.886  72.949  1.00  0.00    -0.465 F  
HETATM   24  C   UNL     1     -12.746   7.466  71.129  1.00  0.00    -0.318 A  
HETATM   25  C   UNL     1     -11.849   6.612  70.486  1.00  0.00    -0.430 A  
ENDBRANCH  18  19
ENDBRANCH  17  18
BRANCH  17  26
HETATM   26  C   UNL     1      -9.973   4.664  68.005  1.00  0.00    -0.066 C  
HETATM   27  C   UNL     1     -10.301   5.560  66.796  1.00  0.00    -0.321 C  
HETATM   28  C   UNL     1      -9.422   3.302  67.475  1.00  0.00    -0.209 C  
HETATM   29  C   UNL     1     -10.125   3.807  64.433  1.00  0.00    -0.218 C  
HETATM   30  C   UNL     1      -9.177   5.595  65.774  1.00  0.00    -0.096 C  
HETATM   31  N   UNL     1      -8.959   4.280  65.181  1.00  0.00    -0.132 NA 
HETATM   32  C   UNL     1      -8.535   3.348  66.224  1.00  0.00    -0.110 C  
ENDBRANCH  17  26
ENDBRANCH  15  17
ENDBRANCH  13  15
ENDBRANCH  12  13
ENDBRANCH   9  12
ENDBRANCH   5   6
ENDBRANCH   4   5
TORSDOF 9
ENDMDL
MODEL      123
REMARK 921   NORMALIZED FREE ENERGY PREDICTED BY IDOCK:   -5.54 KCAL/MOL
REMARK 922        TOTAL FREE ENERGY PREDICTED BY IDOCK:   -9.92 KCAL/MOL
REMARK 923 INTER-LIGAND FREE ENERGY PREDICTED BY IDOCK:   -8.18 KCAL/MOL
REMARK 924 INTRA-LIGAND FREE ENERGY PREDICTED BY IDOCK:   -1.74 KCAL/MOL
REMARK 927      BINDING AFFINITY PREDICTED BY RF-SCORE:    0.00 PKD
ROOT
HETATM    1  C   UNL     1     -10.045  20.376  66.943  1.00  0.00    -0.503 C  
HETATM    2  C   UNL     1     -10.481  18.954  67.302  1.00  0.00    -0.510 C  
HETATM    3  C   UNL     1     -10.296  18.027  66.103  1.00  0.00    -0.368 C  
HETATM    4  C   UNL     1      -9.771  18.436  68.568  1.00  0.00    -0.361 C  
ENDROOT
BRANCH   4   5
HETATM    5  O   UNL     1      -8.349  18.336  68.411  1.00  0.00    -0.293 OA 
BRANCH   5   6
HETATM    6  C   UNL     1      -7.849  17.057  68.467  1.00  0.00    -0.251 A  
HETATM    7  C   UNL     1      -6.638  16.644  67.902  1.00  0.00    -0.156 A  
HETATM    8  C   UNL     1      -6.325  15.274  67.806  1.00  0.00    -0.181 A  
HETATM    9  C   UNL     1      -7.205  14.306  68.302  1.00  0.00    -0.117 A  
HETATM   10  C   UNL     1      -8.330  14.743  69.022  1.00  0.00    -0.144 A  
HETATM   11  C   UNL     1      -8.648  16.106  69.100  1.00  0.00    -0.235 A  
BRANCH   9  12
HETATM   12  C   UNL     1      -7.103  12.857  67.874  1.00  0.00    -0.127 C  
BRANCH  12  13
HETATM   13  N   UNL     1      -7.668  12.530  66.584  1.00  0.00    -0.366 N  
HETATM   14  H   UNL     1      -7.707  13.228  65.842  1.00  0.00     0.000 HD 
BRANCH  13  15
HETATM   15  C   UNL     1      -8.150  11.261  66.377  1.00  0.00    -0.138 C  
HETATM   16  O   UNL     1      -7.495  10.438  65.734  1.00  0.00    -0.138 OA 
BRANCH  15  17
HETATM   17  N   UNL     1      -9.387  10.947  66.954  1.00  0.00    -0.167 N  
BRANCH  17  18
HETATM   18  C   UNL     1      -9.324   9.912  68.024  1.00  0.00    -0.130 C  
BRANCH  18  19
HETATM   19  C   UNL     1      -9.459   8.461  67.554  1.00  0.00    -0.182 A  
HETATM   20  C   UNL     1      -9.859   5.711  67.330  1.00  0.00    -0.146 A  
HETATM   21  C   UNL     1     -10.654   7.962  67.014  1.00  0.00    -0.381 A  
HETATM   22  C   UNL     1     -10.864   6.584  66.935  1.00  0.00    -0.427 A  
HETATM   23  F   UNL     1     -10.107   4.392  67.370  1.00  0.00    -0.218 F  
HETATM   24  C   UNL     1      -8.616   6.184  67.722  1.00  0.00    -0.114 A  
HETATM   25  C   UNL     1      -8.405   7.561  67.813  1.00  0.00    -0.119 A  
ENDBRANCH  18  19
ENDBRANCH  17  18
BRANCH  17  26
HETATM   26  C   UNL     1     -10.731  11.392  66.426  1.00  0.00    -0.275 C  
HETATM   27  C   UNL     1     -11.458  12.484  67.231  1.00  0.00    -0.416 C  
HETATM   28  C   UNL     1     -10.794  11.769  64.912  1.00  0.00    -0.353 C  
HETATM   29  C   UNL     1     -12.848  14.152  65.239  1.00  0.00    -0.344 C  
HETATM   30  C   UNL     1     -11.033  13.887  66.828  1.00  0.00    -0.299 C  
HETATM   31  N   UNL     1     -11.399  14.174  65.446  1.00  0.00    -0.313 NA 
HETATM   32  C   UNL     1     -10.683  13.259  64.560  1.00  0.00    -0.411 C  
ENDBRANCH  17  26
ENDBRANCH  15  17
ENDBRANCH  13  15
ENDBRANCH  12  13
ENDBRANCH   9  12
ENDBRANCH   5   6
ENDBRANCH   4   5
TORSDOF 9
ENDMDL
MODEL      124
REMARK 921   NORMALIZED FREE ENERGY PREDICTED BY IDOCK:   -5.53 KCAL/MOL
REMARK 922        TOTAL FREE ENERGY PREDICTED BY IDOCK:   -9.91 KCAL/MOL
REMARK 923 INTER-LIGAND FREE ENERGY PREDICTED BY IDOCK:   -7.27 KCAL/MOL
REMARK 924 INTRA-LIGAND FREE ENERGY PREDICTED BY IDOCK:   -2.64 KCAL/MOL
REMARK 927      BINDING AFFINITY PREDICTED BY RF-SCORE:    0.00 PKD
ROOT
HETATM    1  C   UNL     1     -12.212  12.489  63.514  1.00  0.00    -0.652 C  
HETATM    2  C   UNL     1     -11.422  13.721  63.962  1.00  0.00    -0.244 C  
HETATM    3  C   UNL     1     -12.375  14.810  64.450  1.00  0.00    -0.389 C  
HETATM    4  C   UNL     1     -10.342  13.367  65.001  1.00  0.00    -0.347 C  
ENDROOT
BRANCH   4   5
HETATM    5  O   UNL     1     -10.888  12.842  66.220  1.00  0.00    -0.271 OA 
BRANCH   5   6
HETATM    6  C   UNL     1     -10.572  11.530  66.478  1.00  0.00    -0.258 A  
HETATM    7  C   UNL     1      -9.797  10.714  65.648  1.00  0.00    -0.307 A  
HETATM    8  C   UNL     1      -9.725   9.326  65.877  1.00  0.00    -0.355 A  
HETATM    9  C   UNL     1     -10.401   8.746  66.956  1.00  0.00    -0.353 A  
HETATM   10  C   UNL     1     -11.028   9.601  67.879  1.00  0.00    -0.205 A  
HETATM   11  C   UNL     1     -11.113  10.979  67.639  1.00  0.00    -0.363 A  
BRANCH   9  12
HETATM   12  C   UNL     1     -10.673   7.257  67.006  1.00  0.00    -0.336 C  
BRANCH  12  13
HETATM   13  N   UNL     1      -9.565   6.393  66.663  1.00  0.00    -0.157 N  
HETATM   14  H   UNL     1      -8.939   6.631  65.894  1.00  0.00     0.000 HD 
BRANCH  13  15
HETATM   15  C   UNL     1      -9.371   5.247  67.393  1.00  0.00    -0.116 C  
HETATM   16  O   UNL     1      -9.295   4.151  66.832  1.00  0.00    -0.147 OA 
BRANCH  15  17
HETATM   17  N   UNL     1      -9.234   5.389  68.780  1.00  0.00    -0.120 N  
BRANCH  17  18
HETATM   18  C   UNL     1      -7.875   5.808  69.225  1.00  0.00    -0.090 C  
BRANCH  18  19
HETATM   19  C   UNL     1      -7.655   7.319  69.354  1.00  0.00    -0.097 A  
HETATM   20  C   UNL     1      -7.748  10.097  69.151  1.00  0.00    -0.112 A  
HETATM   21  C   UNL     1      -8.284   8.079  70.351  1.00  0.00    -0.118 A  
HETATM   22  C   UNL     1      -8.358   9.468  70.228  1.00  0.00    -0.221 A  
HETATM   23  F   UNL     1      -7.925  11.416  68.968  1.00  0.00    -0.138 F  
HETATM   24  C   UNL     1      -6.992   9.377  68.238  1.00  0.00    -0.071 A  
HETATM   25  C   UNL     1      -6.924   7.988  68.351  1.00  0.00    -0.072 A  
ENDBRANCH  18  19
ENDBRANCH  17  18
BRANCH  17  26
HETATM   26  C   UNL     1     -10.248   4.939  69.804  1.00  0.00    -0.214 C  
HETATM   27  C   UNL     1      -9.713   4.094  70.975  1.00  0.00    -0.260 C  
HETATM   28  C   UNL     1     -11.191   6.041  70.382  1.00  0.00    -0.380 C  
HETATM   29  C   UNL     1     -11.301   4.891  73.326  1.00  0.00    -0.327 C  
HETATM   30  C   UNL     1      -9.194   4.947  72.122  1.00  0.00    -0.135 C  
HETATM   31  N   UNL     1     -10.266   5.733  72.723  1.00  0.00    -0.180 NA 
HETATM   32  C   UNL     1     -10.796   6.663  71.728  1.00  0.00    -0.233 C  
ENDBRANCH  17  26
ENDBRANCH  15  17
ENDBRANCH  13  15
ENDBRANCH  12  13
ENDBRANCH   9  12
ENDBRANCH   5   6
ENDBRANCH   4   5
TORSDOF 9
ENDMDL
MODEL      125
REMARK 921   NORMALIZED FREE ENERGY PREDICTED BY IDOCK:   -5.53 KCAL/MOL
REMARK 922        TOTAL FREE ENERGY PREDICTED BY IDOCK:   -9.90 KCAL/MOL
REMARK 923 INTER-LIGAND FREE ENERGY PREDICTED BY IDOCK:   -8.83 KCAL/MOL
REMARK 924 INTRA-LIGAND FREE ENERGY PREDICTED BY IDOCK:   -1.08 KCAL/MOL
REMARK 927      BINDING AFFINITY PREDICTED BY RF-SCORE:    0.00 PKD
ROOT
HETATM    1  C   UNL     1      -9.307   3.024  69.975  1.00  0.00    -0.223 C  
HETATM    2  C   UNL     1      -8.812   4.407  69.552  1.00  0.00    -0.133 C  
HETATM    3  C   UNL     1      -9.850   5.091  68.664  1.00  0.00    -0.227 C  
HETATM    4  C   UNL     1      -8.406   5.270  70.762  1.00  0.00    -0.115 C  
ENDROOT
BRANCH   4   5
HETATM    5  O   UNL     1      -9.502   5.548  71.645  1.00  0.00    -0.145 OA 
BRANCH   5   6
HETATM    6  C   UNL     1     -10.095   6.774  71.463  1.00  0.00    -0.181 A  
HETATM    7  C   UNL     1     -11.472   7.014  71.512  1.00  0.00    -0.306 A  
HETATM    8  C   UNL     1     -11.998   8.248  71.082  1.00  0.00    -0.290 A  
HETATM    9  C   UNL     1     -11.150   9.265  70.629  1.00  0.00    -0.335 A  
HETATM   10  C   UNL     1      -9.763   9.071  70.753  1.00  0.00    -0.306 A  
HETATM   11  C   UNL     1      -9.244   7.837  71.164  1.00  0.00    -0.158 A  
BRANCH   9  12
HETATM   12  C   UNL     1     -11.677  10.421  69.806  1.00  0.00    -0.237 C  
BRANCH  12  13
HETATM   13  N   UNL     1     -10.935  11.659  69.895  1.00  0.00    -0.454 N  
HETATM   14  H   UNL     1     -10.922  12.196  70.762  1.00  0.00     0.000 HD 
BRANCH  13  15
HETATM   15  C   UNL     1     -10.250  12.099  68.790  1.00  0.00    -0.116 C  
HETATM   16  O   UNL     1      -9.345  11.418  68.301  1.00  0.00    -0.174 OA 
BRANCH  15  17
HETATM   17  N   UNL     1     -10.649  13.321  68.236  1.00  0.00    -0.244 N  
BRANCH  17  18
HETATM   18  C   UNL     1     -10.231  14.519  69.019  1.00  0.00    -0.206 C  
BRANCH  18  19
HETATM   19  C   UNL     1     -11.301  15.117  69.937  1.00  0.00    -0.309 A  
HETATM   20  C   UNL     1     -13.208  15.620  71.908  1.00  0.00    -0.453 A  
HETATM   21  C   UNL     1     -10.969  15.889  71.060  1.00  0.00    -0.169 A  
HETATM   22  C   UNL     1     -11.918  16.110  72.061  1.00  0.00    -0.607 A  
HETATM   23  F   UNL     1     -14.081  15.726  72.923  1.00  0.00    -0.622 F  
HETATM   24  C   UNL     1     -13.596  14.987  70.736  1.00  0.00    -0.266 A  
HETATM   25  C   UNL     1     -12.649  14.755  69.737  1.00  0.00    -0.158 A  
ENDBRANCH  18  19
ENDBRANCH  17  18
BRANCH  17  26
HETATM   26  C   UNL     1     -11.621  13.481  67.091  1.00  0.00    -0.357 C  
HETATM   27  C   UNL     1     -11.315  14.604  66.083  1.00  0.00    -0.350 C  
HETATM   28  C   UNL     1     -11.979  12.187  66.294  1.00  0.00    -0.213 C  
HETATM   29  C   UNL     1     -12.158  13.569  63.456  1.00  0.00    -0.364 C  
HETATM   30  C   UNL     1     -10.366  14.159  64.983  1.00  0.00    -0.418 C  
HETATM   31  N   UNL     1     -10.962  13.110  64.162  1.00  0.00    -0.397 NA 
HETATM   32  C   UNL     1     -11.207  11.933  64.993  1.00  0.00    -0.293 C  
ENDBRANCH  17  26
ENDBRANCH  15  17
ENDBRANCH  13  15
ENDBRANCH  12  13
ENDBRANCH   9  12
ENDBRANCH   5   6
ENDBRANCH   4   5
TORSDOF 9
ENDMDL
MODEL      126
REMARK 921   NORMALIZED FREE ENERGY PREDICTED BY IDOCK:   -5.51 KCAL/MOL
REMARK 922        TOTAL FREE ENERGY PREDICTED BY IDOCK:   -9.88 KCAL/MOL
REMARK 923 INTER-LIGAND FREE ENERGY PREDICTED BY IDOCK:   -9.87 KCAL/MOL
REMARK 924 INTRA-LIGAND FREE ENERGY PREDICTED BY IDOCK:   -0.01 KCAL/MOL
REMARK 927      BINDING AFFINITY PREDICTED BY RF-SCORE:    0.00 PKD
ROOT
HETATM    1  C   UNL     1     -13.097  16.186  73.994  1.00  0.00    -0.247 C  
HETATM    2  C   UNL     1     -13.100  15.914  72.489  1.00  0.00    -0.536 C  
HETATM    3  C   UNL     1     -11.681  15.636  72.000  1.00  0.00    -0.551 C  
HETATM    4  C   UNL     1     -14.089  14.796  72.107  1.00  0.00    -0.508 C  
ENDROOT
BRANCH   4   5
HETATM    5  O   UNL     1     -13.754  13.529  72.690  1.00  0.00    -0.681 OA 
BRANCH   5   6
HETATM    6  C   UNL     1     -13.241  12.605  71.811  1.00  0.00    -0.359 A  
HETATM    7  C   UNL     1     -13.323  11.218  71.967  1.00  0.00    -0.386 A  
HETATM    8  C   UNL     1     -12.567  10.360  71.144  1.00  0.00    -0.512 A  
HETATM    9  C   UNL     1     -11.747  10.880  70.137  1.00  0.00    -0.433 A  
HETATM   10  C   UNL     1     -11.812  12.260  69.879  1.00  0.00    -0.383 A  
HETATM   11  C   UNL     1     -12.551  13.112  70.710  1.00  0.00    -0.338 A  
BRANCH   9  12
HETATM   12  C   UNL     1     -10.645  10.050  69.513  1.00  0.00    -0.244 C  
BRANCH  12  13
HETATM   13  N   UNL     1      -9.336  10.664  69.457  1.00  0.00    -0.413 N  
HETATM   14  H   UNL     1      -8.678  10.556  70.229  1.00  0.00     0.000 HD 
BRANCH  13  15
HETATM   15  C   UNL     1      -8.997  11.394  68.345  1.00  0.00    -0.172 C  
HETATM   16  O   UNL     1      -8.248  12.370  68.439  1.00  0.00    -0.164 OA 
BRANCH  15  17
HETATM   17  N   UNL     1      -9.508  10.960  67.115  1.00  0.00    -0.160 N  
BRANCH  17  18
HETATM   18  C   UNL     1     -10.867  11.481  66.794  1.00  0.00    -0.282 C  
BRANCH  18  19
HETATM   19  C   UNL     1     -10.910  12.669  65.827  1.00  0.00    -0.304 A  
HETATM   20  C   UNL     1     -11.287  15.130  64.574  1.00  0.00    -0.290 A  
HETATM   21  C   UNL     1      -9.844  13.572  65.711  1.00  0.00    -0.218 A  
HETATM   22  C   UNL     1     -10.046  14.818  65.112  1.00  0.00    -0.358 A  
HETATM   23  F   UNL     1     -11.515  16.370  64.112  1.00  0.00    -0.534 F  
HETATM   24  C   UNL     1     -12.308  14.192  64.544  1.00  0.00    -0.419 A  
HETATM   25  C   UNL     1     -12.115  12.950  65.149  1.00  0.00    -0.489 A  
ENDBRANCH  18  19
ENDBRANCH  17  18
BRANCH  17  26
HETATM   26  C   UNL     1      -8.905   9.872  66.259  1.00  0.00    -0.143 C  
HETATM   27  C   UNL     1      -9.448   9.749  64.823  1.00  0.00    -0.318 C  
HETATM   28  C   UNL     1      -7.346   9.812  66.204  1.00  0.00    -0.101 C  
HETATM   29  C   UNL     1      -7.142   8.970  63.162  1.00  0.00    -0.088 C  
HETATM   30  C   UNL     1      -8.733  10.670  63.847  1.00  0.00    -0.130 C  
HETATM   31  N   UNL     1      -7.325  10.312  63.717  1.00  0.00    -0.110 NA 
HETATM   32  C   UNL     1      -6.664  10.490  65.008  1.00  0.00     0.000 C  
ENDBRANCH  17  26
ENDBRANCH  15  17
ENDBRANCH  13  15
ENDBRANCH  12  13
ENDBRANCH   9  12
ENDBRANCH   5   6
ENDBRANCH   4   5
TORSDOF 9
ENDMDL
MODEL      127
REMARK 921   NORMALIZED FREE ENERGY PREDICTED BY IDOCK:   -5.51 KCAL/MOL
REMARK 922        TOTAL FREE ENERGY PREDICTED BY IDOCK:   -9.87 KCAL/MOL
REMARK 923 INTER-LIGAND FREE ENERGY PREDICTED BY IDOCK:   -7.62 KCAL/MOL
REMARK 924 INTRA-LIGAND FREE ENERGY PREDICTED BY IDOCK:   -2.26 KCAL/MOL
REMARK 927      BINDING AFFINITY PREDICTED BY RF-SCORE:    0.00 PKD
ROOT
HETATM    1  C   UNL     1      -8.700   8.071  73.347  1.00  0.00    -0.323 C  
HETATM    2  C   UNL     1      -8.883   6.610  73.762  1.00  0.00    -0.155 C  
HETATM    3  C   UNL     1     -10.275   6.400  74.353  1.00  0.00    -0.343 C  
HETATM    4  C   UNL     1      -8.576   5.639  72.606  1.00  0.00    -0.120 C  
ENDROOT
BRANCH   4   5
HETATM    5  O   UNL     1      -9.464   5.798  71.491  1.00  0.00    -0.149 OA 
BRANCH   5   6
HETATM    6  C   UNL     1      -8.852   6.126  70.305  1.00  0.00    -0.149 A  
HETATM    7  C   UNL     1      -7.720   6.937  70.185  1.00  0.00    -0.101 A  
HETATM    8  C   UNL     1      -7.308   7.407  68.923  1.00  0.00    -0.091 A  
HETATM    9  C   UNL     1      -8.006   7.044  67.765  1.00  0.00    -0.114 A  
HETATM   10  C   UNL     1      -9.030   6.090  67.884  1.00  0.00    -0.118 A  
HETATM   11  C   UNL     1      -9.449   5.638  69.143  1.00  0.00    -0.161 A  
BRANCH   9  12
HETATM   12  C   UNL     1      -7.849   7.822  66.475  1.00  0.00    -0.101 C  
BRANCH  12  13
HETATM   13  N   UNL     1      -9.070   8.287  65.857  1.00  0.00    -0.292 N  
HETATM   14  H   UNL     1      -9.290   8.043  64.892  1.00  0.00     0.000 HD 
BRANCH  13  15
HETATM   15  C   UNL     1      -9.928   9.066  66.595  1.00  0.00    -0.278 C  
HETATM   16  O   UNL     1     -11.029   8.631  66.942  1.00  0.00    -0.065 OA 
BRANCH  15  17
HETATM   17  N   UNL     1      -9.481  10.343  66.955  1.00  0.00    -0.166 N  
BRANCH  17  18
HETATM   18  C   UNL     1      -9.228  10.520  68.413  1.00  0.00    -0.154 C  
BRANCH  18  19
HETATM   19  C   UNL     1     -10.455  10.386  69.321  1.00  0.00    -0.257 A  
HETATM   20  C   UNL     1     -12.308  10.470  71.401  1.00  0.00    -0.372 A  
HETATM   21  C   UNL     1     -11.505  11.315  69.293  1.00  0.00    -0.369 A  
HETATM   22  C   UNL     1     -12.411  11.377  70.354  1.00  0.00    -0.345 A  
HETATM   23  F   UNL     1     -13.101  10.609  72.476  1.00  0.00    -0.435 F  
HETATM   24  C   UNL     1     -11.371   9.448  71.371  1.00  0.00    -0.451 A  
HETATM   25  C   UNL     1     -10.456   9.389  70.318  1.00  0.00    -0.298 A  
ENDBRANCH  18  19
ENDBRANCH  17  18
BRANCH  17  26
HETATM   26  C   UNL     1      -9.468  11.548  66.045  1.00  0.00    -0.229 C  
HETATM   27  C   UNL     1     -10.643  11.675  65.058  1.00  0.00    -0.342 C  
HETATM   28  C   UNL     1      -9.244  12.934  66.726  1.00  0.00    -0.230 C  
HETATM   29  C   UNL     1     -11.201  14.561  64.848  1.00  0.00    -0.391 C  
HETATM   30  C   UNL     1     -11.848  12.371  65.670  1.00  0.00    -0.409 C  
HETATM   31  N   UNL     1     -11.539  13.753  66.021  1.00  0.00    -0.334 NA 
HETATM   32  C   UNL     1     -10.494  13.766  67.043  1.00  0.00    -0.274 C  
ENDBRANCH  17  26
ENDBRANCH  15  17
ENDBRANCH  13  15
ENDBRANCH  12  13
ENDBRANCH   9  12
ENDBRANCH   5   6
ENDBRANCH   4   5
TORSDOF 9
ENDMDL
MODEL      128
REMARK 921   NORMALIZED FREE ENERGY PREDICTED BY IDOCK:   -5.49 KCAL/MOL
REMARK 922        TOTAL FREE ENERGY PREDICTED BY IDOCK:   -9.85 KCAL/MOL
REMARK 923 INTER-LIGAND FREE ENERGY PREDICTED BY IDOCK:   -8.56 KCAL/MOL
REMARK 924 INTRA-LIGAND FREE ENERGY PREDICTED BY IDOCK:   -1.29 KCAL/MOL
REMARK 927      BINDING AFFINITY PREDICTED BY RF-SCORE:    0.00 PKD
ROOT
HETATM    1  C   UNL     1      -7.944  19.650  66.068  1.00  0.00    -0.337 C  
HETATM    2  C   UNL     1      -9.233  19.291  66.810  1.00  0.00    -0.367 C  
HETATM    3  C   UNL     1     -10.447  19.808  66.041  1.00  0.00    -0.609 C  
HETATM    4  C   UNL     1      -9.322  17.784  67.116  1.00  0.00    -0.264 C  
ENDROOT
BRANCH   4   5
HETATM    5  O   UNL     1      -9.365  16.974  65.933  1.00  0.00    -0.498 OA 
BRANCH   5   6
HETATM    6  C   UNL     1      -9.939  15.736  66.099  1.00  0.00    -0.311 A  
HETATM    7  C   UNL     1      -9.892  14.983  67.276  1.00  0.00    -0.228 A  
HETATM    8  C   UNL     1     -10.301  13.635  67.278  1.00  0.00    -0.249 A  
HETATM    9  C   UNL     1     -10.790  13.038  66.111  1.00  0.00    -0.296 A  
HETATM   10  C   UNL     1     -10.995  13.855  64.987  1.00  0.00    -0.371 A  
HETATM   11  C   UNL     1     -10.571  15.191  64.983  1.00  0.00    -0.439 A  
BRANCH   9  12
HETATM   12  C   UNL     1     -10.861  11.532  65.969  1.00  0.00    -0.276 C  
BRANCH  12  13
HETATM   13  N   UNL     1     -10.841  10.771  67.199  1.00  0.00    -0.280 N  
HETATM   14  H   UNL     1     -11.625  10.814  67.849  1.00  0.00     0.000 HD 
BRANCH  13  15
HETATM   15  C   UNL     1      -9.745   9.992  67.475  1.00  0.00    -0.159 C  
HETATM   16  O   UNL     1      -8.604  10.430  67.304  1.00  0.00    -0.125 OA 
BRANCH  15  17
HETATM   17  N   UNL     1      -9.985   8.709  67.983  1.00  0.00    -0.174 N  
BRANCH  17  18
HETATM   18  C   UNL     1     -10.740   7.813  67.063  1.00  0.00    -0.246 C  
BRANCH  18  19
HETATM   19  C   UNL     1      -9.953   6.627  66.496  1.00  0.00    -0.148 A  
HETATM   20  C   UNL     1      -8.900   4.571  64.936  1.00  0.00    -0.148 A  
HETATM   21  C   UNL     1      -8.725   6.796  65.840  1.00  0.00    -0.147 A  
HETATM   22  C   UNL     1      -8.218   5.776  65.032  1.00  0.00    -0.137 A  
HETATM   23  F   UNL     1      -8.479   3.639  64.065  1.00  0.00    -0.089 F  
HETATM   24  C   UNL     1     -10.035   4.331  65.697  1.00  0.00    -0.233 A  
HETATM   25  C   UNL     1     -10.551   5.350  66.498  1.00  0.00    -0.353 A  
ENDBRANCH  18  19
ENDBRANCH  17  18
BRANCH  17  26
HETATM   26  C   UNL     1      -9.750   8.283  69.412  1.00  0.00    -0.177 C  
HETATM   27  C   UNL     1      -9.992   9.350  70.496  1.00  0.00    -0.328 C  
HETATM   28  C   UNL     1     -10.434   6.955  69.866  1.00  0.00    -0.239 C  
HETATM   29  C   UNL     1     -11.104   7.900  72.808  1.00  0.00    -0.400 C  
HETATM   30  C   UNL     1     -11.445   9.412  70.940  1.00  0.00    -0.316 C  
HETATM   31  N   UNL     1     -11.856   8.167  71.581  1.00  0.00    -0.278 NA 
HETATM   32  C   UNL     1     -11.770   7.077  70.611  1.00  0.00    -0.338 C  
ENDBRANCH  17  26
ENDBRANCH  15  17
ENDBRANCH  13  15
ENDBRANCH  12  13
ENDBRANCH   9  12
ENDBRANCH   5   6
ENDBRANCH   4   5
TORSDOF 9
ENDMDL
MODEL      129
REMARK 921   NORMALIZED FREE ENERGY PREDICTED BY IDOCK:   -5.49 KCAL/MOL
REMARK 922        TOTAL FREE ENERGY PREDICTED BY IDOCK:   -9.84 KCAL/MOL
REMARK 923 INTER-LIGAND FREE ENERGY PREDICTED BY IDOCK:   -8.24 KCAL/MOL
REMARK 924 INTRA-LIGAND FREE ENERGY PREDICTED BY IDOCK:   -1.60 KCAL/MOL
REMARK 927      BINDING AFFINITY PREDICTED BY RF-SCORE:    0.00 PKD
ROOT
HETATM    1  C   UNL     1      -9.905  20.748  67.234  1.00  0.00    -0.433 C  
HETATM    2  C   UNL     1     -10.425  19.315  67.361  1.00  0.00    -0.564 C  
HETATM    3  C   UNL     1     -10.276  18.579  66.031  1.00  0.00    -0.371 C  
HETATM    4  C   UNL     1      -9.763  18.564  68.532  1.00  0.00    -0.367 C  
ENDROOT
BRANCH   4   5
HETATM    5  O   UNL     1      -8.347  18.407  68.368  1.00  0.00    -0.294 OA 
BRANCH   5   6
HETATM    6  C   UNL     1      -7.820  17.273  68.938  1.00  0.00    -0.206 A  
HETATM    7  C   UNL     1      -6.479  17.108  69.301  1.00  0.00    -0.235 A  
HETATM    8  C   UNL     1      -5.987  15.837  69.656  1.00  0.00    -0.149 A  
HETATM    9  C   UNL     1      -6.838  14.726  69.683  1.00  0.00    -0.173 A  
HETATM   10  C   UNL     1      -8.213  14.942  69.488  1.00  0.00    -0.033 A  
HETATM   11  C   UNL     1      -8.696  16.204  69.117  1.00  0.00    -0.235 A  
BRANCH   9  12
HETATM   12  C   UNL     1      -6.290  13.314  69.667  1.00  0.00    -0.089 C  
BRANCH  12  13
HETATM   13  N   UNL     1      -7.265  12.249  69.740  1.00  0.00    -0.140 N  
HETATM   14  H   UNL     1      -8.045  12.302  70.396  1.00  0.00     0.000 HD 
BRANCH  13  15
HETATM   15  C   UNL     1      -7.121  11.164  68.911  1.00  0.00    -0.101 C  
HETATM   16  O   UNL     1      -6.132  10.433  69.000  1.00  0.00    -0.041 OA 
BRANCH  15  17
HETATM   17  N   UNL     1      -8.154  10.918  67.998  1.00  0.00    -0.115 N  
BRANCH  17  18
HETATM   18  C   UNL     1      -9.076   9.815  68.392  1.00  0.00    -0.123 C  
BRANCH  18  19
HETATM   19  C   UNL     1     -10.018  10.123  69.560  1.00  0.00    -0.257 A  
HETATM   20  C   UNL     1     -12.162  10.332  71.330  1.00  0.00    -0.395 A  
HETATM   21  C   UNL     1     -10.067   9.319  70.708  1.00  0.00    -0.358 A  
HETATM   22  C   UNL     1     -11.159   9.403  71.574  1.00  0.00    -0.446 A  
HETATM   23  F   UNL     1     -13.269  10.327  72.090  1.00  0.00    -0.497 F  
HETATM   24  C   UNL     1     -12.055  11.239  70.286  1.00  0.00    -0.459 A  
HETATM   25  C   UNL     1     -10.971  11.153  69.412  1.00  0.00    -0.298 A  
ENDBRANCH  18  19
ENDBRANCH  17  18
BRANCH  17  26
HETATM   26  C   UNL     1      -8.245  11.504  66.609  1.00  0.00    -0.156 C  
HETATM   27  C   UNL     1      -8.124  10.514  65.436  1.00  0.00    -0.141 C  
HETATM   28  C   UNL     1      -9.453  12.454  66.331  1.00  0.00    -0.240 C  
HETATM   29  C   UNL     1      -9.938  11.527  63.347  1.00  0.00    -0.417 C  
HETATM   30  C   UNL     1      -9.457   9.883  65.065  1.00  0.00    -0.280 C  
HETATM   31  N   UNL     1     -10.399  10.884  64.578  1.00  0.00    -0.345 NA 
HETATM   32  C   UNL     1     -10.681  11.838  65.648  1.00  0.00    -0.280 C  
ENDBRANCH  17  26
ENDBRANCH  15  17
ENDBRANCH  13  15
ENDBRANCH  12  13
ENDBRANCH   9  12
ENDBRANCH   5   6
ENDBRANCH   4   5
TORSDOF 9
ENDMDL
MODEL      130
REMARK 921   NORMALIZED FREE ENERGY PREDICTED BY IDOCK:   -5.48 KCAL/MOL
REMARK 922        TOTAL FREE ENERGY PREDICTED BY IDOCK:   -9.83 KCAL/MOL
REMARK 923 INTER-LIGAND FREE ENERGY PREDICTED BY IDOCK:   -8.61 KCAL/MOL
REMARK 924 INTRA-LIGAND FREE ENERGY PREDICTED BY IDOCK:   -1.22 KCAL/MOL
REMARK 927      BINDING AFFINITY PREDICTED BY RF-SCORE:    0.00 PKD
ROOT
HETATM    1  C   UNL     1     -10.032  19.472  68.948  1.00  0.00    -0.529 C  
HETATM    2  C   UNL     1     -10.401  19.881  67.521  1.00  0.00    -0.557 C  
HETATM    3  C   UNL     1      -9.467  20.984  67.029  1.00  0.00    -0.117 C  
HETATM    4  C   UNL     1     -10.445  18.671  66.568  1.00  0.00    -0.420 C  
ENDROOT
BRANCH   4   5
HETATM    5  O   UNL     1      -9.172  18.024  66.427  1.00  0.00    -0.310 OA 
BRANCH   5   6
HETATM    6  C   UNL     1      -9.156  16.696  66.779  1.00  0.00    -0.237 A  
HETATM    7  C   UNL     1      -9.364  15.630  65.899  1.00  0.00    -0.357 A  
HETATM    8  C   UNL     1      -9.563  14.325  66.391  1.00  0.00    -0.317 A  
HETATM    9  C   UNL     1      -9.524  14.069  67.766  1.00  0.00    -0.209 A  
HETATM   10  C   UNL     1      -9.139  15.115  68.622  1.00  0.00    -0.195 A  
HETATM   11  C   UNL     1      -8.959  16.415  68.131  1.00  0.00    -0.197 A  
BRANCH   9  12
HETATM   12  C   UNL     1     -10.112  12.800  68.347  1.00  0.00    -0.226 C  
BRANCH  12  13
HETATM   13  N   UNL     1      -9.170  11.860  68.914  1.00  0.00    -0.399 N  
HETATM   14  H   UNL     1      -9.015  11.824  69.922  1.00  0.00     0.000 HD 
BRANCH  13  15
HETATM   15  C   UNL     1      -8.488  11.019  68.070  1.00  0.00    -0.129 C  
HETATM   16  O   UNL     1      -7.270  11.140  67.913  1.00  0.00    -0.085 OA 
BRANCH  15  17
HETATM   17  N   UNL     1      -9.228  10.013  67.437  1.00  0.00    -0.137 N  
BRANCH  17  18
HETATM   18  C   UNL     1      -9.008   9.919  65.966  1.00  0.00    -0.149 C  
BRANCH  18  19
HETATM   19  C   UNL     1     -10.044  10.633  65.092  1.00  0.00    -0.374 A  
HETATM   20  C   UNL     1     -11.656  12.475  63.759  1.00  0.00    -0.475 A  
HETATM   21  C   UNL     1      -9.793  10.950  63.749  1.00  0.00    -0.391 A  
HETATM   22  C   UNL     1     -10.582  11.898  63.095  1.00  0.00    -0.322 A  
HETATM   23  F   UNL     1     -12.336  13.474  63.174  1.00  0.00    -0.600 F  
HETATM   24  C   UNL     1     -12.012  12.063  65.035  1.00  0.00    -0.262 A  
HETATM   25  C   UNL     1     -11.221  11.123  65.696  1.00  0.00     0.008 A  
ENDBRANCH  18  19
ENDBRANCH  17  18
BRANCH  17  26
HETATM   26  C   UNL     1     -10.345   9.223  68.075  1.00  0.00    -0.221 C  
HETATM   27  C   UNL     1     -10.606   7.818  67.503  1.00  0.00    -0.319 C  
HETATM   28  C   UNL     1     -10.330   9.127  69.633  1.00  0.00    -0.226 C  
HETATM   29  C   UNL     1     -11.391   6.153  69.805  1.00  0.00    -0.382 C  
HETATM   30  C   UNL     1      -9.728   6.755  68.143  1.00  0.00    -0.129 C  
HETATM   31  N   UNL     1     -10.022   6.611  69.564  1.00  0.00    -0.162 NA 
HETATM   32  C   UNL     1      -9.711   7.865  70.248  1.00  0.00    -0.183 C  
ENDBRANCH  17  26
ENDBRANCH  15  17
ENDBRANCH  13  15
ENDBRANCH  12  13
ENDBRANCH   9  12
ENDBRANCH   5   6
ENDBRANCH   4   5
TORSDOF 9
ENDMDL
MODEL      131
REMARK 921   NORMALIZED FREE ENERGY PREDICTED BY IDOCK:   -5.47 KCAL/MOL
REMARK 922        TOTAL FREE ENERGY PREDICTED BY IDOCK:   -9.82 KCAL/MOL
REMARK 923 INTER-LIGAND FREE ENERGY PREDICTED BY IDOCK:   -8.33 KCAL/MOL
REMARK 924 INTRA-LIGAND FREE ENERGY PREDICTED BY IDOCK:   -1.49 KCAL/MOL
REMARK 927      BINDING AFFINITY PREDICTED BY RF-SCORE:    0.00 PKD
ROOT
HETATM    1  C   UNL     1     -13.948  14.148  72.346  1.00  0.00    -0.613 C  
HETATM    2  C   UNL     1     -13.355  15.500  71.945  1.00  0.00    -0.569 C  
HETATM    3  C   UNL     1     -12.452  16.031  73.057  1.00  0.00    -0.614 C  
HETATM    4  C   UNL     1     -12.642  15.435  70.581  1.00  0.00    -0.439 C  
ENDROOT
BRANCH   4   5
HETATM    5  O   UNL     1     -11.515  14.547  70.580  1.00  0.00    -0.252 OA 
BRANCH   5   6
HETATM    6  C   UNL     1     -11.552  13.566  69.618  1.00  0.00    -0.275 A  
HETATM    7  C   UNL     1     -12.028  12.267  69.816  1.00  0.00    -0.365 A  
HETATM    8  C   UNL     1     -11.808  11.270  68.845  1.00  0.00    -0.413 A  
HETATM    9  C   UNL     1     -11.138  11.571  67.654  1.00  0.00    -0.324 A  
HETATM   10  C   UNL     1     -10.824  12.917  67.395  1.00  0.00    -0.272 A  
HETATM   11  C   UNL     1     -11.029  13.902  68.370  1.00  0.00    -0.272 A  
BRANCH   9  12
HETATM   12  C   UNL     1     -10.543  10.481  66.788  1.00  0.00    -0.222 C  
BRANCH  12  13
HETATM   13  N   UNL     1      -9.545   9.642  67.413  1.00  0.00    -0.144 N  
HETATM   14  H   UNL     1      -8.619  10.010  67.632  1.00  0.00     0.000 HD 
BRANCH  13  15
HETATM   15  C   UNL     1      -9.867   8.340  67.706  1.00  0.00    -0.170 C  
HETATM   16  O   UNL     1     -10.906   7.837  67.272  1.00  0.00    -0.284 OA 
BRANCH  15  17
HETATM   17  N   UNL     1      -8.952   7.615  68.481  1.00  0.00    -0.130 N  
BRANCH  17  18
HETATM   18  C   UNL     1      -7.836   7.002  67.706  1.00  0.00    -0.113 C  
BRANCH  18  19
HETATM   19  C   UNL     1      -8.240   5.911  66.710  1.00  0.00    -0.105 A  
HETATM   20  C   UNL     1      -9.525   4.286  64.845  1.00  0.00    -0.169 A  
HETATM   21  C   UNL     1      -7.882   5.972  65.355  1.00  0.00    -0.104 A  
HETATM   22  C   UNL     1      -8.552   5.180  64.419  1.00  0.00    -0.118 A  
HETATM   23  F   UNL     1     -10.253   3.618  63.935  1.00  0.00    -0.157 F  
HETATM   24  C   UNL     1      -9.785   4.103  66.195  1.00  0.00    -0.215 A  
HETATM   25  C   UNL     1      -9.126   4.898  67.133  1.00  0.00    -0.122 A  
ENDBRANCH  18  19
ENDBRANCH  17  18
BRANCH  17  26
HETATM   26  C   UNL     1      -9.147   7.240  69.931  1.00  0.00    -0.141 C  
HETATM   27  C   UNL     1      -9.106   8.393  70.950  1.00  0.00    -0.190 C  
HETATM   28  C   UNL     1     -10.377   6.336  70.258  1.00  0.00    -0.258 C  
HETATM   29  C   UNL     1     -11.072   7.691  73.030  1.00  0.00    -0.381 C  
HETATM   30  C   UNL     1     -10.457   9.066  71.126  1.00  0.00    -0.293 C  
HETATM   31  N   UNL     1     -11.438   8.143  71.687  1.00  0.00    -0.262 NA 
HETATM   32  C   UNL     1     -11.648   7.040  70.752  1.00  0.00    -0.338 C  
ENDBRANCH  17  26
ENDBRANCH  15  17
ENDBRANCH  13  15
ENDBRANCH  12  13
ENDBRANCH   9  12
ENDBRANCH   5   6
ENDBRANCH   4   5
TORSDOF 9
ENDMDL
MODEL      132
REMARK 921   NORMALIZED FREE ENERGY PREDICTED BY IDOCK:   -5.46 KCAL/MOL
REMARK 922        TOTAL FREE ENERGY PREDICTED BY IDOCK:   -9.80 KCAL/MOL
REMARK 923 INTER-LIGAND FREE ENERGY PREDICTED BY IDOCK:   -8.30 KCAL/MOL
REMARK 924 INTRA-LIGAND FREE ENERGY PREDICTED BY IDOCK:   -1.50 KCAL/MOL
REMARK 927      BINDING AFFINITY PREDICTED BY RF-SCORE:    0.00 PKD
ROOT
HETATM    1  C   UNL     1     -14.019  13.887  72.639  1.00  0.00    -0.428 C  
HETATM    2  C   UNL     1     -13.698  15.316  72.197  1.00  0.00    -0.598 C  
HETATM    3  C   UNL     1     -12.771  15.986  73.208  1.00  0.00    -0.644 C  
HETATM    4  C   UNL     1     -13.144  15.364  70.760  1.00  0.00    -0.424 C  
ENDROOT
BRANCH   4   5
HETATM    5  O   UNL     1     -11.898  14.668  70.616  1.00  0.00    -0.277 OA 
BRANCH   5   6
HETATM    6  C   UNL     1     -11.956  13.531  69.847  1.00  0.00    -0.348 A  
HETATM    7  C   UNL     1     -12.083  12.231  70.346  1.00  0.00    -0.385 A  
HETATM    8  C   UNL     1     -11.896  11.120  69.501  1.00  0.00    -0.423 A  
HETATM    9  C   UNL     1     -11.611  11.298  68.142  1.00  0.00    -0.359 A  
HETATM   10  C   UNL     1     -11.662  12.603  67.623  1.00  0.00    -0.420 A  
HETATM   11  C   UNL     1     -11.831  13.707  68.469  1.00  0.00    -0.406 A  
BRANCH   9  12
HETATM   12  C   UNL     1     -11.024  10.179  67.308  1.00  0.00    -0.183 C  
BRANCH  12  13
HETATM   13  N   UNL     1     -10.063   9.325  67.970  1.00  0.00    -0.183 N  
HETATM   14  H   UNL     1      -9.411   9.709  68.654  1.00  0.00     0.000 HD 
BRANCH  13  15
HETATM   15  C   UNL     1     -10.045   7.988  67.660  1.00  0.00    -0.209 C  
HETATM   16  O   UNL     1     -10.722   7.551  66.726  1.00  0.00    -0.319 OA 
BRANCH  15  17
HETATM   17  N   UNL     1      -9.207   7.167  68.425  1.00  0.00    -0.134 N  
BRANCH  17  18
HETATM   18  C   UNL     1      -8.115   6.509  67.652  1.00  0.00    -0.118 C  
BRANCH  18  19
HETATM   19  C   UNL     1      -7.288   7.434  66.753  1.00  0.00    -0.092 A  
HETATM   20  C   UNL     1      -6.346   9.461  65.087  1.00  0.00    -0.071 A  
HETATM   21  C   UNL     1      -6.498   8.468  67.276  1.00  0.00    -0.058 A  
HETATM   22  C   UNL     1      -6.057   9.500  66.444  1.00  0.00    -0.060 A  
HETATM   23  F   UNL     1      -6.029  10.512  64.313  1.00  0.00    -0.134 F  
HETATM   24  C   UNL     1      -6.995   8.371  64.526  1.00  0.00    -0.073 A  
HETATM   25  C   UNL     1      -7.447   7.343  65.354  1.00  0.00    -0.090 A  
ENDBRANCH  18  19
ENDBRANCH  17  18
BRANCH  17  26
HETATM   26  C   UNL     1      -9.469   6.744  69.850  1.00  0.00    -0.156 C  
HETATM   27  C   UNL     1      -8.804   7.592  70.951  1.00  0.00    -0.144 C  
HETATM   28  C   UNL     1     -10.961   6.506  70.244  1.00  0.00    -0.365 C  
HETATM   29  C   UNL     1     -10.727   7.652  73.183  1.00  0.00    -0.387 C  
HETATM   30  C   UNL     1      -9.639   8.800  71.341  1.00  0.00    -0.267 C  
HETATM   31  N   UNL     1     -10.909   8.396  71.935  1.00  0.00    -0.278 NA 
HETATM   32  C   UNL     1     -11.691   7.662  70.942  1.00  0.00    -0.271 C  
ENDBRANCH  17  26
ENDBRANCH  15  17
ENDBRANCH  13  15
ENDBRANCH  12  13
ENDBRANCH   9  12
ENDBRANCH   5   6
ENDBRANCH   4   5
TORSDOF 9
ENDMDL
MODEL      133
REMARK 921   NORMALIZED FREE ENERGY PREDICTED BY IDOCK:   -5.46 KCAL/MOL
REMARK 922        TOTAL FREE ENERGY PREDICTED BY IDOCK:   -9.80 KCAL/MOL
REMARK 923 INTER-LIGAND FREE ENERGY PREDICTED BY IDOCK:   -8.71 KCAL/MOL
REMARK 924 INTRA-LIGAND FREE ENERGY PREDICTED BY IDOCK:   -1.08 KCAL/MOL
REMARK 927      BINDING AFFINITY PREDICTED BY RF-SCORE:    0.00 PKD
ROOT
HETATM    1  C   UNL     1      -9.962   6.761  69.688  1.00  0.00    -0.184 C  
HETATM    2  C   UNL     1     -11.006   6.011  70.518  1.00  0.00    -0.388 C  
HETATM    3  C   UNL     1     -10.336   5.302  71.693  1.00  0.00    -0.281 C  
HETATM    4  C   UNL     1     -12.160   6.930  70.960  1.00  0.00    -0.380 C  
ENDROOT
BRANCH   4   5
HETATM    5  O   UNL     1     -11.730   7.995  71.820  1.00  0.00    -0.266 OA 
BRANCH   5   6
HETATM    6  C   UNL     1     -12.138   9.250  71.436  1.00  0.00    -0.348 A  
HETATM    7  C   UNL     1     -11.487  10.050  70.493  1.00  0.00    -0.407 A  
HETATM    8  C   UNL     1     -11.840  11.405  70.340  1.00  0.00    -0.428 A  
HETATM    9  C   UNL     1     -12.869  11.964  71.107  1.00  0.00    -0.346 A  
HETATM   10  C   UNL     1     -13.627  11.104  71.920  1.00  0.00    -0.108 A  
HETATM   11  C   UNL     1     -13.262   9.762  72.083  1.00  0.00    -0.530 A  
BRANCH   9  12
HETATM   12  C   UNL     1     -13.009  13.464  71.261  1.00  0.00    -0.287 C  
BRANCH  12  13
HETATM   13  N   UNL     1     -12.784  14.253  70.070  1.00  0.00    -0.466 N  
HETATM   14  H   UNL     1     -13.257  14.021  69.196  1.00  0.00     0.000 HD 
BRANCH  13  15
HETATM   15  C   UNL     1     -11.921  15.318  70.137  1.00  0.00    -0.338 C  
HETATM   16  O   UNL     1     -11.706  15.884  71.212  1.00  0.00    -0.379 OA 
BRANCH  15  17
HETATM   17  N   UNL     1     -11.284  15.700  68.950  1.00  0.00    -0.288 N  
BRANCH  17  18
HETATM   18  C   UNL     1     -12.151  15.642  67.739  1.00  0.00     0.480 C  
BRANCH  18  19
HETATM   19  C   UNL     1     -12.063  14.351  66.920  1.00  0.00    -0.386 A  
HETATM   20  C   UNL     1     -11.281  12.196  65.334  1.00  0.00    -0.333 A  
HETATM   21  C   UNL     1     -11.751  13.117  67.509  1.00  0.00    -0.414 A  
HETATM   22  C   UNL     1     -11.327  12.050  66.714  1.00  0.00    -0.398 A  
HETATM   23  F   UNL     1     -10.756  11.214  64.582  1.00  0.00    -0.362 F  
HETATM   24  C   UNL     1     -11.730  13.357  64.724  1.00  0.00    -0.393 A  
HETATM   25  C   UNL     1     -12.145  14.430  65.514  1.00  0.00    -0.358 A  
ENDBRANCH  18  19
ENDBRANCH  17  18
BRANCH  17  26
HETATM   26  C   UNL     1      -9.799  15.923  68.794  1.00  0.00    -0.216 C  
HETATM   27  C   UNL     1      -8.875  14.881  69.451  1.00  0.00    -0.046 C  
HETATM   28  C   UNL     1      -9.283  16.195  67.346  1.00  0.00    -0.213 C  
HETATM   29  C   UNL     1      -6.560  14.615  67.648  1.00  0.00    -0.155 C  
HETATM   30  C   UNL     1      -8.611  13.684  68.552  1.00  0.00    -0.103 C  
HETATM   31  N   UNL     1      -7.888  14.077  67.348  1.00  0.00    -0.183 NA 
HETATM   32  C   UNL     1      -8.715  14.999  66.571  1.00  0.00    -0.208 C  
ENDBRANCH  17  26
ENDBRANCH  15  17
ENDBRANCH  13  15
ENDBRANCH  12  13
ENDBRANCH   9  12
ENDBRANCH   5   6
ENDBRANCH   4   5
TORSDOF 9
ENDMDL
MODEL      134
REMARK 921   NORMALIZED FREE ENERGY PREDICTED BY IDOCK:   -5.45 KCAL/MOL
REMARK 922        TOTAL FREE ENERGY PREDICTED BY IDOCK:   -9.79 KCAL/MOL
REMARK 923 INTER-LIGAND FREE ENERGY PREDICTED BY IDOCK:   -8.07 KCAL/MOL
REMARK 924 INTRA-LIGAND FREE ENERGY PREDICTED BY IDOCK:   -1.72 KCAL/MOL
REMARK 927      BINDING AFFINITY PREDICTED BY RF-SCORE:    0.00 PKD
ROOT
HETATM    1  C   UNL     1      -8.080   4.953  67.177  1.00  0.00    -0.107 C  
HETATM    2  C   UNL     1      -7.449   6.263  67.652  1.00  0.00    -0.089 C  
HETATM    3  C   UNL     1      -7.299   7.231  66.481  1.00  0.00    -0.080 C  
HETATM    4  C   UNL     1      -8.219   6.878  68.836  1.00  0.00    -0.121 C  
ENDROOT
BRANCH   4   5
HETATM    5  O   UNL     1      -9.566   7.242  68.500  1.00  0.00    -0.140 OA 
BRANCH   5   6
HETATM    6  C   UNL     1      -9.991   8.437  69.029  1.00  0.00    -0.190 A  
HETATM    7  C   UNL     1     -10.999   8.575  69.988  1.00  0.00    -0.197 A  
HETATM    8  C   UNL     1     -11.526   9.845  70.293  1.00  0.00    -0.349 A  
HETATM    9  C   UNL     1     -11.029  10.992  69.663  1.00  0.00    -0.286 A  
HETATM   10  C   UNL     1      -9.901  10.855  68.836  1.00  0.00    -0.203 A  
HETATM   11  C   UNL     1      -9.391   9.588  68.522  1.00  0.00    -0.138 A  
BRANCH   9  12
HETATM   12  C   UNL     1     -11.811  12.289  69.659  1.00  0.00    -0.324 C  
BRANCH  12  13
HETATM   13  N   UNL     1     -11.062  13.486  69.345  1.00  0.00    -0.425 N  
HETATM   14  H   UNL     1     -10.043  13.469  69.322  1.00  0.00     0.000 HD 
BRANCH  13  15
HETATM   15  C   UNL     1     -11.750  14.644  69.081  1.00  0.00    -0.309 C  
HETATM   16  O   UNL     1     -12.706  14.981  69.784  1.00  0.00    -0.169 OA 
BRANCH  15  17
HETATM   17  N   UNL     1     -11.295  15.427  68.012  1.00  0.00    -0.339 N  
BRANCH  17  18
HETATM   18  C   UNL     1     -10.971  16.836  68.373  1.00  0.00    -0.325 C  
BRANCH  18  19
HETATM   19  C   UNL     1      -9.484  17.204  68.342  1.00  0.00    -0.276 A  
HETATM   20  C   UNL     1      -6.919  18.162  68.863  1.00  0.00    -0.267 A  
HETATM   21  C   UNL     1      -8.494  16.340  68.831  1.00  0.00    -0.253 A  
HETATM   22  C   UNL     1      -7.220  16.831  69.123  1.00  0.00    -0.214 A  
HETATM   23  F   UNL     1      -5.737  18.662  69.258  1.00  0.00    -0.198 F  
HETATM   24  C   UNL     1      -7.837  18.992  68.238  1.00  0.00    -0.350 A  
HETATM   25  C   UNL     1      -9.115  18.509  67.954  1.00  0.00    -0.306 A  
ENDBRANCH  18  19
ENDBRANCH  17  18
BRANCH  17  26
HETATM   26  C   UNL     1     -11.337  15.020  66.558  1.00  0.00    -0.280 C  
HETATM   27  C   UNL     1     -10.001  14.589  65.927  1.00  0.00    -0.352 C  
HETATM   28  C   UNL     1     -12.431  13.981  66.156  1.00  0.00    -0.467 C  
HETATM   29  C   UNL     1     -10.672  12.437  64.030  1.00  0.00    -0.404 C  
HETATM   30  C   UNL     1      -9.699  13.116  66.147  1.00  0.00    -0.248 C  
HETATM   31  N   UNL     1     -10.685  12.269  65.483  1.00  0.00    -0.270 NA 
HETATM   32  C   UNL     1     -12.000  12.511  66.074  1.00  0.00    -0.392 C  
ENDBRANCH  17  26
ENDBRANCH  15  17
ENDBRANCH  13  15
ENDBRANCH  12  13
ENDBRANCH   9  12
ENDBRANCH   5   6
ENDBRANCH   4   5
TORSDOF 9
ENDMDL
MODEL      135
REMARK 921   NORMALIZED FREE ENERGY PREDICTED BY IDOCK:   -5.44 KCAL/MOL
REMARK 922        TOTAL FREE ENERGY PREDICTED BY IDOCK:   -9.77 KCAL/MOL
REMARK 923 INTER-LIGAND FREE ENERGY PREDICTED BY IDOCK:   -7.62 KCAL/MOL
REMARK 924 INTRA-LIGAND FREE ENERGY PREDICTED BY IDOCK:   -2.15 KCAL/MOL
REMARK 927      BINDING AFFINITY PREDICTED BY RF-SCORE:    0.00 PKD
ROOT
HETATM    1  C   UNL     1      -9.630   3.819  71.102  1.00  0.00    -0.246 C  
HETATM    2  C   UNL     1      -8.767   2.830  70.317  1.00  0.00    -0.132 C  
HETATM    3  C   UNL     1      -9.522   1.520  70.108  1.00  0.00    -0.152 C  
HETATM    4  C   UNL     1      -8.252   3.436  68.998  1.00  0.00    -0.060 C  
ENDROOT
BRANCH   4   5
HETATM    5  O   UNL     1      -9.308   3.775  68.088  1.00  0.00    -0.152 OA 
BRANCH   5   6
HETATM    6  C   UNL     1      -9.473   5.122  67.869  1.00  0.00    -0.129 A  
HETATM    7  C   UNL     1     -10.694   5.744  67.590  1.00  0.00    -0.313 A  
HETATM    8  C   UNL     1     -10.730   7.082  67.149  1.00  0.00    -0.433 A  
HETATM    9  C   UNL     1      -9.548   7.819  67.014  1.00  0.00    -0.238 A  
HETATM   10  C   UNL     1      -8.351   7.237  67.467  1.00  0.00    -0.116 A  
HETATM   11  C   UNL     1      -8.317   5.901  67.888  1.00  0.00    -0.111 A  
BRANCH   9  12
HETATM   12  C   UNL     1      -9.501   9.087  66.188  1.00  0.00    -0.253 C  
BRANCH  12  13
HETATM   13  N   UNL     1     -10.152  10.246  66.758  1.00  0.00    -0.208 N  
HETATM   14  H   UNL     1     -10.888  10.733  66.247  1.00  0.00     0.000 HD 
BRANCH  13  15
HETATM   15  C   UNL     1      -9.760  10.678  68.001  1.00  0.00    -0.157 C  
HETATM   16  O   UNL     1      -8.619  11.108  68.184  1.00  0.00    -0.128 OA 
BRANCH  15  17
HETATM   17  N   UNL     1     -10.718  10.638  69.022  1.00  0.00    -0.206 N  
BRANCH  17  18
HETATM   18  C   UNL     1     -12.009  11.300  68.683  1.00  0.00    -0.243 C  
BRANCH  18  19
HETATM   19  C   UNL     1     -12.038  12.823  68.846  1.00  0.00    -0.175 A  
HETATM   20  C   UNL     1     -11.446  15.514  69.266  1.00  0.00    -0.340 A  
HETATM   21  C   UNL     1     -11.884  13.691  67.755  1.00  0.00    -0.403 A  
HETATM   22  C   UNL     1     -11.554  15.031  67.969  1.00  0.00    -0.356 A  
HETATM   23  F   UNL     1     -11.009  16.768  69.471  1.00  0.00    -0.312 F  
HETATM   24  C   UNL     1     -11.744  14.709  70.356  1.00  0.00    -0.355 A  
HETATM   25  C   UNL     1     -12.064  13.367  70.148  1.00  0.00    -0.415 A  
ENDBRANCH  18  19
ENDBRANCH  17  18
BRANCH  17  26
HETATM   26  C   UNL     1     -10.455  10.202  70.444  1.00  0.00    -0.173 C  
HETATM   27  C   UNL     1     -11.692   9.906  71.311  1.00  0.00    -0.472 C  
HETATM   28  C   UNL     1      -9.427   9.043  70.638  1.00  0.00    -0.286 C  
HETATM   29  C   UNL     1     -10.926   7.657  73.054  1.00  0.00    -0.400 C  
HETATM   30  C   UNL     1     -12.189   8.478  71.152  1.00  0.00    -0.232 C  
HETATM   31  N   UNL     1     -11.198   7.517  71.623  1.00  0.00    -0.240 NA 
HETATM   32  C   UNL     1      -9.995   7.626  70.800  1.00  0.00    -0.181 C  
ENDBRANCH  17  26
ENDBRANCH  15  17
ENDBRANCH  13  15
ENDBRANCH  12  13
ENDBRANCH   9  12
ENDBRANCH   5   6
ENDBRANCH   4   5
TORSDOF 9
ENDMDL
MODEL      136
REMARK 921   NORMALIZED FREE ENERGY PREDICTED BY IDOCK:   -5.44 KCAL/MOL
REMARK 922        TOTAL FREE ENERGY PREDICTED BY IDOCK:   -9.77 KCAL/MOL
REMARK 923 INTER-LIGAND FREE ENERGY PREDICTED BY IDOCK:   -8.24 KCAL/MOL
REMARK 924 INTRA-LIGAND FREE ENERGY PREDICTED BY IDOCK:   -1.53 KCAL/MOL
REMARK 927      BINDING AFFINITY PREDICTED BY RF-SCORE:    0.00 PKD
ROOT
HETATM    1  C   UNL     1     -14.150  13.616  72.369  1.00  0.00    -0.586 C  
HETATM    2  C   UNL     1     -13.736  15.082  72.233  1.00  0.00    -0.574 C  
HETATM    3  C   UNL     1     -12.879  15.502  73.425  1.00  0.00    -0.660 C  
HETATM    4  C   UNL     1     -13.051  15.365  70.882  1.00  0.00    -0.468 C  
ENDROOT
BRANCH   4   5
HETATM    5  O   UNL     1     -11.825  14.639  70.713  1.00  0.00    -0.289 OA 
BRANCH   5   6
HETATM    6  C   UNL     1     -11.836  13.712  69.697  1.00  0.00    -0.335 A  
HETATM    7  C   UNL     1     -12.003  12.335  69.871  1.00  0.00    -0.377 A  
HETATM    8  C   UNL     1     -11.765  11.446  68.805  1.00  0.00    -0.404 A  
HETATM    9  C   UNL     1     -11.388  11.929  67.546  1.00  0.00    -0.381 A  
HETATM   10  C   UNL     1     -11.397  13.320  67.343  1.00  0.00    -0.337 A  
HETATM   11  C   UNL     1     -11.617  14.200  68.410  1.00  0.00    -0.353 A  
BRANCH   9  12
HETATM   12  C   UNL     1     -10.751  11.022  66.514  1.00  0.00    -0.241 C  
BRANCH  12  13
HETATM   13  N   UNL     1      -9.623  10.236  66.964  1.00  0.00    -0.167 N  
HETATM   14  H   UNL     1      -8.710  10.668  67.102  1.00  0.00     0.000 HD 
BRANCH  13  15
HETATM   15  C   UNL     1      -9.806   8.896  67.200  1.00  0.00    -0.207 C  
HETATM   16  O   UNL     1     -10.824   8.322  66.805  1.00  0.00    -0.188 OA 
BRANCH  15  17
HETATM   17  N   UNL     1      -8.778   8.220  67.870  1.00  0.00    -0.134 N  
BRANCH  17  18
HETATM   18  C   UNL     1      -8.652   8.565  69.314  1.00  0.00    -0.129 C  
BRANCH  18  19
HETATM   19  C   UNL     1      -9.512   7.734  70.272  1.00  0.00    -0.160 A  
HETATM   20  C   UNL     1     -11.561   6.606  71.787  1.00  0.00    -0.304 A  
HETATM   21  C   UNL     1     -10.082   6.511  69.889  1.00  0.00    -0.202 A  
HETATM   22  C   UNL     1     -11.131   5.966  70.632  1.00  0.00    -0.335 A  
HETATM   23  F   UNL     1     -12.648   6.149  72.431  1.00  0.00    -0.304 F  
HETATM   24  C   UNL     1     -10.909   7.733  72.264  1.00  0.00    -0.339 A  
HETATM   25  C   UNL     1      -9.867   8.287  71.520  1.00  0.00    -0.250 A  
ENDBRANCH  18  19
ENDBRANCH  17  18
BRANCH  17  26
HETATM   26  C   UNL     1      -7.704   7.393  67.204  1.00  0.00    -0.115 C  
HETATM   27  C   UNL     1      -8.134   6.018  66.660  1.00  0.00    -0.106 C  
HETATM   28  C   UNL     1      -6.847   8.110  66.113  1.00  0.00    -0.058 C  
HETATM   29  C   UNL     1      -6.566   5.609  64.199  1.00  0.00    -0.037 C  
HETATM   30  C   UNL     1      -8.697   6.099  65.250  1.00  0.00    -0.024 C  
HETATM   31  N   UNL     1      -7.685   6.547  64.300  1.00  0.00    -0.100 NA 
HETATM   32  C   UNL     1      -7.263   7.901  64.651  1.00  0.00    -0.079 C  
ENDBRANCH  17  26
ENDBRANCH  15  17
ENDBRANCH  13  15
ENDBRANCH  12  13
ENDBRANCH   9  12
ENDBRANCH   5   6
ENDBRANCH   4   5
TORSDOF 9
ENDMDL
MODEL      137
REMARK 921   NORMALIZED FREE ENERGY PREDICTED BY IDOCK:   -5.43 KCAL/MOL
REMARK 922        TOTAL FREE ENERGY PREDICTED BY IDOCK:   -9.76 KCAL/MOL
REMARK 923 INTER-LIGAND FREE ENERGY PREDICTED BY IDOCK:   -7.91 KCAL/MOL
REMARK 924 INTRA-LIGAND FREE ENERGY PREDICTED BY IDOCK:   -1.84 KCAL/MOL
REMARK 927      BINDING AFFINITY PREDICTED BY RF-SCORE:    0.00 PKD
ROOT
HETATM    1  C   UNL     1     -10.279  20.415  67.481  1.00  0.00    -0.421 C  
HETATM    2  C   UNL     1     -10.637  18.930  67.416  1.00  0.00    -0.534 C  
HETATM    3  C   UNL     1     -10.267  18.357  66.050  1.00  0.00    -0.354 C  
HETATM    4  C   UNL     1     -10.017  18.135  68.581  1.00  0.00    -0.395 C  
ENDROOT
BRANCH   4   5
HETATM    5  O   UNL     1      -8.583  18.148  68.566  1.00  0.00    -0.296 OA 
BRANCH   5   6
HETATM    6  C   UNL     1      -7.992  16.910  68.639  1.00  0.00    -0.256 A  
HETATM    7  C   UNL     1      -6.613  16.678  68.636  1.00  0.00    -0.159 A  
HETATM    8  C   UNL     1      -6.108  15.373  68.475  1.00  0.00    -0.093 A  
HETATM    9  C   UNL     1      -6.977  14.284  68.347  1.00  0.00    -0.100 A  
HETATM   10  C   UNL     1      -8.352  14.512  68.529  1.00  0.00    -0.160 A  
HETATM   11  C   UNL     1      -8.852  15.813  68.671  1.00  0.00    -0.199 A  
BRANCH   9  12
HETATM   12  C   UNL     1      -6.502  12.959  67.787  1.00  0.00    -0.143 C  
BRANCH  12  13
HETATM   13  N   UNL     1      -7.444  11.863  67.852  1.00  0.00    -0.105 N  
HETATM   14  H   UNL     1      -8.124  11.807  68.610  1.00  0.00     0.000 HD 
BRANCH  13  15
HETATM   15  C   UNL     1      -7.404  10.901  66.874  1.00  0.00    -0.128 C  
HETATM   16  O   UNL     1      -6.325  10.505  66.427  1.00  0.00    -0.082 OA 
BRANCH  15  17
HETATM   17  N   UNL     1      -8.630  10.378  66.444  1.00  0.00    -0.130 N  
BRANCH  17  18
HETATM   18  C   UNL     1      -9.028  10.789  65.068  1.00  0.00    -0.194 C  
BRANCH  18  19
HETATM   19  C   UNL     1     -10.187  11.788  64.983  1.00  0.00    -0.314 A  
HETATM   20  C   UNL     1     -11.884  13.928  64.425  1.00  0.00    -0.429 A  
HETATM   21  C   UNL     1     -11.229  11.640  64.055  1.00  0.00    -0.448 A  
HETATM   22  C   UNL     1     -12.055  12.724  63.754  1.00  0.00    -0.596 A  
HETATM   23  F   UNL     1     -12.595  15.003  64.047  1.00  0.00    -0.495 F  
HETATM   24  C   UNL     1     -10.959  14.047  65.452  1.00  0.00    -0.321 A  
HETATM   25  C   UNL     1     -10.124  12.969  65.750  1.00  0.00    -0.294 A  
ENDBRANCH  18  19
ENDBRANCH  17  18
BRANCH  17  26
HETATM   26  C   UNL     1      -9.625   9.660  67.324  1.00  0.00    -0.164 C  
HETATM   27  C   UNL     1     -10.483   8.574  66.647  1.00  0.00    -0.235 C  
HETATM   28  C   UNL     1      -9.081   9.089  68.672  1.00  0.00    -0.137 C  
HETATM   29  C   UNL     1     -10.848   6.467  68.675  1.00  0.00    -0.295 C  
HETATM   30  C   UNL     1      -9.795   7.219  66.621  1.00  0.00    -0.187 C  
HETATM   31  N   UNL     1      -9.587   6.705  67.971  1.00  0.00    -0.124 NA 
HETATM   32  C   UNL     1      -8.692   7.605  68.694  1.00  0.00    -0.128 C  
ENDBRANCH  17  26
ENDBRANCH  15  17
ENDBRANCH  13  15
ENDBRANCH  12  13
ENDBRANCH   9  12
ENDBRANCH   5   6
ENDBRANCH   4   5
TORSDOF 9
ENDMDL
MODEL      138
REMARK 921   NORMALIZED FREE ENERGY PREDICTED BY IDOCK:   -5.41 KCAL/MOL
REMARK 922        TOTAL FREE ENERGY PREDICTED BY IDOCK:   -9.73 KCAL/MOL
REMARK 923 INTER-LIGAND FREE ENERGY PREDICTED BY IDOCK:   -8.51 KCAL/MOL
REMARK 924 INTRA-LIGAND FREE ENERGY PREDICTED BY IDOCK:   -1.22 KCAL/MOL
REMARK 927      BINDING AFFINITY PREDICTED BY RF-SCORE:    0.00 PKD
ROOT
HETATM    1  C   UNL     1     -14.405  15.389  71.955  1.00  0.00    -0.653 C  
HETATM    2  C   UNL     1     -12.958  14.913  72.101  1.00  0.00    -0.415 C  
HETATM    3  C   UNL     1     -12.544  14.926  73.571  1.00  0.00    -0.622 C  
HETATM    4  C   UNL     1     -12.731  13.544  71.432  1.00  0.00    -0.336 C  
ENDROOT
BRANCH   4   5
HETATM    5  O   UNL     1     -13.505  12.494  72.029  1.00  0.00    -0.493 OA 
BRANCH   5   6
HETATM    6  C   UNL     1     -13.113  11.221  71.691  1.00  0.00    -0.408 A  
HETATM    7  C   UNL     1     -13.608  10.049  72.270  1.00  0.00    -0.282 A  
HETATM    8  C   UNL     1     -12.979   8.812  72.029  1.00  0.00    -0.437 A  
HETATM    9  C   UNL     1     -11.869   8.731  71.180  1.00  0.00    -0.345 A  
HETATM   10  C   UNL     1     -11.495   9.885  70.470  1.00  0.00    -0.391 A  
HETATM   11  C   UNL     1     -12.111  11.117  70.726  1.00  0.00    -0.458 A  
BRANCH   9  12
HETATM   12  C   UNL     1     -10.945   7.531  71.206  1.00  0.00    -0.242 C  
BRANCH  12  13
HETATM   13  N   UNL     1     -10.304   7.192  69.955  1.00  0.00    -0.203 N  
HETATM   14  H   UNL     1      -9.842   7.909  69.396  1.00  0.00     0.000 HD 
BRANCH  13  15
HETATM   15  C   UNL     1     -10.329   5.885  69.534  1.00  0.00    -0.248 C  
HETATM   16  O   UNL     1     -10.471   4.967  70.346  1.00  0.00    -0.249 OA 
BRANCH  15  17
HETATM   17  N   UNL     1     -10.223   5.656  68.156  1.00  0.00    -0.173 N  
BRANCH  17  18
HETATM   18  C   UNL     1     -10.905   6.675  67.308  1.00  0.00    -0.385 C  
BRANCH  18  19
HETATM   19  C   UNL     1     -10.091   7.935  67.001  1.00  0.00    -0.347 A  
HETATM   20  C   UNL     1      -8.660  10.016  65.819  1.00  0.00    -0.145 A  
HETATM   21  C   UNL     1     -10.700   9.181  66.790  1.00  0.00    -0.108 A  
HETATM   22  C   UNL     1      -9.991  10.210  66.167  1.00  0.00    -0.310 A  
HETATM   23  F   UNL     1      -8.018  10.959  65.111  1.00  0.00    -0.125 F  
HETATM   24  C   UNL     1      -7.997   8.845  66.157  1.00  0.00    -0.106 A  
HETATM   25  C   UNL     1      -8.705   7.811  66.770  1.00  0.00    -0.143 A  
ENDBRANCH  18  19
ENDBRANCH  17  18
BRANCH  17  26
HETATM   26  C   UNL     1      -9.697   4.390  67.524  1.00  0.00    -0.163 C  
HETATM   27  C   UNL     1      -9.945   4.223  66.013  1.00  0.00    -0.234 C  
HETATM   28  C   UNL     1      -8.208   4.029  67.822  1.00  0.00    -0.093 C  
HETATM   29  C   UNL     1      -7.560   2.850  64.960  1.00  0.00    -0.076 C  
HETATM   30  C   UNL     1      -8.868   4.884  65.168  1.00  0.00    -0.153 C  
HETATM   31  N   UNL     1      -7.569   4.252  65.378  1.00  0.00    -0.084 NA 
HETATM   32  C   UNL     1      -7.167   4.435  66.771  1.00  0.00    -0.079 C  
ENDBRANCH  17  26
ENDBRANCH  15  17
ENDBRANCH  13  15
ENDBRANCH  12  13
ENDBRANCH   9  12
ENDBRANCH   5   6
ENDBRANCH   4   5
TORSDOF 9
ENDMDL
MODEL      139
REMARK 921   NORMALIZED FREE ENERGY PREDICTED BY IDOCK:   -5.41 KCAL/MOL
REMARK 922        TOTAL FREE ENERGY PREDICTED BY IDOCK:   -9.72 KCAL/MOL
REMARK 923 INTER-LIGAND FREE ENERGY PREDICTED BY IDOCK:   -7.99 KCAL/MOL
REMARK 924 INTRA-LIGAND FREE ENERGY PREDICTED BY IDOCK:   -1.73 KCAL/MOL
REMARK 927      BINDING AFFINITY PREDICTED BY RF-SCORE:    0.00 PKD
ROOT
HETATM    1  C   UNL     1     -10.019  20.109  66.016  1.00  0.00    -0.487 C  
HETATM    2  C   UNL     1      -9.135  19.453  67.078  1.00  0.00    -0.362 C  
HETATM    3  C   UNL     1      -9.993  18.911  68.218  1.00  0.00    -0.431 C  
HETATM    4  C   UNL     1      -8.205  18.384  66.474  1.00  0.00    -0.269 C  
ENDROOT
BRANCH   4   5
HETATM    5  O   UNL     1      -8.920  17.286  65.890  1.00  0.00    -0.519 OA 
BRANCH   5   6
HETATM    6  C   UNL     1      -8.974  16.152  66.665  1.00  0.00    -0.255 A  
HETATM    7  C   UNL     1      -8.072  15.836  67.685  1.00  0.00    -0.163 A  
HETATM    8  C   UNL     1      -8.067  14.550  68.261  1.00  0.00    -0.140 A  
HETATM    9  C   UNL     1      -8.986  13.580  67.844  1.00  0.00    -0.200 A  
HETATM   10  C   UNL     1      -9.996  13.969  66.948  1.00  0.00    -0.263 A  
HETATM   11  C   UNL     1      -9.986  15.242  66.364  1.00  0.00    -0.291 A  
BRANCH   9  12
HETATM   12  C   UNL     1      -8.765  12.110  68.138  1.00  0.00    -0.185 C  
BRANCH  12  13
HETATM   13  N   UNL     1      -9.685  11.500  69.072  1.00  0.00    -0.415 N  
HETATM   14  H   UNL     1      -9.581  11.648  70.076  1.00  0.00     0.000 HD 
BRANCH  13  15
HETATM   15  C   UNL     1     -10.701  10.718  68.582  1.00  0.00    -0.208 C  
HETATM   16  O   UNL     1     -11.828  11.189  68.409  1.00  0.00    -0.495 OA 
BRANCH  15  17
HETATM   17  N   UNL     1     -10.388   9.391  68.262  1.00  0.00    -0.204 N  
BRANCH  17  18
HETATM   18  C   UNL     1     -10.598   9.035  66.830  1.00  0.00    -0.173 C  
BRANCH  18  19
HETATM   19  C   UNL     1      -9.489   9.469  65.868  1.00  0.00    -0.307 A  
HETATM   20  C   UNL     1      -7.570   9.663  63.855  1.00  0.00    -0.127 A  
HETATM   21  C   UNL     1      -9.760  10.201  64.702  1.00  0.00    -0.377 A  
HETATM   22  C   UNL     1      -8.809  10.267  63.682  1.00  0.00    -0.233 A  
HETATM   23  F   UNL     1      -6.706   9.621  62.828  1.00  0.00    -0.098 F  
HETATM   24  C   UNL     1      -7.229   9.066  65.060  1.00  0.00    -0.092 A  
HETATM   25  C   UNL     1      -8.179   8.989  66.079  1.00  0.00    -0.113 A  
ENDBRANCH  18  19
ENDBRANCH  17  18
BRANCH  17  26
HETATM   26  C   UNL     1     -10.095   8.301  69.266  1.00  0.00    -0.199 C  
HETATM   27  C   UNL     1      -8.617   8.097  69.646  1.00  0.00    -0.131 C  
HETATM   28  C   UNL     1     -10.944   8.313  70.576  1.00  0.00    -0.253 C  
HETATM   29  C   UNL     1      -8.620   7.366  72.500  1.00  0.00    -0.113 C  
HETATM   30  C   UNL     1      -8.172   9.013  70.774  1.00  0.00    -0.181 C  
HETATM   31  N   UNL     1      -8.891   8.718  72.009  1.00  0.00    -0.370 NA 
HETATM   32  C   UNL     1     -10.315   8.977  71.809  1.00  0.00    -0.337 C  
ENDBRANCH  17  26
ENDBRANCH  15  17
ENDBRANCH  13  15
ENDBRANCH  12  13
ENDBRANCH   9  12
ENDBRANCH   5   6
ENDBRANCH   4   5
TORSDOF 9
ENDMDL
MODEL      140
REMARK 921   NORMALIZED FREE ENERGY PREDICTED BY IDOCK:   -5.40 KCAL/MOL
REMARK 922        TOTAL FREE ENERGY PREDICTED BY IDOCK:   -9.71 KCAL/MOL
REMARK 923 INTER-LIGAND FREE ENERGY PREDICTED BY IDOCK:   -8.06 KCAL/MOL
REMARK 924 INTRA-LIGAND FREE ENERGY PREDICTED BY IDOCK:   -1.65 KCAL/MOL
REMARK 927      BINDING AFFINITY PREDICTED BY RF-SCORE:    0.00 PKD
ROOT
HETATM    1  C   UNL     1     -10.060   6.485  69.348  1.00  0.00    -0.198 C  
HETATM    2  C   UNL     1     -11.054   5.856  70.326  1.00  0.00    -0.368 C  
HETATM    3  C   UNL     1     -10.308   5.156  71.459  1.00  0.00    -0.278 C  
HETATM    4  C   UNL     1     -12.086   6.880  70.838  1.00  0.00    -0.373 C  
ENDROOT
BRANCH   4   5
HETATM    5  O   UNL     1     -11.490   7.949  71.586  1.00  0.00    -0.250 OA 
BRANCH   5   6
HETATM    6  C   UNL     1     -11.832   9.211  71.165  1.00  0.00    -0.307 A  
HETATM    7  C   UNL     1     -11.242   9.885  70.091  1.00  0.00    -0.347 A  
HETATM    8  C   UNL     1     -11.491  11.256  69.884  1.00  0.00    -0.373 A  
HETATM    9  C   UNL     1     -12.357  11.958  70.730  1.00  0.00    -0.416 A  
HETATM   10  C   UNL     1     -13.076  11.228  71.692  1.00  0.00    -0.513 A  
HETATM   11  C   UNL     1     -12.812   9.869  71.906  1.00  0.00    -0.524 A  
BRANCH   9  12
HETATM   12  C   UNL     1     -12.344  13.471  70.789  1.00  0.00    -0.363 C  
BRANCH  12  13
HETATM   13  N   UNL     1     -11.810  14.152  69.631  1.00  0.00    -0.303 N  
HETATM   14  H   UNL     1     -12.129  13.910  68.693  1.00  0.00     0.000 HD 
BRANCH  13  15
HETATM   15  C   UNL     1     -10.865  15.130  69.817  1.00  0.00    -0.284 C  
HETATM   16  O   UNL     1     -10.697  15.636  70.929  1.00  0.00    -0.269 OA 
BRANCH  15  17
HETATM   17  N   UNL     1     -10.092  15.490  68.706  1.00  0.00    -0.204 N  
BRANCH  17  18
HETATM   18  C   UNL     1      -8.629  15.253  68.869  1.00  0.00    -0.207 C  
BRANCH  18  19
HETATM   19  C   UNL     1      -8.084  13.987  68.200  1.00  0.00    -0.151 A  
HETATM   20  C   UNL     1      -6.796  11.597  67.566  1.00  0.00    -0.104 A  
HETATM   21  C   UNL     1      -8.796  12.779  68.203  1.00  0.00    -0.194 A  
HETATM   22  C   UNL     1      -8.139  11.580  67.918  1.00  0.00    -0.132 A  
HETATM   23  F   UNL     1      -6.137  10.438  67.414  1.00  0.00    -0.052 F  
HETATM   24  C   UNL     1      -6.115  12.796  67.410  1.00  0.00    -0.123 A  
HETATM   25  C   UNL     1      -6.764  13.996  67.704  1.00  0.00    -0.188 A  
ENDBRANCH  18  19
ENDBRANCH  17  18
BRANCH  17  26
HETATM   26  C   UNL     1     -10.591  16.278  67.519  1.00  0.00    -0.310 C  
HETATM   27  C   UNL     1     -11.376  17.566  67.830  1.00  0.00     0.404 C  
HETATM   28  C   UNL     1      -9.547  16.595  66.403  1.00  0.00    -0.308 C  
HETATM   29  C   UNL     1     -10.648  19.477  65.709  1.00  0.00    -0.427 C  
HETATM   30  C   UNL     1     -10.469  18.770  68.024  1.00  0.00    -0.352 C  
HETATM   31  N   UNL     1      -9.748  19.092  66.797  1.00  0.00    -0.314 NA 
HETATM   32  C   UNL     1      -8.875  17.974  66.446  1.00  0.00    -0.231 C  
ENDBRANCH  17  26
ENDBRANCH  15  17
ENDBRANCH  13  15
ENDBRANCH  12  13
ENDBRANCH   9  12
ENDBRANCH   5   6
ENDBRANCH   4   5
TORSDOF 9
ENDMDL
MODEL      141
REMARK 921   NORMALIZED FREE ENERGY PREDICTED BY IDOCK:   -5.39 KCAL/MOL
REMARK 922        TOTAL FREE ENERGY PREDICTED BY IDOCK:   -9.70 KCAL/MOL
REMARK 923 INTER-LIGAND FREE ENERGY PREDICTED BY IDOCK:   -9.17 KCAL/MOL
REMARK 924 INTRA-LIGAND FREE ENERGY PREDICTED BY IDOCK:   -0.53 KCAL/MOL
REMARK 927      BINDING AFFINITY PREDICTED BY RF-SCORE:    0.00 PKD
ROOT
HETATM    1  C   UNL     1     -10.579   2.000  73.335  1.00  0.00    -0.225 C  
HETATM    2  C   UNL     1      -9.476   2.872  72.733  1.00  0.00    -0.148 C  
HETATM    3  C   UNL     1      -9.178   2.432  71.301  1.00  0.00    -0.187 C  
HETATM    4  C   UNL     1      -9.806   4.373  72.837  1.00  0.00    -0.142 C  
ENDROOT
BRANCH   4   5
HETATM    5  O   UNL     1     -10.980   4.740  72.100  1.00  0.00    -0.087 OA 
BRANCH   5   6
HETATM    6  C   UNL     1     -11.094   6.081  71.821  1.00  0.00    -0.276 A  
HETATM    7  C   UNL     1     -11.195   7.093  72.781  1.00  0.00    -0.314 A  
HETATM    8  C   UNL     1     -11.543   8.405  72.403  1.00  0.00    -0.450 A  
HETATM    9  C   UNL     1     -11.763   8.723  71.058  1.00  0.00    -0.329 A  
HETATM   10  C   UNL     1     -11.486   7.740  70.093  1.00  0.00    -0.055 A  
HETATM   11  C   UNL     1     -11.156   6.432  70.474  1.00  0.00    -0.388 A  
BRANCH   9  12
HETATM   12  C   UNL     1     -12.508   9.980  70.659  1.00  0.00    -0.236 C  
BRANCH  12  13
HETATM   13  N   UNL     1     -12.196  10.520  69.354  1.00  0.00    -0.547 N  
HETATM   14  H   UNL     1     -12.622  10.129  68.514  1.00  0.00     0.000 HD 
BRANCH  13  15
HETATM   15  C   UNL     1     -11.315  11.570  69.268  1.00  0.00    -0.288 C  
HETATM   16  O   UNL     1     -10.150  11.383  68.910  1.00  0.00    -0.204 OA 
BRANCH  15  17
HETATM   17  N   UNL     1     -11.810  12.845  69.569  1.00  0.00    -0.323 N  
BRANCH  17  18
HETATM   18  C   UNL     1     -12.151  13.672  68.378  1.00  0.00    -0.277 C  
BRANCH  18  19
HETATM   19  C   UNL     1     -10.960  14.262  67.616  1.00  0.00    -0.286 A  
HETATM   20  C   UNL     1      -9.118  15.903  66.318  1.00  0.00    -0.344 A  
HETATM   21  C   UNL     1      -9.782  14.655  68.267  1.00  0.00    -0.215 A  
HETATM   22  C   UNL     1      -8.878  15.504  67.626  1.00  0.00    -0.185 A  
HETATM   23  F   UNL     1      -8.316  16.816  65.746  1.00  0.00    -0.309 F  
HETATM   24  C   UNL     1     -10.199  15.403  65.606  1.00  0.00    -0.403 A  
HETATM   25  C   UNL     1     -11.110  14.562  66.246  1.00  0.00    -0.332 A  
ENDBRANCH  18  19
ENDBRANCH  17  18
BRANCH  17  26
HETATM   26  C   UNL     1     -11.795  13.481  70.939  1.00  0.00     0.072 C  
HETATM   27  C   UNL     1     -11.696  15.017  70.981  1.00  0.00    -0.379 C  
HETATM   28  C   UNL     1     -12.915  13.032  71.929  1.00  0.00    -0.414 C  
HETATM   29  C   UNL     1     -13.335  15.860  73.280  1.00  0.00    -0.564 C  
HETATM   30  C   UNL     1     -13.053  15.693  70.875  1.00  0.00    -0.367 C  
HETATM   31  N   UNL     1     -13.896  15.369  72.021  1.00  0.00    -0.489 NA 
HETATM   32  C   UNL     1     -14.154  13.930  72.035  1.00  0.00    -0.477 C  
ENDBRANCH  17  26
ENDBRANCH  15  17
ENDBRANCH  13  15
ENDBRANCH  12  13
ENDBRANCH   9  12
ENDBRANCH   5   6
ENDBRANCH   4   5
TORSDOF 9
ENDMDL
MODEL      142
REMARK 921   NORMALIZED FREE ENERGY PREDICTED BY IDOCK:   -5.39 KCAL/MOL
REMARK 922        TOTAL FREE ENERGY PREDICTED BY IDOCK:   -9.69 KCAL/MOL
REMARK 923 INTER-LIGAND FREE ENERGY PREDICTED BY IDOCK:   -8.68 KCAL/MOL
REMARK 924 INTRA-LIGAND FREE ENERGY PREDICTED BY IDOCK:   -1.01 KCAL/MOL
REMARK 927      BINDING AFFINITY PREDICTED BY RF-SCORE:    0.00 PKD
ROOT
HETATM    1  C   UNL     1     -11.025   6.842  70.485  1.00  0.00    -0.313 C  
HETATM    2  C   UNL     1     -12.037   6.580  71.602  1.00  0.00    -0.381 C  
HETATM    3  C   UNL     1     -11.318   6.130  72.871  1.00  0.00    -0.204 C  
HETATM    4  C   UNL     1     -12.960   7.790  71.840  1.00  0.00    -0.282 C  
ENDROOT
BRANCH   4   5
HETATM    5  O   UNL     1     -12.251   8.957  72.280  1.00  0.00    -0.367 OA 
BRANCH   5   6
HETATM    6  C   UNL     1     -12.397  10.062  71.476  1.00  0.00    -0.419 A  
HETATM    7  C   UNL     1     -11.932  10.163  70.161  1.00  0.00    -0.262 A  
HETATM    8  C   UNL     1     -11.919  11.408  69.502  1.00  0.00    -0.409 A  
HETATM    9  C   UNL     1     -12.401  12.557  70.140  1.00  0.00    -0.210 A  
HETATM   10  C   UNL     1     -13.026  12.405  71.390  1.00  0.00    -0.348 A  
HETATM   11  C   UNL     1     -13.021  11.169  72.050  1.00  0.00    -0.385 A  
BRANCH   9  12
HETATM   12  C   UNL     1     -12.049  13.942  69.640  1.00  0.00    -0.349 C  
BRANCH  12  13
HETATM   13  N   UNL     1     -12.310  14.202  68.241  1.00  0.00    -0.556 N  
HETATM   14  H   UNL     1     -13.189  13.912  67.814  1.00  0.00     0.000 HD 
BRANCH  13  15
HETATM   15  C   UNL     1     -11.350  14.845  67.499  1.00  0.00    -0.342 C  
HETATM   16  O   UNL     1     -11.400  16.066  67.333  1.00  0.00    -0.165 OA 
BRANCH  15  17
HETATM   17  N   UNL     1     -10.312  14.061  66.980  1.00  0.00    -0.266 N  
BRANCH  17  18
HETATM   18  C   UNL     1      -9.327  14.812  66.152  1.00  0.00    -0.257 C  
BRANCH  18  19
HETATM   19  C   UNL     1      -8.435  15.798  66.913  1.00  0.00    -0.281 A  
HETATM   20  C   UNL     1      -7.390  17.843  68.493  1.00  0.00    -0.268 A  
HETATM   21  C   UNL     1      -7.942  15.517  68.196  1.00  0.00    -0.132 A  
HETATM   22  C   UNL     1      -7.451  16.550  68.997  1.00  0.00    -0.229 A  
HETATM   23  F   UNL     1      -7.035  18.853  69.304  1.00  0.00    -0.308 F  
HETATM   24  C   UNL     1      -7.730  18.112  67.176  1.00  0.00    -0.232 A  
HETATM   25  C   UNL     1      -8.231  17.085  66.374  1.00  0.00    -0.326 A  
ENDBRANCH  18  19
ENDBRANCH  17  18
BRANCH  17  26
HETATM   26  C   UNL     1     -10.266  12.552  67.009  1.00  0.00    -0.221 C  
HETATM   27  C   UNL     1     -10.960  11.821  65.844  1.00  0.00    -0.354 C  
HETATM   28  C   UNL     1      -8.864  11.902  67.234  1.00  0.00    -0.179 C  
HETATM   29  C   UNL     1      -9.315   9.436  65.305  1.00  0.00    -0.238 C  
HETATM   30  C   UNL     1     -10.051  11.651  64.638  1.00  0.00    -0.262 C  
HETATM   31  N   UNL     1      -8.910  10.797  64.952  1.00  0.00    -0.187 NA 
HETATM   32  C   UNL     1      -8.101  11.439  65.986  1.00  0.00     0.053 C  
ENDBRANCH  17  26
ENDBRANCH  15  17
ENDBRANCH  13  15
ENDBRANCH  12  13
ENDBRANCH   9  12
ENDBRANCH   5   6
ENDBRANCH   4   5
TORSDOF 9
ENDMDL
MODEL      143
REMARK 921   NORMALIZED FREE ENERGY PREDICTED BY IDOCK:   -5.38 KCAL/MOL
REMARK 922        TOTAL FREE ENERGY PREDICTED BY IDOCK:   -9.68 KCAL/MOL
REMARK 923 INTER-LIGAND FREE ENERGY PREDICTED BY IDOCK:   -8.28 KCAL/MOL
REMARK 924 INTRA-LIGAND FREE ENERGY PREDICTED BY IDOCK:   -1.40 KCAL/MOL
REMARK 927      BINDING AFFINITY PREDICTED BY RF-SCORE:    0.00 PKD
ROOT
HETATM    1  C   UNL     1     -12.983  16.080  73.788  1.00  0.00    -0.621 C  
HETATM    2  C   UNL     1     -12.835  15.844  72.283  1.00  0.00    -0.503 C  
HETATM    3  C   UNL     1     -11.358  15.732  71.909  1.00  0.00    -0.369 C  
HETATM    4  C   UNL     1     -13.661  14.636  71.805  1.00  0.00    -0.415 C  
ENDROOT
BRANCH   4   5
HETATM    5  O   UNL     1     -13.237  13.398  72.394  1.00  0.00    -0.474 OA 
BRANCH   5   6
HETATM    6  C   UNL     1     -12.883  12.421  71.496  1.00  0.00    -0.274 A  
HETATM    7  C   UNL     1     -13.049  11.047  71.699  1.00  0.00    -0.543 A  
HETATM    8  C   UNL     1     -12.443  10.118  70.831  1.00  0.00    -0.455 A  
HETATM    9  C   UNL     1     -11.693  10.554  69.733  1.00  0.00    -0.354 A  
HETATM   10  C   UNL     1     -11.684  11.929  69.443  1.00  0.00    -0.401 A  
HETATM   11  C   UNL     1     -12.272  12.851  70.319  1.00  0.00    -0.362 A  
BRANCH   9  12
HETATM   12  C   UNL     1     -10.722   9.630  69.027  1.00  0.00    -0.211 C  
BRANCH  12  13
HETATM   13  N   UNL     1      -9.407   9.513  69.619  1.00  0.00    -0.186 N  
HETATM   14  H   UNL     1      -9.259   8.935  70.446  1.00  0.00     0.000 HD 
BRANCH  13  15
HETATM   15  C   UNL     1      -8.363  10.197  69.046  1.00  0.00    -0.138 C  
HETATM   16  O   UNL     1      -7.732  11.036  69.694  1.00  0.00    -0.033 OA 
BRANCH  15  17
HETATM   17  N   UNL     1      -8.036   9.871  67.724  1.00  0.00    -0.105 N  
BRANCH  17  18
HETATM   18  C   UNL     1      -7.338   8.564  67.565  1.00  0.00    -0.089 C  
BRANCH  18  19
HETATM   19  C   UNL     1      -8.236   7.323  67.598  1.00  0.00    -0.114 A  
HETATM   20  C   UNL     1      -9.468   4.858  67.178  1.00  0.00    -0.142 A  
HETATM   21  C   UNL     1      -7.998   6.256  68.476  1.00  0.00    -0.105 A  
HETATM   22  C   UNL     1      -8.591   5.013  68.243  1.00  0.00    -0.103 A  
HETATM   23  F   UNL     1      -9.939   3.636  66.881  1.00  0.00    -0.223 F  
HETATM   24  C   UNL     1      -9.833   5.940  66.390  1.00  0.00    -0.161 A  
HETATM   25  C   UNL     1      -9.236   7.182  66.613  1.00  0.00    -0.193 A  
ENDBRANCH  18  19
ENDBRANCH  17  18
BRANCH  17  26
HETATM   26  C   UNL     1      -8.128  10.815  66.549  1.00  0.00    -0.146 C  
HETATM   27  C   UNL     1      -8.087  10.174  65.149  1.00  0.00    -0.148 C  
HETATM   28  C   UNL     1      -9.289  11.858  66.581  1.00  0.00    -0.210 C  
HETATM   29  C   UNL     1      -9.893  11.795  63.477  1.00  0.00    -0.365 C  
HETATM   30  C   UNL     1      -9.460   9.727  64.672  1.00  0.00    -0.229 C  
HETATM   31  N   UNL     1     -10.358  10.865  64.507  1.00  0.00    -0.345 NA 
HETATM   32  C   UNL     1     -10.564  11.506  65.804  1.00  0.00    -0.263 C  
ENDBRANCH  17  26
ENDBRANCH  15  17
ENDBRANCH  13  15
ENDBRANCH  12  13
ENDBRANCH   9  12
ENDBRANCH   5   6
ENDBRANCH   4   5
TORSDOF 9
ENDMDL
MODEL      144
REMARK 921   NORMALIZED FREE ENERGY PREDICTED BY IDOCK:   -5.38 KCAL/MOL
REMARK 922        TOTAL FREE ENERGY PREDICTED BY IDOCK:   -9.67 KCAL/MOL
REMARK 923 INTER-LIGAND FREE ENERGY PREDICTED BY IDOCK:   -7.90 KCAL/MOL
REMARK 924 INTRA-LIGAND FREE ENERGY PREDICTED BY IDOCK:   -1.77 KCAL/MOL
REMARK 927      BINDING AFFINITY PREDICTED BY RF-SCORE:    0.00 PKD
ROOT
HETATM    1  C   UNL     1     -14.388  14.459  71.930  1.00  0.00    -0.627 C  
HETATM    2  C   UNL     1     -13.111  13.622  72.020  1.00  0.00    -0.484 C  
HETATM    3  C   UNL     1     -13.458  12.139  72.127  1.00  0.00    -0.383 C  
HETATM    4  C   UNL     1     -12.141  13.923  70.862  1.00  0.00    -0.313 C  
ENDROOT
BRANCH   4   5
HETATM    5  O   UNL     1     -12.685  13.591  69.576  1.00  0.00     0.018 OA 
BRANCH   5   6
HETATM    6  C   UNL     1     -11.891  12.778  68.804  1.00  0.00    -0.307 A  
HETATM    7  C   UNL     1     -11.776  12.856  67.413  1.00  0.00    -0.428 A  
HETATM    8  C   UNL     1     -11.127  11.836  66.691  1.00  0.00    -0.364 A  
HETATM    9  C   UNL     1     -10.558  10.744  67.356  1.00  0.00    -0.287 A  
HETATM   10  C   UNL     1     -10.527  10.770  68.761  1.00  0.00    -0.221 A  
HETATM   11  C   UNL     1     -11.190  11.777  69.475  1.00  0.00    -0.265 A  
BRANCH   9  12
HETATM   12  C   UNL     1     -10.215   9.466  66.620  1.00  0.00    -0.249 C  
BRANCH  12  13
HETATM   13  N   UNL     1     -10.716   8.240  67.200  1.00  0.00    -0.446 N  
HETATM   14  H   UNL     1     -11.708   8.008  67.149  1.00  0.00     0.000 HD 
BRANCH  13  15
HETATM   15  C   UNL     1      -9.831   7.394  67.823  1.00  0.00    -0.152 C  
HETATM   16  O   UNL     1      -8.679   7.761  68.068  1.00  0.00    -0.126 OA 
BRANCH  15  17
HETATM   17  N   UNL     1     -10.307   6.129  68.189  1.00  0.00    -0.175 N  
BRANCH  17  18
HETATM   18  C   UNL     1     -11.286   6.140  69.312  1.00  0.00    -0.367 C  
BRANCH  18  19
HETATM   19  C   UNL     1     -10.778   6.733  70.630  1.00  0.00    -0.273 A  
HETATM   20  C   UNL     1      -9.330   7.976  72.662  1.00  0.00    -0.248 A  
HETATM   21  C   UNL     1     -11.102   8.037  71.031  1.00  0.00    -0.275 A  
HETATM   22  C   UNL     1     -10.352   8.669  72.026  1.00  0.00    -0.416 A  
HETATM   23  F   UNL     1      -8.532   8.622  73.528  1.00  0.00    -0.268 F  
HETATM   24  C   UNL     1      -9.096   6.637  72.385  1.00  0.00    -0.139 A  
HETATM   25  C   UNL     1      -9.835   6.005  71.385  1.00  0.00    -0.204 A  
ENDBRANCH  18  19
ENDBRANCH  17  18
BRANCH  17  26
HETATM   26  C   UNL     1      -9.743   4.815  67.704  1.00  0.00    -0.160 C  
HETATM   27  C   UNL     1     -10.137   4.383  66.279  1.00  0.00    -0.249 C  
HETATM   28  C   UNL     1      -8.205   4.610  67.874  1.00  0.00    -0.099 C  
HETATM   29  C   UNL     1      -7.768   3.021  65.175  1.00  0.00    -0.081 C  
HETATM   30  C   UNL     1      -9.218   4.966  65.217  1.00  0.00    -0.139 C  
HETATM   31  N   UNL     1      -7.855   4.469  65.366  1.00  0.00    -0.089 NA 
HETATM   32  C   UNL     1      -7.322   4.907  66.654  1.00  0.00    -0.082 C  
ENDBRANCH  17  26
ENDBRANCH  15  17
ENDBRANCH  13  15
ENDBRANCH  12  13
ENDBRANCH   9  12
ENDBRANCH   5   6
ENDBRANCH   4   5
TORSDOF 9
ENDMDL
MODEL      145
REMARK 921   NORMALIZED FREE ENERGY PREDICTED BY IDOCK:   -5.37 KCAL/MOL
REMARK 922        TOTAL FREE ENERGY PREDICTED BY IDOCK:   -9.66 KCAL/MOL
REMARK 923 INTER-LIGAND FREE ENERGY PREDICTED BY IDOCK:   -6.83 KCAL/MOL
REMARK 924 INTRA-LIGAND FREE ENERGY PREDICTED BY IDOCK:   -2.84 KCAL/MOL
REMARK 927      BINDING AFFINITY PREDICTED BY RF-SCORE:    0.00 PKD
ROOT
HETATM    1  C   UNL     1     -10.634  16.132  65.708  1.00  0.00    -0.347 C  
HETATM    2  C   UNL     1      -9.545  15.062  65.795  1.00  0.00    -0.327 C  
HETATM    3  C   UNL     1      -8.407  15.540  66.695  1.00  0.00    -0.286 C  
HETATM    4  C   UNL     1     -10.111  13.697  66.228  1.00  0.00    -0.299 C  
ENDROOT
BRANCH   4   5
HETATM    5  O   UNL     1     -10.683  13.719  67.543  1.00  0.00    -0.253 OA 
BRANCH   5   6
HETATM    6  C   UNL     1     -10.722  12.501  68.178  1.00  0.00    -0.227 A  
HETATM    7  C   UNL     1     -11.886  11.864  68.619  1.00  0.00    -0.365 A  
HETATM    8  C   UNL     1     -11.809  10.740  69.464  1.00  0.00    -0.380 A  
HETATM    9  C   UNL     1     -10.567  10.222  69.850  1.00  0.00    -0.324 A  
HETATM   10  C   UNL     1      -9.414  10.764  69.258  1.00  0.00    -0.103 A  
HETATM   11  C   UNL     1      -9.493  11.893  68.432  1.00  0.00    -0.189 A  
BRANCH   9  12
HETATM   12  C   UNL     1     -10.437   9.294  71.040  1.00  0.00    -0.314 C  
BRANCH  12  13
HETATM   13  N   UNL     1     -10.007   7.944  70.752  1.00  0.00    -0.184 N  
HETATM   14  H   UNL     1      -9.024   7.684  70.829  1.00  0.00     0.000 HD 
BRANCH  13  15
HETATM   15  C   UNL     1     -10.948   7.018  70.374  1.00  0.00    -0.268 C  
HETATM   16  O   UNL     1     -12.095   7.069  70.826  1.00  0.00    -0.355 OA 
BRANCH  15  17
HETATM   17  N   UNL     1     -10.554   6.053  69.438  1.00  0.00    -0.263 N  
BRANCH  17  18
HETATM   18  C   UNL     1     -10.876   6.397  68.024  1.00  0.00    -0.316 C  
BRANCH  18  19
HETATM   19  C   UNL     1     -10.052   7.535  67.413  1.00  0.00    -0.282 A  
HETATM   20  C   UNL     1      -8.476   9.177  65.804  1.00  0.00    -0.141 A  
HETATM   21  C   UNL     1     -10.643   8.555  66.653  1.00  0.00    -0.118 A  
HETATM   22  C   UNL     1      -9.854   9.354  65.822  1.00  0.00    -0.345 A  
HETATM   23  F   UNL     1      -7.734   9.859  64.916  1.00  0.00    -0.112 F  
HETATM   24  C   UNL     1      -7.860   8.278  66.661  1.00  0.00    -0.094 A  
HETATM   25  C   UNL     1      -8.645   7.470  67.486  1.00  0.00    -0.122 A  
ENDBRANCH  18  19
ENDBRANCH  17  18
BRANCH  17  26
HETATM   26  C   UNL     1     -10.067   4.664  69.775  1.00  0.00    -0.173 C  
HETATM   27  C   UNL     1      -8.944   4.096  68.888  1.00  0.00    -0.162 C  
HETATM   28  C   UNL     1      -9.699   4.398  71.269  1.00  0.00    -0.252 C  
HETATM   29  C   UNL     1      -7.244   2.492  70.682  1.00  0.00    -0.033 C  
HETATM   30  C   UNL     1      -7.560   4.505  69.364  1.00  0.00    -0.055 C  
HETATM   31  N   UNL     1      -7.271   3.955  70.684  1.00  0.00    -0.037 NA 
HETATM   32  C   UNL     1      -8.217   4.507  71.652  1.00  0.00    -0.102 C  
ENDBRANCH  17  26
ENDBRANCH  15  17
ENDBRANCH  13  15
ENDBRANCH  12  13
ENDBRANCH   9  12
ENDBRANCH   5   6
ENDBRANCH   4   5
TORSDOF 9
ENDMDL
MODEL      146
REMARK 921   NORMALIZED FREE ENERGY PREDICTED BY IDOCK:   -5.37 KCAL/MOL
REMARK 922        TOTAL FREE ENERGY PREDICTED BY IDOCK:   -9.66 KCAL/MOL
REMARK 923 INTER-LIGAND FREE ENERGY PREDICTED BY IDOCK:   -8.27 KCAL/MOL
REMARK 924 INTRA-LIGAND FREE ENERGY PREDICTED BY IDOCK:   -1.39 KCAL/MOL
REMARK 927      BINDING AFFINITY PREDICTED BY RF-SCORE:    0.00 PKD
ROOT
HETATM    1  C   UNL     1     -11.419   2.306  73.519  1.00  0.00    -0.291 C  
HETATM    2  C   UNL     1     -10.323   3.363  73.374  1.00  0.00    -0.243 C  
HETATM    3  C   UNL     1      -9.729   3.318  71.968  1.00  0.00    -0.235 C  
HETATM    4  C   UNL     1     -10.823   4.768  73.762  1.00  0.00    -0.310 C  
ENDROOT
BRANCH   4   5
HETATM    5  O   UNL     1     -11.878   5.241  72.913  1.00  0.00    -0.271 OA 
BRANCH   5   6
HETATM    6  C   UNL     1     -11.560   6.339  72.150  1.00  0.00    -0.319 A  
HETATM    7  C   UNL     1     -11.525   6.360  70.752  1.00  0.00    -0.415 A  
HETATM    8  C   UNL     1     -10.961   7.455  70.068  1.00  0.00    -0.264 A  
HETATM    9  C   UNL     1     -10.456   8.552  70.775  1.00  0.00    -0.239 A  
HETATM   10  C   UNL     1     -10.659   8.592  72.165  1.00  0.00    -0.411 A  
HETATM   11  C   UNL     1     -11.204   7.494  72.844  1.00  0.00    -0.396 A  
BRANCH   9  12
HETATM   12  C   UNL     1      -9.508   9.538  70.124  1.00  0.00    -0.246 C  
BRANCH  12  13
HETATM   13  N   UNL     1     -10.098  10.766  69.639  1.00  0.00    -0.442 N  
HETATM   14  H   UNL     1     -10.035  11.625  70.186  1.00  0.00     0.000 HD 
BRANCH  13  15
HETATM   15  C   UNL     1     -10.745  10.754  68.428  1.00  0.00    -0.217 C  
HETATM   16  O   UNL     1     -11.977  10.757  68.375  1.00  0.00    -0.508 OA 
BRANCH  15  17
HETATM   17  N   UNL     1      -9.946  10.772  67.277  1.00  0.00    -0.182 N  
BRANCH  17  18
HETATM   18  C   UNL     1      -9.182  12.036  67.077  1.00  0.00    -0.195 C  
BRANCH  18  19
HETATM   19  C   UNL     1      -9.941  13.328  67.394  1.00  0.00    -0.233 A  
HETATM   20  C   UNL     1     -10.782  15.966  67.723  1.00  0.00    -0.320 A  
HETATM   21  C   UNL     1     -10.850  13.898  66.491  1.00  0.00    -0.295 A  
HETATM   22  C   UNL     1     -11.243  15.230  66.640  1.00  0.00    -0.232 A  
HETATM   23  F   UNL     1     -11.060  17.277  67.798  1.00  0.00    -0.349 F  
HETATM   24  C   UNL     1     -10.005  15.375  68.709  1.00  0.00    -0.208 A  
HETATM   25  C   UNL     1      -9.602  14.047  68.560  1.00  0.00    -0.201 A  
ENDBRANCH  18  19
ENDBRANCH  17  18
BRANCH  17  26
HETATM   26  C   UNL     1      -9.993   9.746  66.171  1.00  0.00    -0.268 C  
HETATM   27  C   UNL     1      -9.169  10.060  64.908  1.00  0.00    -0.291 C  
HETATM   28  C   UNL     1      -9.722   8.264  66.581  1.00  0.00    -0.321 C  
HETATM   29  C   UNL     1      -8.139   7.466  63.962  1.00  0.00    -0.031 C  
HETATM   30  C   UNL     1      -7.723   9.606  65.028  1.00  0.00    -0.119 C  
HETATM   31  N   UNL     1      -7.632   8.155  65.149  1.00  0.00    -0.091 NA 
HETATM   32  C   UNL     1      -8.296   7.735  66.381  1.00  0.00    -0.131 C  
ENDBRANCH  17  26
ENDBRANCH  15  17
ENDBRANCH  13  15
ENDBRANCH  12  13
ENDBRANCH   9  12
ENDBRANCH   5   6
ENDBRANCH   4   5
TORSDOF 9
ENDMDL
MODEL      147
REMARK 921   NORMALIZED FREE ENERGY PREDICTED BY IDOCK:   -5.35 KCAL/MOL
REMARK 922        TOTAL FREE ENERGY PREDICTED BY IDOCK:   -9.63 KCAL/MOL
REMARK 923 INTER-LIGAND FREE ENERGY PREDICTED BY IDOCK:   -8.38 KCAL/MOL
REMARK 924 INTRA-LIGAND FREE ENERGY PREDICTED BY IDOCK:   -1.25 KCAL/MOL
REMARK 927      BINDING AFFINITY PREDICTED BY RF-SCORE:    0.00 PKD
ROOT
HETATM    1  C   UNL     1      -8.937   4.887  72.594  1.00  0.00    -0.135 C  
HETATM    2  C   UNL     1     -10.430   4.675  72.334  1.00  0.00    -0.250 C  
HETATM    3  C   UNL     1     -11.133   4.240  73.617  1.00  0.00    -0.351 C  
HETATM    4  C   UNL     1     -11.083   5.912  71.688  1.00  0.00    -0.258 C  
ENDROOT
BRANCH   4   5
HETATM    5  O   UNL     1     -11.038   7.073  72.530  1.00  0.00    -0.250 OA 
BRANCH   5   6
HETATM    6  C   UNL     1     -11.523   8.223  71.956  1.00  0.00    -0.334 A  
HETATM    7  C   UNL     1     -10.803   9.051  71.089  1.00  0.00    -0.364 A  
HETATM    8  C   UNL     1     -11.297  10.324  70.742  1.00  0.00    -0.421 A  
HETATM    9  C   UNL     1     -12.531  10.767  71.233  1.00  0.00    -0.504 A  
HETATM   10  C   UNL     1     -13.319   9.856  71.957  1.00  0.00    -0.532 A  
HETATM   11  C   UNL     1     -12.817   8.598  72.315  1.00  0.00    -0.438 A  
BRANCH   9  12
HETATM   12  C   UNL     1     -12.904  12.235  71.214  1.00  0.00    -0.239 C  
BRANCH  12  13
HETATM   13  N   UNL     1     -11.867  13.152  70.797  1.00  0.00    -0.475 N  
HETATM   14  H   UNL     1     -11.161  13.475  71.460  1.00  0.00     0.000 HD 
BRANCH  13  15
HETATM   15  C   UNL     1     -11.850  13.581  69.493  1.00  0.00    -0.334 C  
HETATM   16  O   UNL     1     -12.835  13.424  68.768  1.00  0.00     0.669 OA 
BRANCH  15  17
HETATM   17  N   UNL     1     -10.688  14.226  69.049  1.00  0.00    -0.250 N  
BRANCH  17  18
HETATM   18  C   UNL     1     -10.401  15.520  69.731  1.00  0.00    -0.309 C  
BRANCH  18  19
HETATM   19  C   UNL     1      -9.538  16.509  68.942  1.00  0.00    -0.261 A  
HETATM   20  C   UNL     1      -8.093  18.707  68.018  1.00  0.00    -0.275 A  
HETATM   21  C   UNL     1      -8.141  16.538  69.065  1.00  0.00    -0.214 A  
HETATM   22  C   UNL     1      -7.424  17.656  68.632  1.00  0.00    -0.273 A  
HETATM   23  F   UNL     1      -7.424  19.831  67.715  1.00  0.00    -0.286 F  
HETATM   24  C   UNL     1      -9.452  18.629  67.751  1.00  0.00    -0.326 A  
HETATM   25  C   UNL     1     -10.174  17.519  68.191  1.00  0.00    -0.359 A  
ENDBRANCH  18  19
ENDBRANCH  17  18
BRANCH  17  26
HETATM   26  C   UNL     1      -9.889  13.833  67.830  1.00  0.00    -0.234 C  
HETATM   27  C   UNL     1      -9.179  12.467  67.885  1.00  0.00    -0.200 C  
HETATM   28  C   UNL     1     -10.611  13.957  66.451  1.00  0.00    -0.280 C  
HETATM   29  C   UNL     1      -9.307  11.389  65.146  1.00  0.00    -0.152 C  
HETATM   30  C   UNL     1     -10.078  11.323  67.447  1.00  0.00    -0.188 C  
HETATM   31  N   UNL     1     -10.460  11.458  66.045  1.00  0.00    -0.248 NA 
HETATM   32  C   UNL     1     -11.241  12.682  65.876  1.00  0.00    -0.314 C  
ENDBRANCH  17  26
ENDBRANCH  15  17
ENDBRANCH  13  15
ENDBRANCH  12  13
ENDBRANCH   9  12
ENDBRANCH   5   6
ENDBRANCH   4   5
TORSDOF 9
ENDMDL
MODEL      148
REMARK 921   NORMALIZED FREE ENERGY PREDICTED BY IDOCK:   -5.35 KCAL/MOL
REMARK 922        TOTAL FREE ENERGY PREDICTED BY IDOCK:   -9.63 KCAL/MOL
REMARK 923 INTER-LIGAND FREE ENERGY PREDICTED BY IDOCK:   -8.20 KCAL/MOL
REMARK 924 INTRA-LIGAND FREE ENERGY PREDICTED BY IDOCK:   -1.42 KCAL/MOL
REMARK 927      BINDING AFFINITY PREDICTED BY RF-SCORE:    0.00 PKD
ROOT
HETATM    1  C   UNL     1     -13.298  15.892  73.574  1.00  0.00    -0.516 C  
HETATM    2  C   UNL     1     -13.110  15.832  72.057  1.00  0.00    -0.504 C  
HETATM    3  C   UNL     1     -11.628  15.929  71.704  1.00  0.00    -0.541 C  
HETATM    4  C   UNL     1     -13.788  14.594  71.441  1.00  0.00    -0.403 C  
ENDROOT
BRANCH   4   5
HETATM    5  O   UNL     1     -13.229  13.359  71.910  1.00  0.00    -0.392 OA 
BRANCH   5   6
HETATM    6  C   UNL     1     -12.533  12.643  70.965  1.00  0.00    -0.260 A  
HETATM    7  C   UNL     1     -11.976  13.181  69.802  1.00  0.00    -0.382 A  
HETATM    8  C   UNL     1     -11.490  12.336  68.785  1.00  0.00    -0.360 A  
HETATM    9  C   UNL     1     -11.528  10.946  68.936  1.00  0.00    -0.369 A  
HETATM   10  C   UNL     1     -11.926  10.428  70.180  1.00  0.00    -0.357 A  
HETATM   11  C   UNL     1     -12.425  11.270  71.182  1.00  0.00    -0.479 A  
BRANCH   9  12
HETATM   12  C   UNL     1     -11.394  10.021  67.744  1.00  0.00     0.106 C  
BRANCH  12  13
HETATM   13  N   UNL     1     -10.973   8.667  68.031  1.00  0.00    -0.474 N  
HETATM   14  H   UNL     1     -11.383   8.148  68.807  1.00  0.00     0.000 HD 
BRANCH  13  15
HETATM   15  C   UNL     1     -10.009   8.094  67.238  1.00  0.00    -0.218 C  
HETATM   16  O   UNL     1     -10.288   7.149  66.495  1.00  0.00    -0.170 OA 
BRANCH  15  17
HETATM   17  N   UNL     1      -8.725   8.651  67.290  1.00  0.00    -0.128 N  
BRANCH  17  18
HETATM   18  C   UNL     1      -8.112   8.913  65.957  1.00  0.00    -0.111 C  
BRANCH  18  19
HETATM   19  C   UNL     1      -8.721  10.073  65.163  1.00  0.00    -0.183 A  
HETATM   20  C   UNL     1     -10.389  11.846  63.805  1.00  0.00    -0.415 A  
HETATM   21  C   UNL     1      -9.150  11.255  65.784  1.00  0.00    -0.216 A  
HETATM   22  C   UNL     1     -10.013  12.124  65.113  1.00  0.00    -0.251 A  
HETATM   23  F   UNL     1     -11.314  12.614  63.206  1.00  0.00    -0.493 F  
HETATM   24  C   UNL     1      -9.855  10.763  63.123  1.00  0.00    -0.378 A  
HETATM   25  C   UNL     1      -9.000   9.887  63.793  1.00  0.00    -0.279 A  
ENDBRANCH  18  19
ENDBRANCH  17  18
BRANCH  17  26
HETATM   26  C   UNL     1      -7.881   8.772  68.536  1.00  0.00    -0.104 C  
HETATM   27  C   UNL     1      -7.923   7.583  69.513  1.00  0.00    -0.126 C  
HETATM   28  C   UNL     1      -6.391   9.190  68.330  1.00  0.00    -0.054 C  
HETATM   29  C   UNL     1      -5.204   7.371  70.629  1.00  0.00    -0.023 C  
HETATM   30  C   UNL     1      -6.922   6.497  69.153  1.00  0.00    -0.075 C  
HETATM   31  N   UNL     1      -5.551   6.985  69.260  1.00  0.00    -0.015 NA 
HETATM   32  C   UNL     1      -5.349   8.064  68.295  1.00  0.00    -0.033 C  
ENDBRANCH  17  26
ENDBRANCH  15  17
ENDBRANCH  13  15
ENDBRANCH  12  13
ENDBRANCH   9  12
ENDBRANCH   5   6
ENDBRANCH   4   5
TORSDOF 9
ENDMDL
MODEL      149
REMARK 921   NORMALIZED FREE ENERGY PREDICTED BY IDOCK:   -5.33 KCAL/MOL
REMARK 922        TOTAL FREE ENERGY PREDICTED BY IDOCK:   -9.61 KCAL/MOL
REMARK 923 INTER-LIGAND FREE ENERGY PREDICTED BY IDOCK:   -8.72 KCAL/MOL
REMARK 924 INTRA-LIGAND FREE ENERGY PREDICTED BY IDOCK:   -0.89 KCAL/MOL
REMARK 927      BINDING AFFINITY PREDICTED BY RF-SCORE:    0.00 PKD
ROOT
HETATM    1  C   UNL     1      -9.149   2.486  65.603  1.00  0.00    -0.108 C  
HETATM    2  C   UNL     1      -9.252   3.845  64.908  1.00  0.00    -0.149 C  
HETATM    3  C   UNL     1     -10.488   3.887  64.012  1.00  0.00    -0.237 C  
HETATM    4  C   UNL     1      -9.208   5.011  65.913  1.00  0.00    -0.157 C  
ENDROOT
BRANCH   4   5
HETATM    5  O   UNL     1     -10.312   5.003  66.829  1.00  0.00    -0.236 OA 
BRANCH   5   6
HETATM    6  C   UNL     1     -10.104   5.704  67.993  1.00  0.00    -0.171 A  
HETATM    7  C   UNL     1     -11.109   6.100  68.880  1.00  0.00    -0.417 A  
HETATM    8  C   UNL     1     -10.828   7.012  69.917  1.00  0.00    -0.280 A  
HETATM    9  C   UNL     1      -9.533   7.511  70.095  1.00  0.00    -0.161 A  
HETATM   10  C   UNL     1      -8.503   6.968  69.308  1.00  0.00    -0.133 A  
HETATM   11  C   UNL     1      -8.788   6.075  68.267  1.00  0.00    -0.111 A  
BRANCH   9  12
HETATM   12  C   UNL     1      -9.276   8.759  70.914  1.00  0.00    -0.212 C  
BRANCH  12  13
HETATM   13  N   UNL     1     -10.006   9.943  70.520  1.00  0.00    -0.375 N  
HETATM   14  H   UNL     1     -10.860  10.213  71.007  1.00  0.00     0.000 HD 
BRANCH  13  15
HETATM   15  C   UNL     1      -9.527  10.697  69.477  1.00  0.00    -0.011 C  
HETATM   16  O   UNL     1      -8.336  10.645  69.161  1.00  0.00    -0.151 OA 
BRANCH  15  17
HETATM   17  N   UNL     1     -10.452  11.487  68.783  1.00  0.00    -0.206 N  
BRANCH  17  18
HETATM   18  C   UNL     1     -11.841  11.428  69.322  1.00  0.00    -0.349 C  
BRANCH  18  19
HETATM   19  C   UNL     1     -12.193  12.490  70.368  1.00  0.00    -0.368 A  
HETATM   20  C   UNL     1     -13.341  14.541  71.867  1.00  0.00    -0.365 A  
HETATM   21  C   UNL     1     -12.962  12.190  71.502  1.00  0.00    -0.398 A  
HETATM   22  C   UNL     1     -13.563  13.219  72.230  1.00  0.00    -0.703 A  
HETATM   23  F   UNL     1     -14.016  15.520  72.489  1.00  0.00    -0.515 F  
HETATM   24  C   UNL     1     -12.462  14.861  70.843  1.00  0.00    -0.395 A  
HETATM   25  C   UNL     1     -11.866  13.837  70.106  1.00  0.00    -0.360 A  
ENDBRANCH  18  19
ENDBRANCH  17  18
BRANCH  17  26
HETATM   26  C   UNL     1     -10.195  12.166  67.459  1.00  0.00    -0.199 C  
HETATM   27  C   UNL     1     -11.405  12.318  66.519  1.00  0.00    -0.403 C  
HETATM   28  C   UNL     1      -9.435  13.529  67.511  1.00  0.00    -0.222 C  
HETATM   29  C   UNL     1     -11.032  14.902  65.152  1.00  0.00    -0.399 C  
HETATM   30  C   UNL     1     -12.212  13.574  66.805  1.00  0.00    -0.340 C  
HETATM   31  N   UNL     1     -11.426  14.777  66.556  1.00  0.00    -0.349 NA 
HETATM   32  C   UNL     1     -10.287  14.804  67.472  1.00  0.00    -0.238 C  
ENDBRANCH  17  26
ENDBRANCH  15  17
ENDBRANCH  13  15
ENDBRANCH  12  13
ENDBRANCH   9  12
ENDBRANCH   5   6
ENDBRANCH   4   5
TORSDOF 9
ENDMDL
MODEL      150
REMARK 921   NORMALIZED FREE ENERGY PREDICTED BY IDOCK:   -5.33 KCAL/MOL
REMARK 922        TOTAL FREE ENERGY PREDICTED BY IDOCK:   -9.60 KCAL/MOL
REMARK 923 INTER-LIGAND FREE ENERGY PREDICTED BY IDOCK:   -7.91 KCAL/MOL
REMARK 924 INTRA-LIGAND FREE ENERGY PREDICTED BY IDOCK:   -1.70 KCAL/MOL
REMARK 927      BINDING AFFINITY PREDICTED BY RF-SCORE:    0.00 PKD
ROOT
HETATM    1  C   UNL     1      -8.542   3.096  72.255  1.00  0.00    -0.093 C  
HETATM    2  C   UNL     1      -9.925   3.635  71.887  1.00  0.00    -0.223 C  
HETATM    3  C   UNL     1     -10.801   3.737  73.134  1.00  0.00    -0.257 C  
HETATM    4  C   UNL     1      -9.839   4.964  71.112  1.00  0.00    -0.192 C  
ENDROOT
BRANCH   4   5
HETATM    5  O   UNL     1      -9.246   6.021  71.878  1.00  0.00    -0.150 OA 
BRANCH   5   6
HETATM    6  C   UNL     1      -9.983   7.180  71.934  1.00  0.00    -0.167 A  
HETATM    7  C   UNL     1     -11.252   7.295  72.509  1.00  0.00    -0.342 A  
HETATM    8  C   UNL     1     -12.025   8.456  72.309  1.00  0.00    -0.455 A  
HETATM    9  C   UNL     1     -11.522   9.526  71.559  1.00  0.00    -0.466 A  
HETATM   10  C   UNL     1     -10.182   9.465  71.139  1.00  0.00    -0.361 A  
HETATM   11  C   UNL     1      -9.423   8.302  71.324  1.00  0.00    -0.219 A  
BRANCH   9  12
HETATM   12  C   UNL     1     -12.438  10.593  70.998  1.00  0.00    -0.413 C  
BRANCH  12  13
HETATM   13  N   UNL     1     -12.496  10.691  69.556  1.00  0.00    -0.521 N  
HETATM   14  H   UNL     1     -13.070  10.045  69.014  1.00  0.00     0.000 HD 
BRANCH  13  15
HETATM   15  C   UNL     1     -11.764  11.670  68.931  1.00  0.00    -0.334 C  
HETATM   16  O   UNL     1     -11.099  12.473  69.590  1.00  0.00    -0.086 OA 
BRANCH  15  17
HETATM   17  N   UNL     1     -11.783  11.686  67.531  1.00  0.00    -0.263 N  
BRANCH  17  18
HETATM   18  C   UNL     1     -11.177  10.484  66.892  1.00  0.00     0.081 C  
BRANCH  18  19
HETATM   19  C   UNL     1      -9.671  10.307  67.105  1.00  0.00    -0.210 A  
HETATM   20  C   UNL     1      -6.940   9.804  66.859  1.00  0.00    -0.088 A  
HETATM   21  C   UNL     1      -8.768  11.369  66.950  1.00  0.00    -0.165 A  
HETATM   22  C   UNL     1      -7.405  11.110  66.793  1.00  0.00    -0.146 A  
HETATM   23  F   UNL     1      -5.651   9.545  66.585  1.00  0.00    -0.043 F  
HETATM   24  C   UNL     1      -7.797   8.756  67.163  1.00  0.00    -0.096 A  
HETATM   25  C   UNL     1      -9.161   9.008  67.310  1.00  0.00    -0.159 A  
ENDBRANCH  18  19
ENDBRANCH  17  18
BRANCH  17  26
HETATM   26  C   UNL     1     -12.143  12.881  66.680  1.00  0.00    -0.289 C  
HETATM   27  C   UNL     1     -11.700  14.258  67.208  1.00  0.00    -0.422 C  
HETATM   28  C   UNL     1     -11.779  12.793  65.165  1.00  0.00    -0.396 C  
HETATM   29  C   UNL     1     -10.993  15.837  64.823  1.00  0.00    -0.393 C  
HETATM   30  C   UNL     1     -10.281  14.613  66.795  1.00  0.00    -0.268 C  
HETATM   31  N   UNL     1     -10.170  14.745  65.346  1.00  0.00    -0.367 NA 
HETATM   32  C   UNL     1     -10.469  13.458  64.722  1.00  0.00    -0.403 C  
ENDBRANCH  17  26
ENDBRANCH  15  17
ENDBRANCH  13  15
ENDBRANCH  12  13
ENDBRANCH   9  12
ENDBRANCH   5   6
ENDBRANCH   4   5
TORSDOF 9
ENDMDL
MODEL      151
REMARK 921   NORMALIZED FREE ENERGY PREDICTED BY IDOCK:   -5.31 KCAL/MOL
REMARK 922        TOTAL FREE ENERGY PREDICTED BY IDOCK:   -9.58 KCAL/MOL
REMARK 923 INTER-LIGAND FREE ENERGY PREDICTED BY IDOCK:   -7.38 KCAL/MOL
REMARK 924 INTRA-LIGAND FREE ENERGY PREDICTED BY IDOCK:   -2.20 KCAL/MOL
REMARK 927      BINDING AFFINITY PREDICTED BY RF-SCORE:    0.00 PKD
ROOT
HETATM    1  C   UNL     1      -9.056  10.128  62.558  1.00  0.00    -0.302 C  
HETATM    2  C   UNL     1      -8.289   9.054  63.332  1.00  0.00    -0.187 C  
HETATM    3  C   UNL     1      -6.787   9.224  63.123  1.00  0.00    -0.090 C  
HETATM    4  C   UNL     1      -8.682   9.027  64.822  1.00  0.00    -0.153 C  
ENDROOT
BRANCH   4   5
HETATM    5  O   UNL     1      -8.362  10.246  65.508  1.00  0.00    -0.151 OA 
BRANCH   5   6
HETATM    6  C   UNL     1      -9.446  10.942  65.986  1.00  0.00    -0.203 A  
HETATM    7  C   UNL     1      -9.909  12.157  65.471  1.00  0.00    -0.240 A  
HETATM    8  C   UNL     1     -10.874  12.908  66.170  1.00  0.00    -0.300 A  
HETATM    9  C   UNL     1     -11.407  12.437  67.375  1.00  0.00    -0.381 A  
HETATM   10  C   UNL     1     -11.062  11.138  67.787  1.00  0.00    -0.344 A  
HETATM   11  C   UNL     1     -10.090  10.401  67.098  1.00  0.00    -0.254 A  
BRANCH   9  12
HETATM   12  C   UNL     1     -12.122  13.365  68.335  1.00  0.00    -0.235 C  
BRANCH  12  13
HETATM   13  N   UNL     1     -12.139  14.766  67.977  1.00  0.00    -0.579 N  
HETATM   14  H   UNL     1     -12.465  15.063  67.057  1.00  0.00     0.000 HD 
BRANCH  13  15
HETATM   15  C   UNL     1     -11.707  15.688  68.897  1.00  0.00    -0.384 C  
HETATM   16  O   UNL     1     -12.284  15.811  69.980  1.00  0.00    -0.365 OA 
BRANCH  15  17
HETATM   17  N   UNL     1     -10.575  16.442  68.562  1.00  0.00    -0.286 N  
BRANCH  17  18
HETATM   18  C   UNL     1      -9.453  16.338  69.538  1.00  0.00    -0.068 C  
BRANCH  18  19
HETATM   19  C   UNL     1      -8.332  15.366  69.159  1.00  0.00    -0.242 A  
HETATM   20  C   UNL     1      -6.515  13.700  67.857  1.00  0.00    -0.156 A  
HETATM   21  C   UNL     1      -7.020  15.801  68.921  1.00  0.00    -0.135 A  
HETATM   22  C   UNL     1      -6.123  14.976  68.238  1.00  0.00    -0.122 A  
HETATM   23  F   UNL     1      -5.697  12.956  67.095  1.00  0.00    -0.125 F  
HETATM   24  C   UNL     1      -7.757  13.197  68.218  1.00  0.00    -0.141 A  
HETATM   25  C   UNL     1      -8.660  14.021  68.891  1.00  0.00     0.053 A  
ENDBRANCH  18  19
ENDBRANCH  17  18
BRANCH  17  26
HETATM   26  C   UNL     1     -10.515  17.478  67.465  1.00  0.00    -0.355 C  
HETATM   27  C   UNL     1     -10.345  18.942  67.911  1.00  0.00    -0.473 C  
HETATM   28  C   UNL     1      -9.518  17.199  66.296  1.00  0.00    -0.267 C  
HETATM   29  C   UNL     1      -8.646  20.207  65.862  1.00  0.00    -0.044 C  
HETATM   30  C   UNL     1      -8.888  19.326  68.110  1.00  0.00    -0.330 C  
HETATM   31  N   UNL     1      -8.146  19.257  66.856  1.00  0.00    -0.259 NA 
HETATM   32  C   UNL     1      -8.144  17.877  66.375  1.00  0.00    -0.261 C  
ENDBRANCH  17  26
ENDBRANCH  15  17
ENDBRANCH  13  15
ENDBRANCH  12  13
ENDBRANCH   9  12
ENDBRANCH   5   6
ENDBRANCH   4   5
TORSDOF 9
ENDMDL
MODEL      152
REMARK 921   NORMALIZED FREE ENERGY PREDICTED BY IDOCK:   -5.31 KCAL/MOL
REMARK 922        TOTAL FREE ENERGY PREDICTED BY IDOCK:   -9.56 KCAL/MOL
REMARK 923 INTER-LIGAND FREE ENERGY PREDICTED BY IDOCK:   -7.56 KCAL/MOL
REMARK 924 INTRA-LIGAND FREE ENERGY PREDICTED BY IDOCK:   -2.01 KCAL/MOL
REMARK 927      BINDING AFFINITY PREDICTED BY RF-SCORE:    0.00 PKD
ROOT
HETATM    1  C   UNL     1     -14.124  14.405  71.989  1.00  0.00    -0.620 C  
HETATM    2  C   UNL     1     -12.801  13.648  71.857  1.00  0.00    -0.381 C  
HETATM    3  C   UNL     1     -13.055  12.143  71.820  1.00  0.00    -0.457 C  
HETATM    4  C   UNL     1     -11.972  14.141  70.656  1.00  0.00    -0.315 C  
ENDROOT
BRANCH   4   5
HETATM    5  O   UNL     1     -12.625  13.921  69.398  1.00  0.00    -0.178 OA 
BRANCH   5   6
HETATM    6  C   UNL     1     -11.863  13.274  68.455  1.00  0.00    -0.360 A  
HETATM    7  C   UNL     1     -12.133  13.252  67.083  1.00  0.00    -0.352 A  
HETATM    8  C   UNL     1     -11.435  12.373  66.232  1.00  0.00    -0.423 A  
HETATM    9  C   UNL     1     -10.440  11.530  66.739  1.00  0.00    -0.275 A  
HETATM   10  C   UNL     1     -10.061  11.691  68.083  1.00  0.00    -0.202 A  
HETATM   11  C   UNL     1     -10.768  12.553  68.931  1.00  0.00    -0.202 A  
BRANCH   9  12
HETATM   12  C   UNL     1      -9.960  10.323  65.961  1.00  0.00    -0.245 C  
BRANCH  12  13
HETATM   13  N   UNL     1     -10.159   9.036  66.591  1.00  0.00    -0.278 N  
HETATM   14  H   UNL     1     -11.092   8.629  66.658  1.00  0.00     0.000 HD 
BRANCH  13  15
HETATM   15  C   UNL     1      -9.069   8.373  67.098  1.00  0.00    -0.138 C  
HETATM   16  O   UNL     1      -7.954   8.901  67.089  1.00  0.00    -0.095 OA 
BRANCH  15  17
HETATM   17  N   UNL     1      -9.292   7.104  67.646  1.00  0.00    -0.127 N  
BRANCH  17  18
HETATM   18  C   UNL     1     -10.659   6.905  68.205  1.00  0.00    -0.215 C  
BRANCH  18  19
HETATM   19  C   UNL     1     -10.865   7.393  69.643  1.00  0.00    -0.222 A  
HETATM   20  C   UNL     1     -10.700   7.921  72.375  1.00  0.00    -0.305 A  
HETATM   21  C   UNL     1     -10.345   8.614  70.096  1.00  0.00    -0.219 A  
HETATM   22  C   UNL     1     -10.233   8.861  71.466  1.00  0.00    -0.398 A  
HETATM   23  F   UNL     1     -10.480   8.104  73.687  1.00  0.00    -0.215 F  
HETATM   24  C   UNL     1     -11.355   6.776  71.945  1.00  0.00    -0.306 A  
HETATM   25  C   UNL     1     -11.461   6.520  70.577  1.00  0.00    -0.448 A  
ENDBRANCH  18  19
ENDBRANCH  17  18
BRANCH  17  26
HETATM   26  C   UNL     1      -8.223   6.069  67.904  1.00  0.00    -0.112 C  
HETATM   27  C   UNL     1      -7.220   6.383  69.030  1.00  0.00    -0.084 C  
HETATM   28  C   UNL     1      -8.706   4.594  68.070  1.00  0.00    -0.112 C  
HETATM   29  C   UNL     1      -6.608   3.794  70.298  1.00  0.00    -0.033 C  
HETATM   30  C   UNL     1      -7.723   5.948  70.397  1.00  0.00    -0.096 C  
HETATM   31  N   UNL     1      -7.880   4.499  70.466  1.00  0.00    -0.053 NA 
HETATM   32  C   UNL     1      -8.896   4.080  69.504  1.00  0.00    -0.091 C  
ENDBRANCH  17  26
ENDBRANCH  15  17
ENDBRANCH  13  15
ENDBRANCH  12  13
ENDBRANCH   9  12
ENDBRANCH   5   6
ENDBRANCH   4   5
TORSDOF 9
ENDMDL
MODEL      153
REMARK 921   NORMALIZED FREE ENERGY PREDICTED BY IDOCK:   -5.30 KCAL/MOL
REMARK 922        TOTAL FREE ENERGY PREDICTED BY IDOCK:   -9.56 KCAL/MOL
REMARK 923 INTER-LIGAND FREE ENERGY PREDICTED BY IDOCK:   -8.14 KCAL/MOL
REMARK 924 INTRA-LIGAND FREE ENERGY PREDICTED BY IDOCK:   -1.42 KCAL/MOL
REMARK 927      BINDING AFFINITY PREDICTED BY RF-SCORE:    0.00 PKD
ROOT
HETATM    1  C   UNL     1      -9.004  15.670  69.070  1.00  0.00    -0.239 C  
HETATM    2  C   UNL     1     -10.337  16.418  69.138  1.00  0.00    -0.289 C  
HETATM    3  C   UNL     1     -10.144  17.879  68.739  1.00  0.00    -0.384 C  
HETATM    4  C   UNL     1     -11.433  15.717  68.313  1.00  0.00    -0.350 C  
ENDROOT
BRANCH   4   5
HETATM    5  O   UNL     1     -11.133  15.667  66.911  1.00  0.00    -0.287 OA 
BRANCH   5   6
HETATM    6  C   UNL     1     -11.047  14.401  66.382  1.00  0.00    -0.326 A  
HETATM    7  C   UNL     1     -11.302  13.220  67.086  1.00  0.00    -0.351 A  
HETATM    8  C   UNL     1     -10.960  11.970  66.532  1.00  0.00    -0.337 A  
HETATM    9  C   UNL     1     -10.389  11.889  65.257  1.00  0.00    -0.316 A  
HETATM   10  C   UNL     1     -10.303  13.067  64.495  1.00  0.00    -0.386 A  
HETATM   11  C   UNL     1     -10.628  14.310  65.056  1.00  0.00    -0.444 A  
BRANCH   9  12
HETATM   12  C   UNL     1      -9.659  10.643  64.800  1.00  0.00    -0.280 C  
BRANCH  12  13
HETATM   13  N   UNL     1     -10.024   9.410  65.460  1.00  0.00    -0.421 N  
HETATM   14  H   UNL     1     -10.966   9.029  65.367  1.00  0.00     0.000 HD 
BRANCH  13  15
HETATM   15  C   UNL     1      -9.079   8.761  66.216  1.00  0.00    -0.193 C  
HETATM   16  O   UNL     1      -8.064   9.352  66.594  1.00  0.00    -0.107 OA 
BRANCH  15  17
HETATM   17  N   UNL     1      -9.340   7.429  66.559  1.00  0.00    -0.175 N  
BRANCH  17  18
HETATM   18  C   UNL     1     -10.684   7.199  67.161  1.00  0.00    -0.352 C  
BRANCH  18  19
HETATM   19  C   UNL     1     -10.762   7.339  68.685  1.00  0.00    -0.172 A  
HETATM   20  C   UNL     1     -11.511   7.814  71.327  1.00  0.00    -0.269 A  
HETATM   21  C   UNL     1     -11.154   6.274  69.510  1.00  0.00    -0.476 A  
HETATM   22  C   UNL     1     -11.561   6.521  70.823  1.00  0.00    -0.437 A  
HETATM   23  F   UNL     1     -12.018   8.069  72.544  1.00  0.00    -0.356 F  
HETATM   24  C   UNL     1     -10.982   8.853  70.576  1.00  0.00    -0.280 A  
HETATM   25  C   UNL     1     -10.584   8.614  69.260  1.00  0.00    -0.204 A  
ENDBRANCH  18  19
ENDBRANCH  17  18
BRANCH  17  26
HETATM   26  C   UNL     1      -8.317   6.319  66.575  1.00  0.00    -0.114 C  
HETATM   27  C   UNL     1      -8.850   4.897  66.833  1.00  0.00    -0.106 C  
HETATM   28  C   UNL     1      -7.329   6.264  65.367  1.00  0.00    -0.076 C  
HETATM   29  C   UNL     1      -7.187   3.110  65.183  1.00  0.00    -0.066 C  
HETATM   30  C   UNL     1      -9.317   4.209  65.561  1.00  0.00    -0.162 C  
HETATM   31  N   UNL     1      -8.210   4.001  64.634  1.00  0.00    -0.096 NA 
HETATM   32  C   UNL     1      -7.676   5.298  64.226  1.00  0.00    -0.090 C  
ENDBRANCH  17  26
ENDBRANCH  15  17
ENDBRANCH  13  15
ENDBRANCH  12  13
ENDBRANCH   9  12
ENDBRANCH   5   6
ENDBRANCH   4   5
TORSDOF 9
ENDMDL
MODEL      154
REMARK 921   NORMALIZED FREE ENERGY PREDICTED BY IDOCK:   -5.30 KCAL/MOL
REMARK 922        TOTAL FREE ENERGY PREDICTED BY IDOCK:   -9.56 KCAL/MOL
REMARK 923 INTER-LIGAND FREE ENERGY PREDICTED BY IDOCK:   -7.89 KCAL/MOL
REMARK 924 INTRA-LIGAND FREE ENERGY PREDICTED BY IDOCK:   -1.67 KCAL/MOL
REMARK 927      BINDING AFFINITY PREDICTED BY RF-SCORE:    0.00 PKD
ROOT
HETATM    1  C   UNL     1     -12.641  13.089  65.224  1.00  0.00    -0.516 C  
HETATM    2  C   UNL     1     -11.432  13.561  64.413  1.00  0.00    -0.422 C  
HETATM    3  C   UNL     1     -10.981  14.939  64.893  1.00  0.00    -0.422 C  
HETATM    4  C   UNL     1     -10.292  12.526  64.422  1.00  0.00    -0.352 C  
ENDROOT
BRANCH   4   5
HETATM    5  O   UNL     1      -9.761  12.290  65.734  1.00  0.00    -0.247 OA 
BRANCH   5   6
HETATM    6  C   UNL     1      -9.254  11.028  65.935  1.00  0.00    -0.199 A  
HETATM    7  C   UNL     1      -9.724   9.867  65.313  1.00  0.00    -0.383 A  
HETATM    8  C   UNL     1      -9.303   8.599  65.757  1.00  0.00    -0.227 A  
HETATM    9  C   UNL     1      -8.383   8.480  66.805  1.00  0.00    -0.109 A  
HETATM   10  C   UNL     1      -7.789   9.654  67.298  1.00  0.00    -0.095 A  
HETATM   11  C   UNL     1      -8.223  10.915  66.867  1.00  0.00    -0.135 A  
BRANCH   9  12
HETATM   12  C   UNL     1      -8.213   7.177  67.559  1.00  0.00    -0.117 C  
BRANCH  12  13
HETATM   13  N   UNL     1      -8.759   7.138  68.898  1.00  0.00    -0.128 N  
HETATM   14  H   UNL     1      -8.785   7.980  69.473  1.00  0.00     0.000 HD 
BRANCH  13  15
HETATM   15  C   UNL     1      -9.241   5.946  69.379  1.00  0.00    -0.130 C  
HETATM   16  O   UNL     1      -8.843   4.875  68.915  1.00  0.00    -0.091 OA 
BRANCH  15  17
HETATM   17  N   UNL     1     -10.165   6.009  70.429  1.00  0.00    -0.193 N  
BRANCH  17  18
HETATM   18  C   UNL     1     -11.489   6.580  70.052  1.00  0.00    -0.412 C  
BRANCH  18  19
HETATM   19  C   UNL     1     -11.963   7.770  70.891  1.00  0.00    -0.229 A  
HETATM   20  C   UNL     1     -13.109  10.122  71.853  1.00  0.00    -0.466 A  
HETATM   21  C   UNL     1     -13.141   7.723  71.651  1.00  0.00    -0.378 A  
HETATM   22  C   UNL     1     -13.730   8.906  72.102  1.00  0.00    -0.527 A  
HETATM   23  F   UNL     1     -13.736  11.264  72.178  1.00  0.00    -0.421 F  
HETATM   24  C   UNL     1     -11.867  10.177  71.237  1.00  0.00    -0.448 A  
HETATM   25  C   UNL     1     -11.279   8.998  70.775  1.00  0.00    -0.329 A  
ENDBRANCH  18  19
ENDBRANCH  17  18
BRANCH  17  26
HETATM   26  C   UNL     1      -9.844   5.770  71.885  1.00  0.00    -0.164 C  
HETATM   27  C   UNL     1     -10.434   4.496  72.518  1.00  0.00    -0.251 C  
HETATM   28  C   UNL     1      -8.341   5.874  72.294  1.00  0.00    -0.118 C  
HETATM   29  C   UNL     1      -8.404   3.540  74.427  1.00  0.00    -0.081 C  
HETATM   30  C   UNL     1      -9.552   3.276  72.305  1.00  0.00    -0.136 C  
HETATM   31  N   UNL     1      -8.265   3.432  72.974  1.00  0.00    -0.080 NA 
HETATM   32  C   UNL     1      -7.551   4.562  72.384  1.00  0.00    -0.084 C  
ENDBRANCH  17  26
ENDBRANCH  15  17
ENDBRANCH  13  15
ENDBRANCH  12  13
ENDBRANCH   9  12
ENDBRANCH   5   6
ENDBRANCH   4   5
TORSDOF 9
ENDMDL
MODEL      155
REMARK 921   NORMALIZED FREE ENERGY PREDICTED BY IDOCK:   -5.30 KCAL/MOL
REMARK 922        TOTAL FREE ENERGY PREDICTED BY IDOCK:   -9.56 KCAL/MOL
REMARK 923 INTER-LIGAND FREE ENERGY PREDICTED BY IDOCK:   -7.62 KCAL/MOL
REMARK 924 INTRA-LIGAND FREE ENERGY PREDICTED BY IDOCK:   -1.94 KCAL/MOL
REMARK 927      BINDING AFFINITY PREDICTED BY RF-SCORE:    0.00 PKD
ROOT
HETATM    1  C   UNL     1      -9.701  20.774  67.155  1.00  0.00    -0.457 C  
HETATM    2  C   UNL     1     -10.222  19.494  67.810  1.00  0.00    -0.550 C  
HETATM    3  C   UNL     1     -10.733  18.526  66.744  1.00  0.00    -0.303 C  
HETATM    4  C   UNL     1      -9.174  18.853  68.739  1.00  0.00    -0.317 C  
ENDROOT
BRANCH   4   5
HETATM    5  O   UNL     1      -7.992  18.433  68.044  1.00  0.00    -0.261 OA 
BRANCH   5   6
HETATM    6  C   UNL     1      -7.770  17.077  68.047  1.00  0.00    -0.180 A  
HETATM    7  C   UNL     1      -7.886  16.243  66.931  1.00  0.00    -0.278 A  
HETATM    8  C   UNL     1      -7.871  14.842  67.080  1.00  0.00    -0.203 A  
HETATM    9  C   UNL     1      -7.707  14.263  68.344  1.00  0.00    -0.134 A  
HETATM   10  C   UNL     1      -7.416  15.111  69.426  1.00  0.00    -0.204 A  
HETATM   11  C   UNL     1      -7.449  16.503  69.277  1.00  0.00    -0.183 A  
BRANCH   9  12
HETATM   12  C   UNL     1      -8.076  12.816  68.600  1.00  0.00    -0.007 C  
BRANCH  12  13
HETATM   13  N   UNL     1      -8.689  12.108  67.497  1.00  0.00    -0.165 N  
HETATM   14  H   UNL     1      -8.713  12.520  66.564  1.00  0.00     0.000 HD 
BRANCH  13  15
HETATM   15  C   UNL     1      -9.238  10.872  67.731  1.00  0.00    -0.153 C  
HETATM   16  O   UNL     1      -8.616   9.846  67.446  1.00  0.00    -0.124 OA 
BRANCH  15  17
HETATM   17  N   UNL     1     -10.503  10.838  68.330  1.00  0.00    -0.171 N  
BRANCH  17  18
HETATM   18  C   UNL     1     -11.640  11.005  67.381  1.00  0.00    -0.017 C  
BRANCH  18  19
HETATM   19  C   UNL     1     -11.713  12.356  66.662  1.00  0.00    -0.438 A  
HETATM   20  C   UNL     1     -11.202  14.838  65.501  1.00  0.00    -0.346 A  
HETATM   21  C   UNL     1     -11.562  12.468  65.272  1.00  0.00    -0.406 A  
HETATM   22  C   UNL     1     -11.273  13.707  64.698  1.00  0.00    -0.383 A  
HETATM   23  F   UNL     1     -10.803  16.004  64.968  1.00  0.00    -0.386 F  
HETATM   24  C   UNL     1     -11.498  14.772  66.855  1.00  0.00    -0.354 A  
HETATM   25  C   UNL     1     -11.778  13.534  67.435  1.00  0.00    -0.419 A  
ENDBRANCH  18  19
ENDBRANCH  17  18
BRANCH  17  26
HETATM   26  C   UNL     1     -10.762  10.880  69.817  1.00  0.00    -0.137 C  
HETATM   27  C   UNL     1     -12.188  11.260  70.255  1.00  0.00    -0.428 C  
HETATM   28  C   UNL     1     -10.309   9.633  70.639  1.00  0.00    -0.365 C  
HETATM   29  C   UNL     1     -12.736   9.658  72.667  1.00  0.00     0.146 C  
HETATM   30  C   UNL     1     -13.122  10.063  70.305  1.00  0.00     0.177 C  
HETATM   31  N   UNL     1     -12.695   9.100  71.315  1.00  0.00    -0.305 NA 
HETATM   32  C   UNL     1     -11.379   8.578  70.953  1.00  0.00    -0.268 C  
ENDBRANCH  17  26
ENDBRANCH  15  17
ENDBRANCH  13  15
ENDBRANCH  12  13
ENDBRANCH   9  12
ENDBRANCH   5   6
ENDBRANCH   4   5
TORSDOF 9
ENDMDL
MODEL      156
REMARK 921   NORMALIZED FREE ENERGY PREDICTED BY IDOCK:   -5.26 KCAL/MOL
REMARK 922        TOTAL FREE ENERGY PREDICTED BY IDOCK:   -9.50 KCAL/MOL
REMARK 923 INTER-LIGAND FREE ENERGY PREDICTED BY IDOCK:   -8.09 KCAL/MOL
REMARK 924 INTRA-LIGAND FREE ENERGY PREDICTED BY IDOCK:   -1.41 KCAL/MOL
REMARK 927      BINDING AFFINITY PREDICTED BY RF-SCORE:    0.00 PKD
ROOT
HETATM    1  C   UNL     1     -10.706   3.891  72.790  1.00  0.00    -0.165 C  
HETATM    2  C   UNL     1      -9.856   4.882  71.993  1.00  0.00    -0.232 C  
HETATM    3  C   UNL     1     -10.236   4.835  70.515  1.00  0.00    -0.252 C  
HETATM    4  C   UNL     1      -9.929   6.305  72.579  1.00  0.00    -0.171 C  
ENDROOT
BRANCH   4   5
HETATM    5  O   UNL     1     -11.250   6.863  72.533  1.00  0.00    -0.253 OA 
BRANCH   5   6
HETATM    6  C   UNL     1     -11.326   8.127  71.998  1.00  0.00    -0.316 A  
HETATM    7  C   UNL     1     -12.490   8.898  71.928  1.00  0.00    -0.445 A  
HETATM    8  C   UNL     1     -12.522  10.075  71.155  1.00  0.00    -0.480 A  
HETATM    9  C   UNL     1     -11.381  10.508  70.470  1.00  0.00    -0.400 A  
HETATM   10  C   UNL     1     -10.176   9.820  70.693  1.00  0.00    -0.290 A  
HETATM   11  C   UNL     1     -10.152   8.640  71.448  1.00  0.00    -0.325 A  
BRANCH   9  12
HETATM   12  C   UNL     1     -11.475  11.513  69.340  1.00  0.00    -0.309 C  
BRANCH  12  13
HETATM   13  N   UNL     1     -10.591  12.654  69.425  1.00  0.00    -0.414 N  
HETATM   14  H   UNL     1     -10.621  13.276  70.233  1.00  0.00     0.000 HD 
BRANCH  13  15
HETATM   15  C   UNL     1      -9.710  12.885  68.398  1.00  0.00    -0.186 C  
HETATM   16  O   UNL     1      -9.261  11.947  67.734  1.00  0.00    -0.172 OA 
BRANCH  15  17
HETATM   17  N   UNL     1      -9.383  14.219  68.126  1.00  0.00    -0.200 N  
BRANCH  17  18
HETATM   18  C   UNL     1      -8.429  14.830  69.094  1.00  0.00    -0.096 C  
BRANCH  18  19
HETATM   19  C   UNL     1      -7.677  16.068  68.595  1.00  0.00    -0.176 A  
HETATM   20  C   UNL     1      -6.800  18.345  67.247  1.00  0.00    -0.198 A  
HETATM   21  C   UNL     1      -7.892  17.340  69.144  1.00  0.00    -0.050 A  
HETATM   22  C   UNL     1      -7.482  18.480  68.449  1.00  0.00    -0.315 A  
HETATM   23  F   UNL     1      -6.516  19.438  66.520  1.00  0.00    -0.184 F  
HETATM   24  C   UNL     1      -6.444  17.094  66.764  1.00  0.00    -0.254 A  
HETATM   25  C   UNL     1      -6.861  15.952  67.450  1.00  0.00    -0.228 A  
ENDBRANCH  18  19
ENDBRANCH  17  18
BRANCH  17  26
HETATM   26  C   UNL     1     -10.078  15.095  67.111  1.00  0.00    -0.239 C  
HETATM   27  C   UNL     1      -9.686  14.883  65.637  1.00  0.00    -0.326 C  
HETATM   28  C   UNL     1     -11.635  15.167  67.202  1.00  0.00    -0.206 C  
HETATM   29  C   UNL     1     -12.156  15.305  64.086  1.00  0.00    -0.129 C  
HETATM   30  C   UNL     1     -10.491  13.777  64.973  1.00  0.00    -0.402 C  
HETATM   31  N   UNL     1     -11.908  14.120  64.909  1.00  0.00    -0.381 NA 
HETATM   32  C   UNL     1     -12.432  14.249  66.267  1.00  0.00    -0.300 C  
ENDBRANCH  17  26
ENDBRANCH  15  17
ENDBRANCH  13  15
ENDBRANCH  12  13
ENDBRANCH   9  12
ENDBRANCH   5   6
ENDBRANCH   4   5
TORSDOF 9
ENDMDL
MODEL      157
REMARK 921   NORMALIZED FREE ENERGY PREDICTED BY IDOCK:   -5.25 KCAL/MOL
REMARK 922        TOTAL FREE ENERGY PREDICTED BY IDOCK:   -9.48 KCAL/MOL
REMARK 923 INTER-LIGAND FREE ENERGY PREDICTED BY IDOCK:   -8.20 KCAL/MOL
REMARK 924 INTRA-LIGAND FREE ENERGY PREDICTED BY IDOCK:   -1.28 KCAL/MOL
REMARK 927      BINDING AFFINITY PREDICTED BY RF-SCORE:    0.00 PKD
ROOT
HETATM    1  C   UNL     1      -9.116   6.335  70.901  1.00  0.00    -0.153 C  
HETATM    2  C   UNL     1      -7.686   5.806  70.790  1.00  0.00    -0.093 C  
HETATM    3  C   UNL     1      -7.670   4.484  70.025  1.00  0.00    -0.057 C  
HETATM    4  C   UNL     1      -6.728   6.852  70.187  1.00  0.00    -0.055 C  
ENDROOT
BRANCH   4   5
HETATM    5  O   UNL     1      -7.071   7.215  68.842  1.00  0.00    -0.079 OA 
BRANCH   5   6
HETATM    6  C   UNL     1      -7.631   8.462  68.704  1.00  0.00    -0.102 A  
HETATM    7  C   UNL     1      -8.506   8.838  67.680  1.00  0.00    -0.125 A  
HETATM    8  C   UNL     1      -8.839  10.193  67.487  1.00  0.00    -0.126 A  
HETATM    9  C   UNL     1      -8.326  11.180  68.336  1.00  0.00    -0.149 A  
HETATM   10  C   UNL     1      -7.594  10.767  69.462  1.00  0.00    -0.094 A  
HETATM   11  C   UNL     1      -7.250   9.421  69.641  1.00  0.00    -0.067 A  
BRANCH   9  12
HETATM   12  C   UNL     1      -8.333  12.642  67.938  1.00  0.00    -0.172 C  
BRANCH  12  13
HETATM   13  N   UNL     1      -9.137  13.523  68.755  1.00  0.00    -0.389 N  
HETATM   14  H   UNL     1      -8.698  14.241  69.332  1.00  0.00     0.000 HD 
BRANCH  13  15
HETATM   15  C   UNL     1     -10.501  13.375  68.740  1.00  0.00    -0.186 C  
HETATM   16  O   UNL     1     -11.039  12.452  69.357  1.00  0.00    -0.188 OA 
BRANCH  15  17
HETATM   17  N   UNL     1     -11.239  14.330  68.029  1.00  0.00    -0.269 N  
BRANCH  17  18
HETATM   18  C   UNL     1     -11.460  15.609  68.761  1.00  0.00    -0.376 C  
BRANCH  18  19
HETATM   19  C   UNL     1     -11.986  15.473  70.193  1.00  0.00    -0.389 A  
HETATM   20  C   UNL     1     -13.187  15.828  72.683  1.00  0.00    -0.502 A  
HETATM   21  C   UNL     1     -13.216  14.862  70.478  1.00  0.00    -0.232 A  
HETATM   22  C   UNL     1     -13.830  15.070  71.714  1.00  0.00    -0.576 A  
HETATM   23  F   UNL     1     -13.830  16.130  73.823  1.00  0.00    -0.383 F  
HETATM   24  C   UNL     1     -11.904  16.313  72.475  1.00  0.00    -0.608 A  
HETATM   25  C   UNL     1     -11.290  16.116  71.237  1.00  0.00    -0.347 A  
ENDBRANCH  18  19
ENDBRANCH  17  18
BRANCH  17  26
HETATM   26  C   UNL     1     -11.983  14.070  66.741  1.00  0.00    -0.444 C  
HETATM   27  C   UNL     1     -11.516  14.864  65.507  1.00  0.00    -0.307 C  
HETATM   28  C   UNL     1     -12.161  12.575  66.327  1.00  0.00    -0.315 C  
HETATM   29  C   UNL     1     -11.833  13.038  63.216  1.00  0.00    -0.364 C  
HETATM   30  C   UNL     1     -10.369  14.186  64.775  1.00  0.00    -0.359 C  
HETATM   31  N   UNL     1     -10.781  12.899  64.224  1.00  0.00    -0.383 NA 
HETATM   32  C   UNL     1     -11.154  12.006  65.318  1.00  0.00    -0.317 C  
ENDBRANCH  17  26
ENDBRANCH  15  17
ENDBRANCH  13  15
ENDBRANCH  12  13
ENDBRANCH   9  12
ENDBRANCH   5   6
ENDBRANCH   4   5
TORSDOF 9
ENDMDL
MODEL      158
REMARK 921   NORMALIZED FREE ENERGY PREDICTED BY IDOCK:   -5.25 KCAL/MOL
REMARK 922        TOTAL FREE ENERGY PREDICTED BY IDOCK:   -9.48 KCAL/MOL
REMARK 923 INTER-LIGAND FREE ENERGY PREDICTED BY IDOCK:   -7.43 KCAL/MOL
REMARK 924 INTRA-LIGAND FREE ENERGY PREDICTED BY IDOCK:   -2.05 KCAL/MOL
REMARK 927      BINDING AFFINITY PREDICTED BY RF-SCORE:    0.00 PKD
ROOT
HETATM    1  C   UNL     1      -8.572   3.553  66.441  1.00  0.00    -0.117 C  
HETATM    2  C   UNL     1      -9.060   5.003  66.434  1.00  0.00    -0.129 C  
HETATM    3  C   UNL     1     -10.576   5.049  66.260  1.00  0.00    -0.332 C  
HETATM    4  C   UNL     1      -8.581   5.779  67.676  1.00  0.00    -0.101 C  
ENDROOT
BRANCH   4   5
HETATM    5  O   UNL     1      -9.097   5.244  68.903  1.00  0.00    -0.108 OA 
BRANCH   5   6
HETATM    6  C   UNL     1      -9.718   6.160  69.718  1.00  0.00    -0.157 A  
HETATM    7  C   UNL     1     -11.094   6.211  69.964  1.00  0.00    -0.462 A  
HETATM    8  C   UNL     1     -11.661   7.322  70.619  1.00  0.00    -0.310 A  
HETATM    9  C   UNL     1     -10.854   8.376  71.062  1.00  0.00    -0.280 A  
HETATM   10  C   UNL     1      -9.460   8.226  70.965  1.00  0.00    -0.197 A  
HETATM   11  C   UNL     1      -8.900   7.129  70.298  1.00  0.00    -0.148 A  
BRANCH   9  12
HETATM   12  C   UNL     1     -11.443   9.730  71.400  1.00  0.00    -0.365 C  
BRANCH  12  13
HETATM   13  N   UNL     1     -11.036  10.832  70.556  1.00  0.00    -0.433 N  
HETATM   14  H   UNL     1     -10.145  11.303  70.711  1.00  0.00     0.000 HD 
BRANCH  13  15
HETATM   15  C   UNL     1     -11.873  11.232  69.544  1.00  0.00    -0.357 C  
HETATM   16  O   UNL     1     -13.032  10.813  69.485  1.00  0.00    -0.118 OA 
BRANCH  15  17
HETATM   17  N   UNL     1     -11.361  12.150  68.618  1.00  0.00    -0.255 N  
BRANCH  17  18
HETATM   18  C   UNL     1     -12.003  13.494  68.663  1.00  0.00    -0.343 C  
BRANCH  18  19
HETATM   19  C   UNL     1     -11.259  14.610  67.923  1.00  0.00    -0.318 A  
HETATM   20  C   UNL     1      -9.427  16.188  66.536  1.00  0.00    -0.264 A  
HETATM   21  C   UNL     1     -11.404  14.812  66.543  1.00  0.00    -0.344 A  
HETATM   22  C   UNL     1     -10.465  15.575  65.846  1.00  0.00    -0.356 A  
HETATM   23  F   UNL     1      -8.458  16.817  65.851  1.00  0.00    -0.327 F  
HETATM   24  C   UNL     1      -9.355  16.125  67.920  1.00  0.00    -0.212 A  
HETATM   25  C   UNL     1     -10.285  15.356  68.620  1.00  0.00    -0.217 A  
ENDBRANCH  18  19
ENDBRANCH  17  18
BRANCH  17  26
HETATM   26  C   UNL     1     -10.421  11.810  67.486  1.00  0.00    -0.202 C  
HETATM   27  C   UNL     1      -8.916  11.950  67.778  1.00  0.00    -0.173 C  
HETATM   28  C   UNL     1     -10.660  10.445  66.768  1.00  0.00    -0.270 C  
HETATM   29  C   UNL     1      -7.607   9.773  66.284  1.00  0.00    -0.100 C  
HETATM   30  C   UNL     1      -8.325  10.700  68.409  1.00  0.00    -0.127 C  
HETATM   31  N   UNL     1      -8.397   9.563  67.498  1.00  0.00    -0.124 NA 
HETATM   32  C   UNL     1      -9.799   9.258  67.221  1.00  0.00    -0.182 C  
ENDBRANCH  17  26
ENDBRANCH  15  17
ENDBRANCH  13  15
ENDBRANCH  12  13
ENDBRANCH   9  12
ENDBRANCH   5   6
ENDBRANCH   4   5
TORSDOF 9
ENDMDL
MODEL      159
REMARK 921   NORMALIZED FREE ENERGY PREDICTED BY IDOCK:   -5.24 KCAL/MOL
REMARK 922        TOTAL FREE ENERGY PREDICTED BY IDOCK:   -9.47 KCAL/MOL
REMARK 923 INTER-LIGAND FREE ENERGY PREDICTED BY IDOCK:   -8.06 KCAL/MOL
REMARK 924 INTRA-LIGAND FREE ENERGY PREDICTED BY IDOCK:   -1.40 KCAL/MOL
REMARK 927      BINDING AFFINITY PREDICTED BY RF-SCORE:    0.00 PKD
ROOT
HETATM    1  C   UNL     1     -10.564  17.903  68.452  1.00  0.00    -0.275 C  
HETATM    2  C   UNL     1     -10.354  18.902  67.312  1.00  0.00    -0.486 C  
HETATM    3  C   UNL     1      -9.025  19.633  67.489  1.00  0.00    -0.383 C  
HETATM    4  C   UNL     1     -10.487  18.236  65.930  1.00  0.00    -0.307 C  
ENDROOT
BRANCH   4   5
HETATM    5  O   UNL     1      -9.493  17.228  65.696  1.00  0.00    -0.515 OA 
BRANCH   5   6
HETATM    6  C   UNL     1      -9.936  15.935  65.836  1.00  0.00    -0.349 A  
HETATM    7  C   UNL     1     -11.083  15.411  65.233  1.00  0.00    -0.367 A  
HETATM    8  C   UNL     1     -11.584  14.153  65.621  1.00  0.00    -0.339 A  
HETATM    9  C   UNL     1     -10.925  13.393  66.594  1.00  0.00    -0.297 A  
HETATM   10  C   UNL     1      -9.681  13.854  67.060  1.00  0.00    -0.250 A  
HETATM   11  C   UNL     1      -9.195  15.113  66.685  1.00  0.00    -0.298 A  
BRANCH   9  12
HETATM   12  C   UNL     1     -11.622  12.256  67.310  1.00  0.00    -0.357 C  
BRANCH  12  13
HETATM   13  N   UNL     1     -11.107  10.929  67.054  1.00  0.00    -0.251 N  
HETATM   14  H   UNL     1     -10.917  10.620  66.101  1.00  0.00     0.000 HD 
BRANCH  13  15
HETATM   15  C   UNL     1     -10.879  10.093  68.119  1.00  0.00    -0.262 C  
HETATM   16  O   UNL     1     -11.384  10.326  69.220  1.00  0.00    -0.229 OA 
BRANCH  15  17
HETATM   17  N   UNL     1     -10.085   8.962  67.885  1.00  0.00    -0.194 N  
BRANCH  17  18
HETATM   18  C   UNL     1     -10.850   7.737  67.520  1.00  0.00    -0.112 C  
BRANCH  18  19
HETATM   19  C   UNL     1     -10.801   6.595  68.540  1.00  0.00    -0.319 A  
HETATM   20  C   UNL     1     -10.134   4.791  70.557  1.00  0.00    -0.220 A  
HETATM   21  C   UNL     1     -11.386   6.707  69.810  1.00  0.00    -0.412 A  
HETATM   22  C   UNL     1     -11.023   5.822  70.827  1.00  0.00    -0.312 A  
HETATM   23  F   UNL     1      -9.691   4.018  71.563  1.00  0.00    -0.197 F  
HETATM   24  C   UNL     1      -9.663   4.572  69.271  1.00  0.00    -0.260 A  
HETATM   25  C   UNL     1     -10.015   5.460  68.253  1.00  0.00    -0.212 A  
ENDBRANCH  18  19
ENDBRANCH  17  18
BRANCH  17  26
HETATM   26  C   UNL     1      -8.611   8.857  68.193  1.00  0.00    -0.130 C  
HETATM   27  C   UNL     1      -7.748  10.085  67.849  1.00  0.00    -0.090 C  
HETATM   28  C   UNL     1      -8.232   8.373  69.628  1.00  0.00    -0.117 C  
HETATM   29  C   UNL     1      -5.695  10.233  69.959  1.00  0.00    -0.052 C  
HETATM   30  C   UNL     1      -7.727  11.115  68.967  1.00  0.00    -0.114 C  
HETATM   31  N   UNL     1      -7.102  10.578  70.170  1.00  0.00    -0.207 NA 
HETATM   32  C   UNL     1      -7.896   9.455  70.663  1.00  0.00    -0.151 C  
ENDBRANCH  17  26
ENDBRANCH  15  17
ENDBRANCH  13  15
ENDBRANCH  12  13
ENDBRANCH   9  12
ENDBRANCH   5   6
ENDBRANCH   4   5
TORSDOF 9
ENDMDL
MODEL      160
REMARK 921   NORMALIZED FREE ENERGY PREDICTED BY IDOCK:   -5.24 KCAL/MOL
REMARK 922        TOTAL FREE ENERGY PREDICTED BY IDOCK:   -9.46 KCAL/MOL
REMARK 923 INTER-LIGAND FREE ENERGY PREDICTED BY IDOCK:   -8.18 KCAL/MOL
REMARK 924 INTRA-LIGAND FREE ENERGY PREDICTED BY IDOCK:   -1.28 KCAL/MOL
REMARK 927      BINDING AFFINITY PREDICTED BY RF-SCORE:    0.00 PKD
ROOT
HETATM    1  C   UNL     1     -13.115   9.854  70.878  1.00  0.00    -0.344 C  
HETATM    2  C   UNL     1     -13.289   8.816  71.988  1.00  0.00    -0.455 C  
HETATM    3  C   UNL     1     -14.358   7.799  71.597  1.00  0.00    -0.607 C  
HETATM    4  C   UNL     1     -11.952   8.154  72.373  1.00  0.00    -0.372 C  
ENDROOT
BRANCH   4   5
HETATM    5  O   UNL     1     -11.362   7.415  71.294  1.00  0.00    -0.254 OA 
BRANCH   5   6
HETATM    6  C   UNL     1     -10.340   8.060  70.641  1.00  0.00    -0.202 A  
HETATM    7  C   UNL     1      -9.307   8.763  71.268  1.00  0.00    -0.319 A  
HETATM    8  C   UNL     1      -8.444   9.585  70.516  1.00  0.00    -0.213 A  
HETATM    9  C   UNL     1      -8.586   9.686  69.128  1.00  0.00    -0.146 A  
HETATM   10  C   UNL     1      -9.513   8.839  68.496  1.00  0.00    -0.149 A  
HETATM   11  C   UNL     1     -10.381   8.036  69.248  1.00  0.00    -0.224 A  
BRANCH   9  12
HETATM   12  C   UNL     1      -7.962  10.828  68.354  1.00  0.00    -0.124 C  
BRANCH  12  13
HETATM   13  N   UNL     1      -8.288  12.162  68.809  1.00  0.00    -0.354 N  
HETATM   14  H   UNL     1      -8.906  12.301  69.608  1.00  0.00     0.000 HD 
BRANCH  13  15
HETATM   15  C   UNL     1      -7.750  13.236  68.144  1.00  0.00    -0.143 C  
HETATM   16  O   UNL     1      -6.532  13.322  67.974  1.00  0.00    -0.098 OA 
BRANCH  15  17
HETATM   17  N   UNL     1      -8.645  14.192  67.647  1.00  0.00    -0.177 N  
BRANCH  17  18
HETATM   18  C   UNL     1      -9.258  15.063  68.690  1.00  0.00    -0.198 C  
BRANCH  18  19
HETATM   19  C   UNL     1      -8.807  16.527  68.681  1.00  0.00    -0.237 A  
HETATM   20  C   UNL     1      -7.988  19.106  68.011  1.00  0.00    -0.296 A  
HETATM   21  C   UNL     1      -9.725  17.588  68.703  1.00  0.00    -0.319 A  
HETATM   22  C   UNL     1      -9.318  18.872  68.334  1.00  0.00    -0.396 A  
HETATM   23  F   UNL     1      -7.624  20.309  67.538  1.00  0.00    -0.295 F  
HETATM   24  C   UNL     1      -7.037  18.103  68.131  1.00  0.00    -0.235 A  
HETATM   25  C   UNL     1      -7.440  16.816  68.490  1.00  0.00    -0.213 A  
ENDBRANCH  18  19
ENDBRANCH  17  18
BRANCH  17  26
HETATM   26  C   UNL     1      -9.175  14.235  66.234  1.00  0.00    -0.151 C  
HETATM   27  C   UNL     1     -10.073  13.062  65.802  1.00  0.00    -0.294 C  
HETATM   28  C   UNL     1      -9.853  15.568  65.784  1.00  0.00    -0.392 C  
HETATM   29  C   UNL     1     -12.099  14.227  64.007  1.00  0.00    -0.316 C  
HETATM   30  C   UNL     1     -11.533  13.278  66.167  1.00  0.00    -0.328 C  
HETATM   31  N   UNL     1     -12.092  14.423  65.457  1.00  0.00    -0.372 NA 
HETATM   32  C   UNL     1     -11.383  15.634  65.865  1.00  0.00     0.044 C  
ENDBRANCH  17  26
ENDBRANCH  15  17
ENDBRANCH  13  15
ENDBRANCH  12  13
ENDBRANCH   9  12
ENDBRANCH   5   6
ENDBRANCH   4   5
TORSDOF 9
ENDMDL
MODEL      161
REMARK 921   NORMALIZED FREE ENERGY PREDICTED BY IDOCK:   -5.23 KCAL/MOL
REMARK 922        TOTAL FREE ENERGY PREDICTED BY IDOCK:   -9.45 KCAL/MOL
REMARK 923 INTER-LIGAND FREE ENERGY PREDICTED BY IDOCK:   -7.40 KCAL/MOL
REMARK 924 INTRA-LIGAND FREE ENERGY PREDICTED BY IDOCK:   -2.04 KCAL/MOL
REMARK 927      BINDING AFFINITY PREDICTED BY RF-SCORE:    0.00 PKD
ROOT
HETATM    1  C   UNL     1      -8.528   2.110  67.399  1.00  0.00    -0.099 C  
HETATM    2  C   UNL     1      -7.820   3.082  68.345  1.00  0.00    -0.059 C  
HETATM    3  C   UNL     1      -7.303   4.291  67.569  1.00  0.00    -0.069 C  
HETATM    4  C   UNL     1      -8.710   3.477  69.538  1.00  0.00    -0.075 C  
ENDROOT
BRANCH   4   5
HETATM    5  O   UNL     1      -9.897   4.180  69.143  1.00  0.00    -0.167 OA 
BRANCH   5   6
HETATM    6  C   UNL     1     -10.113   5.367  69.800  1.00  0.00    -0.249 A  
HETATM    7  C   UNL     1     -11.238   6.180  69.637  1.00  0.00    -0.488 A  
HETATM    8  C   UNL     1     -11.262   7.484  70.170  1.00  0.00    -0.213 A  
HETATM    9  C   UNL     1     -10.173   7.974  70.899  1.00  0.00    -0.213 A  
HETATM   10  C   UNL     1      -9.128   7.085  71.203  1.00  0.00    -0.153 A  
HETATM   11  C   UNL     1      -9.100   5.795  70.657  1.00  0.00    -0.164 A  
BRANCH   9  12
HETATM   12  C   UNL     1      -9.991   9.459  71.139  1.00  0.00    -0.241 C  
BRANCH  12  13
HETATM   13  N   UNL     1     -10.476  10.338  70.099  1.00  0.00    -0.412 N  
HETATM   14  H   UNL     1     -11.429  10.699  70.126  1.00  0.00     0.000 HD 
BRANCH  13  15
HETATM   15  C   UNL     1      -9.628  10.678  69.074  1.00  0.00    -0.195 C  
HETATM   16  O   UNL     1      -8.405  10.622  69.227  1.00  0.00    -0.152 OA 
BRANCH  15  17
HETATM   17  N   UNL     1     -10.214  11.051  67.858  1.00  0.00    -0.178 N  
BRANCH  17  18
HETATM   18  C   UNL     1     -11.102  12.245  67.942  1.00  0.00    -0.243 C  
BRANCH  18  19
HETATM   19  C   UNL     1     -11.120  13.148  66.704  1.00  0.00    -0.316 A  
HETATM   20  C   UNL     1     -11.527  15.175  64.835  1.00  0.00    -0.374 A  
HETATM   21  C   UNL     1     -10.116  14.097  66.462  1.00  0.00    -0.283 A  
HETATM   22  C   UNL     1     -10.337  15.131  65.549  1.00  0.00    -0.399 A  
HETATM   23  F   UNL     1     -11.790  16.235  64.052  1.00  0.00    -0.506 F  
HETATM   24  C   UNL     1     -12.467  14.162  64.949  1.00  0.00    -0.419 A  
HETATM   25  C   UNL     1     -12.255  13.132  65.867  1.00  0.00    -0.497 A  
ENDBRANCH  18  19
ENDBRANCH  17  18
BRANCH  17  26
HETATM   26  C   UNL     1     -10.191  10.227  66.593  1.00  0.00    -0.233 C  
HETATM   27  C   UNL     1      -9.133  10.611  65.542  1.00  0.00    -0.214 C  
HETATM   28  C   UNL     1     -10.168   8.676  66.772  1.00  0.00    -0.361 C  
HETATM   29  C   UNL     1      -8.268   8.075  64.317  1.00  0.00    -0.067 C  
HETATM   30  C   UNL     1      -7.792   9.942  65.792  1.00  0.00    -0.121 C  
HETATM   31  N   UNL     1      -7.892   8.492  65.668  1.00  0.00    -0.098 NA 
HETATM   32  C   UNL     1      -8.800   7.985  66.695  1.00  0.00    -0.145 C  
ENDBRANCH  17  26
ENDBRANCH  15  17
ENDBRANCH  13  15
ENDBRANCH  12  13
ENDBRANCH   9  12
ENDBRANCH   5   6
ENDBRANCH   4   5
TORSDOF 9
ENDMDL
MODEL      162
REMARK 921   NORMALIZED FREE ENERGY PREDICTED BY IDOCK:   -5.22 KCAL/MOL
REMARK 922        TOTAL FREE ENERGY PREDICTED BY IDOCK:   -9.43 KCAL/MOL
REMARK 923 INTER-LIGAND FREE ENERGY PREDICTED BY IDOCK:   -6.37 KCAL/MOL
REMARK 924 INTRA-LIGAND FREE ENERGY PREDICTED BY IDOCK:   -3.05 KCAL/MOL
REMARK 927      BINDING AFFINITY PREDICTED BY RF-SCORE:    0.00 PKD
ROOT
HETATM    1  C   UNL     1      -7.788   4.592  64.834  1.00  0.00    -0.090 C  
HETATM    2  C   UNL     1      -8.441   3.493  65.674  1.00  0.00    -0.108 C  
HETATM    3  C   UNL     1      -7.393   2.475  66.117  1.00  0.00    -0.066 C  
HETATM    4  C   UNL     1      -9.244   4.071  66.855  1.00  0.00    -0.167 C  
ENDROOT
BRANCH   4   5
HETATM    5  O   UNL     1      -8.426   4.785  67.792  1.00  0.00    -0.103 OA 
BRANCH   5   6
HETATM    6  C   UNL     1      -8.806   6.086  68.019  1.00  0.00    -0.110 A  
HETATM    7  C   UNL     1      -7.994   7.072  68.588  1.00  0.00    -0.120 A  
HETATM    8  C   UNL     1      -8.543   8.303  68.996  1.00  0.00    -0.135 A  
HETATM    9  C   UNL     1      -9.904   8.572  68.809  1.00  0.00    -0.180 A  
HETATM   10  C   UNL     1     -10.666   7.645  68.078  1.00  0.00    -0.152 A  
HETATM   11  C   UNL     1     -10.121   6.414  67.690  1.00  0.00    -0.181 A  
BRANCH   9  12
HETATM   12  C   UNL     1     -10.598   9.683  69.570  1.00  0.00    -0.229 C  
BRANCH  12  13
HETATM   13  N   UNL     1     -10.222  11.033  69.214  1.00  0.00    -0.384 N  
HETATM   14  H   UNL     1      -9.436  11.492  69.674  1.00  0.00     0.000 HD 
BRANCH  13  15
HETATM   15  C   UNL     1     -10.945  11.685  68.246  1.00  0.00    -0.226 C  
HETATM   16  O   UNL     1     -12.151  11.466  68.109  1.00  0.00    -0.623 OA 
BRANCH  15  17
HETATM   17  N   UNL     1     -10.260  12.620  67.459  1.00  0.00    -0.213 N  
BRANCH  17  18
HETATM   18  C   UNL     1      -9.927  12.145  66.087  1.00  0.00    -0.233 C  
BRANCH  18  19
HETATM   19  C   UNL     1      -9.061  10.883  66.013  1.00  0.00    -0.208 A  
HETATM   20  C   UNL     1      -7.369   8.799  65.263  1.00  0.00    -0.085 A  
HETATM   21  C   UNL     1      -7.722  10.875  66.431  1.00  0.00    -0.154 A  
HETATM   22  C   UNL     1      -6.870   9.846  66.026  1.00  0.00    -0.099 A  
HETATM   23  F   UNL     1      -6.525   7.878  64.771  1.00  0.00    -0.047 F  
HETATM   24  C   UNL     1      -8.722   8.712  64.968  1.00  0.00    -0.154 A  
HETATM   25  C   UNL     1      -9.576   9.743  65.363  1.00  0.00    -0.359 A  
ENDBRANCH  18  19
ENDBRANCH  17  18
BRANCH  17  26
HETATM   26  C   UNL     1      -9.666  13.912  67.966  1.00  0.00    -0.226 C  
HETATM   27  C   UNL     1      -9.315  14.970  66.903  1.00  0.00    -0.258 C  
HETATM   28  C   UNL     1     -10.424  14.618  69.134  1.00  0.00    -0.239 C  
HETATM   29  C   UNL     1      -9.888  17.577  68.152  1.00  0.00    -0.306 C  
HETATM   30  C   UNL     1     -10.498  15.857  66.551  1.00  0.00    -0.304 C  
HETATM   31  N   UNL     1     -10.926  16.649  67.699  1.00  0.00    -0.253 NA 
HETATM   32  C   UNL     1     -11.388  15.751  68.755  1.00  0.00    -0.362 C  
ENDBRANCH  17  26
ENDBRANCH  15  17
ENDBRANCH  13  15
ENDBRANCH  12  13
ENDBRANCH   9  12
ENDBRANCH   5   6
ENDBRANCH   4   5
TORSDOF 9
ENDMDL
MODEL      163
REMARK 921   NORMALIZED FREE ENERGY PREDICTED BY IDOCK:   -5.20 KCAL/MOL
REMARK 922        TOTAL FREE ENERGY PREDICTED BY IDOCK:   -9.41 KCAL/MOL
REMARK 923 INTER-LIGAND FREE ENERGY PREDICTED BY IDOCK:   -7.83 KCAL/MOL
REMARK 924 INTRA-LIGAND FREE ENERGY PREDICTED BY IDOCK:   -1.58 KCAL/MOL
REMARK 927      BINDING AFFINITY PREDICTED BY RF-SCORE:    0.00 PKD
ROOT
HETATM    1  C   UNL     1      -6.346  18.985  68.762  1.00  0.00    -0.270 C  
HETATM    2  C   UNL     1      -7.273  18.009  68.037  1.00  0.00    -0.230 C  
HETATM    3  C   UNL     1      -6.578  17.437  66.804  1.00  0.00    -0.246 C  
HETATM    4  C   UNL     1      -7.807  16.913  68.980  1.00  0.00    -0.184 C  
ENDROOT
BRANCH   4   5
HETATM    5  O   UNL     1      -6.769  16.078  69.512  1.00  0.00    -0.190 OA 
BRANCH   5   6
HETATM    6  C   UNL     1      -6.893  14.741  69.215  1.00  0.00    -0.144 A  
HETATM    7  C   UNL     1      -7.930  14.180  68.464  1.00  0.00    -0.145 A  
HETATM    8  C   UNL     1      -8.100  12.782  68.413  1.00  0.00    -0.129 A  
HETATM    9  C   UNL     1      -7.215  11.933  69.087  1.00  0.00    -0.020 A  
HETATM   10  C   UNL     1      -6.080  12.504  69.688  1.00  0.00    -0.133 A  
HETATM   11  C   UNL     1      -5.924  13.895  69.752  1.00  0.00    -0.124 A  
BRANCH   9  12
HETATM   12  C   UNL     1      -7.579  10.493  69.384  1.00  0.00    -0.145 C  
BRANCH  12  13
HETATM   13  N   UNL     1      -8.882  10.271  69.971  1.00  0.00    -0.359 N  
HETATM   14  H   UNL     1      -9.284  10.951  70.617  1.00  0.00     0.000 HD 
BRANCH  13  15
HETATM   15  C   UNL     1      -9.568   9.128  69.642  1.00  0.00    -0.176 C  
HETATM   16  O   UNL     1      -8.995   8.192  69.081  1.00  0.00    -0.143 OA 
BRANCH  15  17
HETATM   17  N   UNL     1     -10.920   9.070  70.003  1.00  0.00    -0.233 N  
BRANCH  17  18
HETATM   18  C   UNL     1     -11.769  10.132  69.391  1.00  0.00    -0.028 C  
BRANCH  18  19
HETATM   19  C   UNL     1     -12.041  11.354  70.273  1.00  0.00    -0.459 A  
HETATM   20  C   UNL     1     -13.033  13.676  71.453  1.00  0.00    -0.347 A  
HETATM   21  C   UNL     1     -12.835  11.276  71.426  1.00  0.00    -0.515 A  
HETATM   22  C   UNL     1     -13.358  12.440  71.995  1.00  0.00    -0.511 A  
HETATM   23  F   UNL     1     -13.633  14.782  71.922  1.00  0.00    -0.359 F  
HETATM   24  C   UNL     1     -12.128  13.782  70.407  1.00  0.00    -0.421 A  
HETATM   25  C   UNL     1     -11.611  12.622  69.829  1.00  0.00    -0.285 A  
ENDBRANCH  18  19
ENDBRANCH  17  18
BRANCH  17  26
HETATM   26  C   UNL     1     -11.492   8.196  71.094  1.00  0.00    -0.276 C  
HETATM   27  C   UNL     1     -11.749   6.722  70.728  1.00  0.00    -0.439 C  
HETATM   28  C   UNL     1     -10.767   8.242  72.476  1.00  0.00    -0.411 C  
HETATM   29  C   UNL     1     -11.144   5.179  73.165  1.00  0.00    -0.326 C  
HETATM   30  C   UNL     1     -10.518   5.850  70.918  1.00  0.00    -0.244 C  
HETATM   31  N   UNL     1     -10.120   5.795  72.320  1.00  0.00    -0.181 NA 
HETATM   32  C   UNL     1      -9.745   7.136  72.765  1.00  0.00    -0.158 C  
ENDBRANCH  17  26
ENDBRANCH  15  17
ENDBRANCH  13  15
ENDBRANCH  12  13
ENDBRANCH   9  12
ENDBRANCH   5   6
ENDBRANCH   4   5
TORSDOF 9
ENDMDL
MODEL      164
REMARK 921   NORMALIZED FREE ENERGY PREDICTED BY IDOCK:   -5.17 KCAL/MOL
REMARK 922        TOTAL FREE ENERGY PREDICTED BY IDOCK:   -9.35 KCAL/MOL
REMARK 923 INTER-LIGAND FREE ENERGY PREDICTED BY IDOCK:   -6.79 KCAL/MOL
REMARK 924 INTRA-LIGAND FREE ENERGY PREDICTED BY IDOCK:   -2.56 KCAL/MOL
REMARK 927      BINDING AFFINITY PREDICTED BY RF-SCORE:    0.00 PKD
ROOT
HETATM    1  C   UNL     1     -11.825  15.429  72.384  1.00  0.00    -0.558 C  
HETATM    2  C   UNL     1     -12.987  14.499  72.033  1.00  0.00    -0.417 C  
HETATM    3  C   UNL     1     -14.218  15.315  71.647  1.00  0.00    -0.654 C  
HETATM    4  C   UNL     1     -12.597  13.468  70.957  1.00  0.00    -0.359 C  
ENDROOT
BRANCH   4   5
HETATM    5  O   UNL     1     -12.244  14.072  69.705  1.00  0.00    -0.334 OA 
BRANCH   5   6
HETATM    6  C   UNL     1     -11.499  13.277  68.867  1.00  0.00    -0.298 A  
HETATM    7  C   UNL     1     -10.542  13.743  67.961  1.00  0.00    -0.258 A  
HETATM    8  C   UNL     1     -10.004  12.882  66.985  1.00  0.00    -0.244 A  
HETATM    9  C   UNL     1     -10.394  11.539  66.926  1.00  0.00    -0.258 A  
HETATM   10  C   UNL     1     -11.220  11.047  67.951  1.00  0.00    -0.375 A  
HETATM   11  C   UNL     1     -11.767  11.909  68.910  1.00  0.00    -0.381 A  
BRANCH   9  12
HETATM   12  C   UNL     1     -10.156  10.704  65.685  1.00  0.00    -0.272 C  
BRANCH  12  13
HETATM   13  N   UNL     1     -10.160   9.270  65.871  1.00  0.00    -0.367 N  
HETATM   14  H   UNL     1     -11.000   8.789  66.192  1.00  0.00     0.000 HD 
BRANCH  13  15
HETATM   15  C   UNL     1      -9.011   8.567  65.605  1.00  0.00    -0.160 C  
HETATM   16  O   UNL     1      -8.573   8.491  64.455  1.00  0.00    -0.127 OA 
BRANCH  15  17
HETATM   17  N   UNL     1      -8.355   7.981  66.696  1.00  0.00    -0.117 N  
BRANCH  17  18
HETATM   18  C   UNL     1      -7.037   8.594  67.024  1.00  0.00    -0.075 C  
BRANCH  18  19
HETATM   19  C   UNL     1      -7.083  10.042  67.521  1.00  0.00    -0.087 A  
HETATM   20  C   UNL     1      -6.587  12.520  68.698  1.00  0.00    -0.083 A  
HETATM   21  C   UNL     1      -6.608  11.110  66.746  1.00  0.00    -0.133 A  
HETATM   22  C   UNL     1      -6.329  12.340  67.346  1.00  0.00    -0.152 A  
HETATM   23  F   UNL     1      -6.204  13.659  69.299  1.00  0.00    -0.082 F  
HETATM   24  C   UNL     1      -7.198  11.526  69.447  1.00  0.00     0.001 A  
HETATM   25  C   UNL     1      -7.470  10.292  68.854  1.00  0.00    -0.094 A  
ENDBRANCH  18  19
ENDBRANCH  17  18
BRANCH  17  26
HETATM   26  C   UNL     1      -8.766   6.693  67.367  1.00  0.00    -0.118 C  
HETATM   27  C   UNL     1      -9.834   5.852  66.644  1.00  0.00    -0.197 C  
HETATM   28  C   UNL     1      -7.612   5.743  67.819  1.00  0.00    -0.085 C  
HETATM   29  C   UNL     1      -9.109   3.040  67.144  1.00  0.00    -0.175 C  
HETATM   30  C   UNL     1      -9.236   4.915  65.608  1.00  0.00    -0.156 C  
HETATM   31  N   UNL     1      -8.374   3.917  66.232  1.00  0.00    -0.104 NA 
HETATM   32  C   UNL     1      -7.247   4.591  66.873  1.00  0.00    -0.076 C  
ENDBRANCH  17  26
ENDBRANCH  15  17
ENDBRANCH  13  15
ENDBRANCH  12  13
ENDBRANCH   9  12
ENDBRANCH   5   6
ENDBRANCH   4   5
TORSDOF 9
ENDMDL
MODEL      165
REMARK 921   NORMALIZED FREE ENERGY PREDICTED BY IDOCK:   -5.14 KCAL/MOL
REMARK 922        TOTAL FREE ENERGY PREDICTED BY IDOCK:   -9.32 KCAL/MOL
REMARK 923 INTER-LIGAND FREE ENERGY PREDICTED BY IDOCK:   -6.65 KCAL/MOL
REMARK 924 INTRA-LIGAND FREE ENERGY PREDICTED BY IDOCK:   -2.67 KCAL/MOL
REMARK 927      BINDING AFFINITY PREDICTED BY RF-SCORE:    0.00 PKD
ROOT
HETATM    1  C   UNL     1     -10.417   9.221  71.027  1.00  0.00    -0.384 C  
HETATM    2  C   UNL     1     -11.226   8.256  71.895  1.00  0.00    -0.365 C  
HETATM    3  C   UNL     1     -12.672   8.734  72.010  1.00  0.00    -0.444 C  
HETATM    4  C   UNL     1     -11.119   6.803  71.395  1.00  0.00    -0.254 C  
ENDROOT
BRANCH   4   5
HETATM    5  O   UNL     1     -11.659   6.622  70.078  1.00  0.00    -0.380 OA 
BRANCH   5   6
HETATM    6  C   UNL     1     -10.738   6.283  69.117  1.00  0.00    -0.301 A  
HETATM    7  C   UNL     1      -9.370   6.103  69.345  1.00  0.00    -0.147 A  
HETATM    8  C   UNL     1      -8.474   5.990  68.264  1.00  0.00    -0.112 A  
HETATM    9  C   UNL     1      -8.941   6.025  66.945  1.00  0.00    -0.117 A  
HETATM   10  C   UNL     1     -10.331   6.029  66.737  1.00  0.00    -0.296 A  
HETATM   11  C   UNL     1     -11.218   6.159  67.814  1.00  0.00    -0.131 A  
BRANCH   9  12
HETATM   12  C   UNL     1      -8.007   6.304  65.786  1.00  0.00    -0.116 C  
BRANCH  12  13
HETATM   13  N   UNL     1      -8.486   7.234  64.788  1.00  0.00    -0.348 N  
HETATM   14  H   UNL     1      -9.424   7.140  64.398  1.00  0.00     0.000 HD 
BRANCH  13  15
HETATM   15  C   UNL     1      -7.655   8.246  64.375  1.00  0.00    -0.113 C  
HETATM   16  O   UNL     1      -6.977   8.123  63.352  1.00  0.00    -0.082 OA 
BRANCH  15  17
HETATM   17  N   UNL     1      -7.644   9.416  65.145  1.00  0.00    -0.106 N  
BRANCH  17  18
HETATM   18  C   UNL     1      -8.654  10.433  64.735  1.00  0.00    -0.182 C  
BRANCH  18  19
HETATM   19  C   UNL     1      -9.851  10.596  65.677  1.00  0.00    -0.307 A  
HETATM   20  C   UNL     1     -11.561  11.042  67.833  1.00  0.00    -0.226 A  
HETATM   21  C   UNL     1     -10.554  11.805  65.782  1.00  0.00    -0.312 A  
HETATM   22  C   UNL     1     -11.384  12.038  66.881  1.00  0.00    -0.400 A  
HETATM   23  F   UNL     1     -12.258  11.310  68.949  1.00  0.00    -0.392 F  
HETATM   24  C   UNL     1     -10.995   9.787  67.667  1.00  0.00    -0.226 A  
HETATM   25  C   UNL     1     -10.157   9.553  66.575  1.00  0.00    -0.326 A  
ENDBRANCH  18  19
ENDBRANCH  17  18
BRANCH  17  26
HETATM   26  C   UNL     1      -6.578   9.786  66.148  1.00  0.00    -0.080 C  
HETATM   27  C   UNL     1      -6.251  11.285  66.281  1.00  0.00    -0.064 C  
HETATM   28  C   UNL     1      -6.731   9.186  67.581  1.00  0.00    -0.069 C  
HETATM   29  C   UNL     1      -5.654  11.722  69.134  1.00  0.00    -0.052 C  
HETATM   30  C   UNL     1      -7.170  11.999  67.259  1.00  0.00    -0.150 C  
HETATM   31  N   UNL     1      -7.002  11.486  68.614  1.00  0.00    -0.082 NA 
HETATM   32  C   UNL     1      -7.387  10.076  68.645  1.00  0.00    -0.081 C  
ENDBRANCH  17  26
ENDBRANCH  15  17
ENDBRANCH  13  15
ENDBRANCH  12  13
ENDBRANCH   9  12
ENDBRANCH   5   6
ENDBRANCH   4   5
TORSDOF 9
ENDMDL
MODEL      166
REMARK 921   NORMALIZED FREE ENERGY PREDICTED BY IDOCK:   -5.11 KCAL/MOL
REMARK 922        TOTAL FREE ENERGY PREDICTED BY IDOCK:   -9.27 KCAL/MOL
REMARK 923 INTER-LIGAND FREE ENERGY PREDICTED BY IDOCK:   -8.12 KCAL/MOL
REMARK 924 INTRA-LIGAND FREE ENERGY PREDICTED BY IDOCK:   -1.15 KCAL/MOL
REMARK 927      BINDING AFFINITY PREDICTED BY RF-SCORE:    0.00 PKD
ROOT
HETATM    1  C   UNL     1     -13.536  15.904  73.433  1.00  0.00    -0.513 C  
HETATM    2  C   UNL     1     -13.088  15.531  72.019  1.00  0.00    -0.535 C  
HETATM    3  C   UNL     1     -11.564  15.454  71.951  1.00  0.00    -0.521 C  
HETATM    4  C   UNL     1     -13.770  14.244  71.519  1.00  0.00    -0.353 C  
ENDROOT
BRANCH   4   5
HETATM    5  O   UNL     1     -13.437  13.091  72.305  1.00  0.00    -0.540 OA 
BRANCH   5   6
HETATM    6  C   UNL     1     -12.992  12.009  71.585  1.00  0.00    -0.334 A  
HETATM    7  C   UNL     1     -13.173  10.672  71.953  1.00  0.00    -0.528 A  
HETATM    8  C   UNL     1     -12.481   9.646  71.281  1.00  0.00    -0.445 A  
HETATM    9  C   UNL     1     -11.626   9.944  70.214  1.00  0.00    -0.319 A  
HETATM   10  C   UNL     1     -11.593  11.268  69.745  1.00  0.00    -0.408 A  
HETATM   11  C   UNL     1     -12.268  12.289  70.427  1.00  0.00    -0.371 A  
BRANCH   9  12
HETATM   12  C   UNL     1     -10.586   8.951  69.738  1.00  0.00    -0.224 C  
BRANCH  12  13
HETATM   13  N   UNL     1     -11.068   7.870  68.906  1.00  0.00    -0.404 N  
HETATM   14  H   UNL     1     -11.504   8.063  68.005  1.00  0.00     0.000 HD 
BRANCH  13  15
HETATM   15  C   UNL     1     -10.929   6.580  69.354  1.00  0.00    -0.337 C  
HETATM   16  O   UNL     1     -11.621   6.160  70.285  1.00  0.00    -0.362 OA 
BRANCH  15  17
HETATM   17  N   UNL     1     -10.000   5.770  68.689  1.00  0.00    -0.144 N  
BRANCH  17  18
HETATM   18  C   UNL     1     -10.243   5.628  67.225  1.00  0.00    -0.206 C  
BRANCH  18  19
HETATM   19  C   UNL     1      -9.261   6.370  66.314  1.00  0.00    -0.162 A  
HETATM   20  C   UNL     1      -7.977   7.702  64.228  1.00  0.00    -0.112 A  
HETATM   21  C   UNL     1      -9.134   7.767  66.340  1.00  0.00    -0.216 A  
HETATM   22  C   UNL     1      -8.520   8.433  65.276  1.00  0.00    -0.189 A  
HETATM   23  F   UNL     1      -7.499   8.345  63.150  1.00  0.00    -0.094 F  
HETATM   24  C   UNL     1      -7.959   6.315  64.259  1.00  0.00    -0.108 A  
HETATM   25  C   UNL     1      -8.580   5.645  65.314  1.00  0.00    -0.141 A  
ENDBRANCH  18  19
ENDBRANCH  17  18
BRANCH  17  26
HETATM   26  C   UNL     1      -8.970   4.895  69.362  1.00  0.00    -0.097 C  
HETATM   27  C   UNL     1      -9.019   3.393  69.025  1.00  0.00    -0.185 C  
HETATM   28  C   UNL     1      -7.486   5.372  69.277  1.00  0.00    -0.073 C  
HETATM   29  C   UNL     1      -6.215   2.489  68.998  1.00  0.00    -0.028 C  
HETATM   30  C   UNL     1      -8.232   3.051  67.771  1.00  0.00    -0.079 C  
HETATM   31  N   UNL     1      -6.809   3.319  67.949  1.00  0.00    -0.049 NA 
HETATM   32  C   UNL     1      -6.616   4.750  68.176  1.00  0.00    -0.042 C  
ENDBRANCH  17  26
ENDBRANCH  15  17
ENDBRANCH  13  15
ENDBRANCH  12  13
ENDBRANCH   9  12
ENDBRANCH   5   6
ENDBRANCH   4   5
TORSDOF 9
ENDMDL
MODEL      167
REMARK 921   NORMALIZED FREE ENERGY PREDICTED BY IDOCK:   -5.11 KCAL/MOL
REMARK 922        TOTAL FREE ENERGY PREDICTED BY IDOCK:   -9.27 KCAL/MOL
REMARK 923 INTER-LIGAND FREE ENERGY PREDICTED BY IDOCK:   -7.89 KCAL/MOL
REMARK 924 INTRA-LIGAND FREE ENERGY PREDICTED BY IDOCK:   -1.37 KCAL/MOL
REMARK 927      BINDING AFFINITY PREDICTED BY RF-SCORE:    0.00 PKD
ROOT
HETATM    1  C   UNL     1      -6.034   6.930  64.515  1.00  0.00    -0.036 C  
HETATM    2  C   UNL     1      -7.152   7.216  65.519  1.00  0.00    -0.064 C  
HETATM    3  C   UNL     1      -6.719   6.799  66.923  1.00  0.00    -0.056 C  
HETATM    4  C   UNL     1      -7.625   8.680  65.454  1.00  0.00    -0.087 C  
ENDROOT
BRANCH   4   5
HETATM    5  O   UNL     1      -6.596   9.617  65.803  1.00  0.00    -0.075 OA 
BRANCH   5   6
HETATM    6  C   UNL     1      -6.974  10.585  66.702  1.00  0.00    -0.113 A  
HETATM    7  C   UNL     1      -8.185  10.600  67.401  1.00  0.00    -0.115 A  
HETATM    8  C   UNL     1      -8.583  11.747  68.115  1.00  0.00    -0.160 A  
HETATM    9  C   UNL     1      -7.760  12.878  68.163  1.00  0.00    -0.138 A  
HETATM   10  C   UNL     1      -6.474  12.782  67.605  1.00  0.00    -0.152 A  
HETATM   11  C   UNL     1      -6.088  11.647  66.880  1.00  0.00    -0.148 A  
BRANCH   9  12
HETATM   12  C   UNL     1      -8.305  14.231  68.568  1.00  0.00    -0.156 C  
BRANCH  12  13
HETATM   13  N   UNL     1      -9.465  14.221  69.432  1.00  0.00    -0.359 N  
HETATM   14  H   UNL     1      -9.442  13.731  70.327  1.00  0.00     0.000 HD 
BRANCH  13  15
HETATM   15  C   UNL     1     -10.598  14.881  69.025  1.00  0.00    -0.245 C  
HETATM   16  O   UNL     1     -11.533  15.064  69.808  1.00  0.00    -0.261 OA 
BRANCH  15  17
HETATM   17  N   UNL     1     -10.620  15.357  67.708  1.00  0.00    -0.267 N  
BRANCH  17  18
HETATM   18  C   UNL     1     -11.010  16.790  67.577  1.00  0.00    -0.134 C  
BRANCH  18  19
HETATM   19  C   UNL     1      -9.851  17.787  67.474  1.00  0.00    -0.304 A  
HETATM   20  C   UNL     1      -8.219  20.045  67.395  1.00  0.00    -0.332 A  
HETATM   21  C   UNL     1      -9.063  18.128  68.583  1.00  0.00    -0.290 A  
HETATM   22  C   UNL     1      -8.273  19.279  68.552  1.00  0.00    -0.401 A  
HETATM   23  F   UNL     1      -7.559  21.215  67.406  1.00  0.00    -0.406 F  
HETATM   24  C   UNL     1      -8.871  19.641  66.240  1.00  0.00    -0.410 A  
HETATM   25  C   UNL     1      -9.670  18.497  66.269  1.00  0.00    -0.315 A  
ENDBRANCH  18  19
ENDBRANCH  17  18
BRANCH  17  26
HETATM   26  C   UNL     1     -10.511  14.498  66.471  1.00  0.00    -0.285 C  
HETATM   27  C   UNL     1     -11.555  13.376  66.321  1.00  0.00    -0.378 C  
HETATM   28  C   UNL     1     -10.395  15.250  65.108  1.00  0.00    -0.413 C  
HETATM   29  C   UNL     1     -12.126  13.198  63.436  1.00  0.00    -0.486 C  
HETATM   30  C   UNL     1     -12.837  13.856  65.661  1.00  0.00    -0.424 C  
HETATM   31  N   UNL     1     -12.595  14.290  64.289  1.00  0.00    -0.677 NA 
HETATM   32  C   UNL     1     -11.688  15.435  64.301  1.00  0.00    -0.206 C  
ENDBRANCH  17  26
ENDBRANCH  15  17
ENDBRANCH  13  15
ENDBRANCH  12  13
ENDBRANCH   9  12
ENDBRANCH   5   6
ENDBRANCH   4   5
TORSDOF 9
ENDMDL
MODEL      168
REMARK 921   NORMALIZED FREE ENERGY PREDICTED BY IDOCK:   -5.11 KCAL/MOL
REMARK 922        TOTAL FREE ENERGY PREDICTED BY IDOCK:   -9.26 KCAL/MOL
REMARK 923 INTER-LIGAND FREE ENERGY PREDICTED BY IDOCK:   -8.12 KCAL/MOL
REMARK 924 INTRA-LIGAND FREE ENERGY PREDICTED BY IDOCK:   -1.14 KCAL/MOL
REMARK 927      BINDING AFFINITY PREDICTED BY RF-SCORE:    0.00 PKD
ROOT
HETATM    1  C   UNL     1      -8.623  16.001  69.168  1.00  0.00    -0.247 C  
HETATM    2  C   UNL     1     -10.095  16.349  69.398  1.00  0.00    -0.243 C  
HETATM    3  C   UNL     1     -10.439  17.669  68.712  1.00  0.00    -0.287 C  
HETATM    4  C   UNL     1     -11.031  15.200  68.979  1.00  0.00    -0.244 C  
ENDROOT
BRANCH   4   5
HETATM    5  O   UNL     1     -10.959  14.902  67.578  1.00  0.00    -0.285 OA 
BRANCH   5   6
HETATM    6  C   UNL     1     -10.976  13.562  67.269  1.00  0.00    -0.280 A  
HETATM    7  C   UNL     1     -11.550  12.564  68.062  1.00  0.00    -0.395 A  
HETATM    8  C   UNL     1     -11.312  11.205  67.783  1.00  0.00    -0.364 A  
HETATM    9  C   UNL     1     -10.524  10.830  66.689  1.00  0.00    -0.302 A  
HETATM   10  C   UNL     1     -10.102  11.836  65.803  1.00  0.00    -0.270 A  
HETATM   11  C   UNL     1     -10.326  13.188  66.094  1.00  0.00    -0.287 A  
BRANCH   9  12
HETATM   12  C   UNL     1      -9.928   9.441  66.587  1.00  0.00    -0.258 C  
BRANCH  12  13
HETATM   13  N   UNL     1     -10.618   8.395  67.309  1.00  0.00    -0.418 N  
HETATM   14  H   UNL     1     -11.614   8.476  67.516  1.00  0.00     0.000 HD 
BRANCH  13  15
HETATM   15  C   UNL     1      -9.908   7.291  67.712  1.00  0.00    -0.149 C  
HETATM   16  O   UNL     1      -9.533   6.453  66.889  1.00  0.00    -0.134 OA 
BRANCH  15  17
HETATM   17  N   UNL     1      -9.608   7.188  69.076  1.00  0.00    -0.146 N  
BRANCH  17  18
HETATM   18  C   UNL     1      -9.798   8.450  69.846  1.00  0.00    -0.186 C  
BRANCH  18  19
HETATM   19  C   UNL     1     -11.186   8.648  70.464  1.00  0.00    -0.266 A  
HETATM   20  C   UNL     1     -13.419   8.769  72.128  1.00  0.00    -0.427 A  
HETATM   21  C   UNL     1     -11.581   9.870  71.028  1.00  0.00    -0.470 A  
HETATM   22  C   UNL     1     -12.680   9.920  71.888  1.00  0.00    -0.501 A  
HETATM   23  F   UNL     1     -14.397   8.790  73.048  1.00  0.00    -0.374 F  
HETATM   24  C   UNL     1     -13.135   7.586  71.461  1.00  0.00    -0.402 A  
HETATM   25  C   UNL     1     -12.032   7.529  70.608  1.00  0.00    -0.161 A  
ENDBRANCH  18  19
ENDBRANCH  17  18
BRANCH  17  26
HETATM   26  C   UNL     1      -8.918   6.014  69.727  1.00  0.00    -0.133 C  
HETATM   27  C   UNL     1      -7.682   6.335  70.588  1.00  0.00    -0.105 C  
HETATM   28  C   UNL     1      -9.827   5.022  70.519  1.00  0.00    -0.290 C  
HETATM   29  C   UNL     1      -7.750   4.420  72.827  1.00  0.00    -0.086 C  
HETATM   30  C   UNL     1      -8.045   6.690  72.021  1.00  0.00    -0.102 C  
HETATM   31  N   UNL     1      -8.661   5.559  72.707  1.00  0.00    -0.120 NA 
HETATM   32  C   UNL     1      -9.915   5.218  72.039  1.00  0.00    -0.187 C  
ENDBRANCH  17  26
ENDBRANCH  15  17
ENDBRANCH  13  15
ENDBRANCH  12  13
ENDBRANCH   9  12
ENDBRANCH   5   6
ENDBRANCH   4   5
TORSDOF 9
ENDMDL
MODEL      169
REMARK 921   NORMALIZED FREE ENERGY PREDICTED BY IDOCK:   -5.11 KCAL/MOL
REMARK 922        TOTAL FREE ENERGY PREDICTED BY IDOCK:   -9.26 KCAL/MOL
REMARK 923 INTER-LIGAND FREE ENERGY PREDICTED BY IDOCK:   -7.35 KCAL/MOL
REMARK 924 INTRA-LIGAND FREE ENERGY PREDICTED BY IDOCK:   -1.91 KCAL/MOL
REMARK 927      BINDING AFFINITY PREDICTED BY RF-SCORE:    0.00 PKD
ROOT
HETATM    1  C   UNL     1      -6.941  19.101  68.727  1.00  0.00    -0.356 C  
HETATM    2  C   UNL     1      -7.514  18.040  67.785  1.00  0.00    -0.211 C  
HETATM    3  C   UNL     1      -6.398  17.419  66.948  1.00  0.00    -0.217 C  
HETATM    4  C   UNL     1      -8.345  16.986  68.542  1.00  0.00    -0.260 C  
ENDROOT
BRANCH   4   5
HETATM    5  O   UNL     1      -7.569  16.233  69.485  1.00  0.00    -0.190 OA 
BRANCH   5   6
HETATM    6  C   UNL     1      -7.360  14.919  69.144  1.00  0.00    -0.158 A  
HETATM    7  C   UNL     1      -8.153  14.185  68.256  1.00  0.00    -0.146 A  
HETATM    8  C   UNL     1      -8.003  12.789  68.151  1.00  0.00    -0.156 A  
HETATM    9  C   UNL     1      -7.038  12.117  68.910  1.00  0.00    -0.098 A  
HETATM   10  C   UNL     1      -6.135  12.888  69.662  1.00  0.00    -0.124 A  
HETATM   11  C   UNL     1      -6.298  14.275  69.777  1.00  0.00    -0.144 A  
BRANCH   9  12
HETATM   12  C   UNL     1      -7.108  10.619  69.124  1.00  0.00    -0.095 C  
BRANCH  12  13
HETATM   13  N   UNL     1      -8.381  10.096  69.569  1.00  0.00    -0.167 N  
HETATM   14  H   UNL     1      -9.024  10.679  70.105  1.00  0.00     0.000 HD 
BRANCH  13  15
HETATM   15  C   UNL     1      -8.708   8.800  69.256  1.00  0.00    -0.135 C  
HETATM   16  O   UNL     1      -7.830   7.942  69.143  1.00  0.00    -0.105 OA 
BRANCH  15  17
HETATM   17  N   UNL     1     -10.069   8.503  69.109  1.00  0.00    -0.197 N  
BRANCH  17  18
HETATM   18  C   UNL     1     -10.656   8.931  67.808  1.00  0.00    -0.202 C  
BRANCH  18  19
HETATM   19  C   UNL     1     -10.830  10.442  67.623  1.00  0.00    -0.361 A  
HETATM   20  C   UNL     1     -11.720  13.013  67.016  1.00  0.00    -0.383 A  
HETATM   21  C   UNL     1     -11.373  11.256  68.627  1.00  0.00    -0.336 A  
HETATM   22  C   UNL     1     -11.849  12.531  68.312  1.00  0.00    -0.361 A  
HETATM   23  F   UNL     1     -12.287  14.185  66.686  1.00  0.00    -0.447 F  
HETATM   24  C   UNL     1     -11.048  12.283  66.046  1.00  0.00    -0.347 A  
HETATM   25  C   UNL     1     -10.580  11.004  66.354  1.00  0.00    -0.308 A  
ENDBRANCH  18  19
ENDBRANCH  17  18
BRANCH  17  26
HETATM   26  C   UNL     1     -10.977   8.019  70.214  1.00  0.00    -0.242 C  
HETATM   27  C   UNL     1     -11.466   6.562  70.112  1.00  0.00    -0.477 C  
HETATM   28  C   UNL     1     -10.494   8.276  71.676  1.00  0.00    -0.303 C  
HETATM   29  C   UNL     1     -11.596   5.568  72.883  1.00  0.00    -0.218 C  
HETATM   30  C   UNL     1     -10.488   5.573  70.723  1.00  0.00    -0.260 C  
HETATM   31  N   UNL     1     -10.344   5.791  72.159  1.00  0.00    -0.199 NA 
HETATM   32  C   UNL     1      -9.780   7.120  72.388  1.00  0.00    -0.149 C  
ENDBRANCH  17  26
ENDBRANCH  15  17
ENDBRANCH  13  15
ENDBRANCH  12  13
ENDBRANCH   9  12
ENDBRANCH   5   6
ENDBRANCH   4   5
TORSDOF 9
ENDMDL
MODEL      170
REMARK 921   NORMALIZED FREE ENERGY PREDICTED BY IDOCK:   -5.10 KCAL/MOL
REMARK 922        TOTAL FREE ENERGY PREDICTED BY IDOCK:   -9.25 KCAL/MOL
REMARK 923 INTER-LIGAND FREE ENERGY PREDICTED BY IDOCK:   -8.01 KCAL/MOL
REMARK 924 INTRA-LIGAND FREE ENERGY PREDICTED BY IDOCK:   -1.23 KCAL/MOL
REMARK 927      BINDING AFFINITY PREDICTED BY RF-SCORE:    0.00 PKD
ROOT
HETATM    1  C   UNL     1      -8.587  19.774  67.042  1.00  0.00    -0.378 C  
HETATM    2  C   UNL     1     -10.079  19.443  67.099  1.00  0.00    -0.490 C  
HETATM    3  C   UNL     1     -10.752  19.812  65.779  1.00  0.00    -0.474 C  
HETATM    4  C   UNL     1     -10.330  17.978  67.504  1.00  0.00    -0.385 C  
ENDROOT
BRANCH   4   5
HETATM    5  O   UNL     1      -9.800  17.037  66.560  1.00  0.00    -0.267 OA 
BRANCH   5   6
HETATM    6  C   UNL     1     -10.027  15.717  66.868  1.00  0.00    -0.243 A  
HETATM    7  C   UNL     1     -11.194  15.221  67.456  1.00  0.00    -0.317 A  
HETATM    8  C   UNL     1     -11.241  13.902  67.948  1.00  0.00    -0.302 A  
HETATM    9  C   UNL     1     -10.132  13.057  67.827  1.00  0.00    -0.229 A  
HETATM   10  C   UNL     1      -9.034  13.513  67.078  1.00  0.00    -0.237 A  
HETATM   11  C   UNL     1      -8.984  14.831  66.606  1.00  0.00    -0.286 A  
BRANCH   9  12
HETATM   12  C   UNL     1     -10.000  11.806  68.671  1.00  0.00    -0.172 C  
BRANCH  12  13
HETATM   13  N   UNL     1      -8.658  11.441  69.066  1.00  0.00    -0.373 N  
HETATM   14  H   UNL     1      -7.874  12.068  68.886  1.00  0.00     0.000 HD 
BRANCH  13  15
HETATM   15  C   UNL     1      -8.458  10.232  69.686  1.00  0.00    -0.115 C  
HETATM   16  O   UNL     1      -7.707  10.144  70.660  1.00  0.00    -0.202 OA 
BRANCH  15  17
HETATM   17  N   UNL     1      -9.167   9.133  69.186  1.00  0.00    -0.143 N  
BRANCH  17  18
HETATM   18  C   UNL     1      -8.515   8.452  68.032  1.00  0.00    -0.132 C  
BRANCH  18  19
HETATM   19  C   UNL     1      -8.443   9.263  66.735  1.00  0.00    -0.129 A  
HETATM   20  C   UNL     1      -8.123  10.163  64.116  1.00  0.00    -0.158 A  
HETATM   21  C   UNL     1      -9.562   9.444  65.909  1.00  0.00    -0.338 A  
HETATM   22  C   UNL     1      -9.395   9.863  64.587  1.00  0.00    -0.338 A  
HETATM   23  F   UNL     1      -7.949  10.445  62.815  1.00  0.00    -0.139 F  
HETATM   24  C   UNL     1      -7.024  10.137  64.962  1.00  0.00    -0.135 A  
HETATM   25  C   UNL     1      -7.185   9.709  66.281  1.00  0.00    -0.094 A  
ENDBRANCH  18  19
ENDBRANCH  17  18
BRANCH  17  26
HETATM   26  C   UNL     1     -10.581   8.765  69.567  1.00  0.00    -0.219 C  
HETATM   27  C   UNL     1     -10.930   7.265  69.541  1.00  0.00    -0.182 C  
HETATM   28  C   UNL     1     -11.128   9.377  70.895  1.00  0.00    -0.389 C  
HETATM   29  C   UNL     1     -12.809   6.846  71.772  1.00  0.00    -0.304 C  
HETATM   30  C   UNL     1     -10.585   6.563  70.845  1.00  0.00    -0.230 C  
HETATM   31  N   UNL     1     -11.377   7.085  71.953  1.00  0.00    -0.248 NA 
HETATM   32  C   UNL     1     -11.055   8.497  72.150  1.00  0.00    -0.366 C  
ENDBRANCH  17  26
ENDBRANCH  15  17
ENDBRANCH  13  15
ENDBRANCH  12  13
ENDBRANCH   9  12
ENDBRANCH   5   6
ENDBRANCH   4   5
TORSDOF 9
ENDMDL
MODEL      171
REMARK 921   NORMALIZED FREE ENERGY PREDICTED BY IDOCK:   -5.09 KCAL/MOL
REMARK 922        TOTAL FREE ENERGY PREDICTED BY IDOCK:   -9.24 KCAL/MOL
REMARK 923 INTER-LIGAND FREE ENERGY PREDICTED BY IDOCK:   -7.79 KCAL/MOL
REMARK 924 INTRA-LIGAND FREE ENERGY PREDICTED BY IDOCK:   -1.45 KCAL/MOL
REMARK 927      BINDING AFFINITY PREDICTED BY RF-SCORE:    0.00 PKD
ROOT
HETATM    1  C   UNL     1     -12.932  15.990  73.776  1.00  0.00    -0.621 C  
HETATM    2  C   UNL     1     -12.874  15.664  72.283  1.00  0.00    -0.523 C  
HETATM    3  C   UNL     1     -11.425  15.489  71.836  1.00  0.00    -0.506 C  
HETATM    4  C   UNL     1     -13.757  14.453  71.923  1.00  0.00    -0.431 C  
ENDROOT
BRANCH   4   5
HETATM    5  O   UNL     1     -13.332  13.241  72.561  1.00  0.00    -0.544 OA 
BRANCH   5   6
HETATM    6  C   UNL     1     -13.054  12.203  71.704  1.00  0.00    -0.310 A  
HETATM    7  C   UNL     1     -13.390  10.865  71.931  1.00  0.00    -0.429 A  
HETATM    8  C   UNL     1     -12.859   9.846  71.115  1.00  0.00    -0.461 A  
HETATM    9  C   UNL     1     -12.012  10.159  70.046  1.00  0.00    -0.210 A  
HETATM   10  C   UNL     1     -11.827  11.515  69.725  1.00  0.00    -0.429 A  
HETATM   11  C   UNL     1     -12.343  12.525  70.549  1.00  0.00    -0.345 A  
BRANCH   9  12
HETATM   12  C   UNL     1     -11.125   9.109  69.411  1.00  0.00    -0.008 C  
BRANCH  12  13
HETATM   13  N   UNL     1     -10.276   8.360  70.311  1.00  0.00    -0.193 N  
HETATM   14  H   UNL     1     -10.673   7.659  70.937  1.00  0.00     0.000 HD 
BRANCH  13  15
HETATM   15  C   UNL     1      -8.927   8.612  70.309  1.00  0.00    -0.154 C  
HETATM   16  O   UNL     1      -8.465   9.564  70.942  1.00  0.00    -0.269 OA 
BRANCH  15  17
HETATM   17  N   UNL     1      -8.114   7.726  69.590  1.00  0.00    -0.120 N  
BRANCH  17  18
HETATM   18  C   UNL     1      -7.527   6.626  70.407  1.00  0.00    -0.090 C  
BRANCH  18  19
HETATM   19  C   UNL     1      -8.504   5.532  70.846  1.00  0.00    -0.123 A  
HETATM   20  C   UNL     1      -9.759   3.148  71.562  1.00  0.00    -0.156 A  
HETATM   21  C   UNL     1      -8.717   5.224  72.198  1.00  0.00    -0.131 A  
HETATM   22  C   UNL     1      -9.315   4.013  72.553  1.00  0.00    -0.160 A  
HETATM   23  F   UNL     1     -10.219   1.933  71.903  1.00  0.00    -0.219 F  
HETATM   24  C   UNL     1      -9.695   3.503  70.223  1.00  0.00    -0.165 A  
HETATM   25  C   UNL     1      -9.089   4.707  69.862  1.00  0.00    -0.161 A  
ENDBRANCH  18  19
ENDBRANCH  17  18
BRANCH  17  26
HETATM   26  C   UNL     1      -7.633   7.942  68.175  1.00  0.00    -0.116 C  
HETATM   27  C   UNL     1      -8.291   7.074  67.086  1.00  0.00    -0.121 C  
HETATM   28  C   UNL     1      -7.591   9.418  67.670  1.00  0.00    -0.088 C  
HETATM   29  C   UNL     1      -8.475   8.791  64.699  1.00  0.00    -0.151 C  
HETATM   30  C   UNL     1      -9.579   7.682  66.554  1.00  0.00    -0.186 C  
HETATM   31  N   UNL     1      -9.325   8.951  65.879  1.00  0.00    -0.234 NA 
HETATM   32  C   UNL     1      -8.788   9.908  66.844  1.00  0.00    -0.134 C  
ENDBRANCH  17  26
ENDBRANCH  15  17
ENDBRANCH  13  15
ENDBRANCH  12  13
ENDBRANCH   9  12
ENDBRANCH   5   6
ENDBRANCH   4   5
TORSDOF 9
ENDMDL
MODEL      172
REMARK 921   NORMALIZED FREE ENERGY PREDICTED BY IDOCK:   -5.09 KCAL/MOL
REMARK 922        TOTAL FREE ENERGY PREDICTED BY IDOCK:   -9.24 KCAL/MOL
REMARK 923 INTER-LIGAND FREE ENERGY PREDICTED BY IDOCK:   -7.87 KCAL/MOL
REMARK 924 INTRA-LIGAND FREE ENERGY PREDICTED BY IDOCK:   -1.38 KCAL/MOL
REMARK 927      BINDING AFFINITY PREDICTED BY RF-SCORE:    0.00 PKD
ROOT
HETATM    1  C   UNL     1      -8.597   4.164  67.902  1.00  0.00    -0.107 C  
HETATM    2  C   UNL     1      -8.366   5.327  66.935  1.00  0.00    -0.107 C  
HETATM    3  C   UNL     1      -9.511   5.412  65.928  1.00  0.00    -0.138 C  
HETATM    4  C   UNL     1      -8.129   6.656  67.678  1.00  0.00    -0.119 C  
ENDROOT
BRANCH   4   5
HETATM    5  O   UNL     1      -9.260   7.071  68.458  1.00  0.00    -0.138 OA 
BRANCH   5   6
HETATM    6  C   UNL     1      -9.524   8.419  68.423  1.00  0.00    -0.139 A  
HETATM    7  C   UNL     1     -10.440   9.034  67.565  1.00  0.00    -0.338 A  
HETATM    8  C   UNL     1     -10.470  10.437  67.438  1.00  0.00    -0.299 A  
HETATM    9  C   UNL     1      -9.606  11.238  68.192  1.00  0.00    -0.186 A  
HETATM   10  C   UNL     1      -8.817  10.616  69.175  1.00  0.00    -0.133 A  
HETATM   11  C   UNL     1      -8.777   9.220  69.286  1.00  0.00    -0.141 A  
BRANCH   9  12
HETATM   12  C   UNL     1      -9.331  12.677  67.808  1.00  0.00    -0.198 C  
BRANCH  12  13
HETATM   13  N   UNL     1      -8.706  13.501  68.820  1.00  0.00    -0.369 N  
HETATM   14  H   UNL     1      -8.037  13.099  69.476  1.00  0.00     0.000 HD 
BRANCH  13  15
HETATM   15  C   UNL     1      -9.032  14.833  68.880  1.00  0.00    -0.167 C  
HETATM   16  O   UNL     1      -8.277  15.639  69.428  1.00  0.00    -0.240 OA 
BRANCH  15  17
HETATM   17  N   UNL     1     -10.229  15.226  68.267  1.00  0.00    -0.224 N  
BRANCH  17  18
HETATM   18  C   UNL     1     -10.073  15.718  66.869  1.00  0.00    -0.266 C  
BRANCH  18  19
HETATM   19  C   UNL     1      -9.614  17.172  66.724  1.00  0.00    -0.279 A  
HETATM   20  C   UNL     1      -8.680  19.770  67.111  1.00  0.00    -0.323 A  
HETATM   21  C   UNL     1      -8.294  17.505  66.388  1.00  0.00    -0.297 A  
HETATM   22  C   UNL     1      -7.820  18.799  66.615  1.00  0.00    -0.275 A  
HETATM   23  F   UNL     1      -8.193  20.976  67.445  1.00  0.00    -0.370 F  
HETATM   24  C   UNL     1     -10.026  19.499  67.306  1.00  0.00    -0.493 A  
HETATM   25  C   UNL     1     -10.502  18.205  67.090  1.00  0.00    -0.392 A  
ENDBRANCH  18  19
ENDBRANCH  17  18
BRANCH  17  26
HETATM   26  C   UNL     1     -11.553  15.395  68.974  1.00  0.00    -0.347 C  
HETATM   27  C   UNL     1     -12.450  14.146  69.058  1.00  0.00     0.044 C  
HETATM   28  C   UNL     1     -11.511  16.069  70.381  1.00  0.00    -0.392 C  
HETATM   29  C   UNL     1     -13.799  14.310  71.673  1.00  0.00    -0.393 C  
HETATM   30  C   UNL     1     -12.122  13.272  70.258  1.00  0.00    -0.335 C  
HETATM   31  N   UNL     1     -12.384  13.973  71.510  1.00  0.00    -0.323 NA 
HETATM   32  C   UNL     1     -11.506  15.138  71.601  1.00  0.00    -0.380 C  
ENDBRANCH  17  26
ENDBRANCH  15  17
ENDBRANCH  13  15
ENDBRANCH  12  13
ENDBRANCH   9  12
ENDBRANCH   5   6
ENDBRANCH   4   5
TORSDOF 9
ENDMDL
MODEL      173
REMARK 921   NORMALIZED FREE ENERGY PREDICTED BY IDOCK:   -5.08 KCAL/MOL
REMARK 922        TOTAL FREE ENERGY PREDICTED BY IDOCK:   -9.22 KCAL/MOL
REMARK 923 INTER-LIGAND FREE ENERGY PREDICTED BY IDOCK:   -8.18 KCAL/MOL
REMARK 924 INTRA-LIGAND FREE ENERGY PREDICTED BY IDOCK:   -1.04 KCAL/MOL
REMARK 927      BINDING AFFINITY PREDICTED BY RF-SCORE:    0.00 PKD
ROOT
HETATM    1  C   UNL     1      -9.344   1.916  69.000  1.00  0.00    -0.194 C  
HETATM    2  C   UNL     1      -8.683   3.230  68.576  1.00  0.00    -0.141 C  
HETATM    3  C   UNL     1      -9.669   4.084  67.782  1.00  0.00    -0.155 C  
HETATM    4  C   UNL     1      -8.077   3.983  69.775  1.00  0.00    -0.054 C  
ENDROOT
BRANCH   4   5
HETATM    5  O   UNL     1      -9.060   4.383  70.741  1.00  0.00    -0.111 OA 
BRANCH   5   6
HETATM    6  C   UNL     1      -9.542   5.660  70.582  1.00  0.00    -0.168 A  
HETATM    7  C   UNL     1     -10.892   5.996  70.440  1.00  0.00    -0.386 A  
HETATM    8  C   UNL     1     -11.267   7.296  70.047  1.00  0.00    -0.234 A  
HETATM    9  C   UNL     1     -10.298   8.280  69.824  1.00  0.00    -0.216 A  
HETATM   10  C   UNL     1      -8.963   7.976  70.141  1.00  0.00    -0.150 A  
HETATM   11  C   UNL     1      -8.591   6.678  70.514  1.00  0.00    -0.143 A  
BRANCH   9  12
HETATM   12  C   UNL     1     -10.617   9.534  69.037  1.00  0.00    -0.219 C  
BRANCH  12  13
HETATM   13  N   UNL     1     -10.653  10.769  69.790  1.00  0.00    -0.426 N  
HETATM   14  H   UNL     1      -9.801  11.154  70.197  1.00  0.00     0.000 HD 
BRANCH  13  15
HETATM   15  C   UNL     1     -11.856  11.411  69.946  1.00  0.00    -0.359 C  
HETATM   16  O   UNL     1     -12.871  10.777  70.246  1.00  0.00    -0.299 OA 
BRANCH  15  17
HETATM   17  N   UNL     1     -11.863  12.802  69.785  1.00  0.00    -0.327 N  
BRANCH  17  18
HETATM   18  C   UNL     1     -10.706  13.339  69.013  1.00  0.00    -0.121 C  
BRANCH  18  19
HETATM   19  C   UNL     1     -10.900  13.418  67.496  1.00  0.00    -0.276 A  
HETATM   20  C   UNL     1     -11.705  14.014  64.894  1.00  0.00    -0.380 A  
HETATM   21  C   UNL     1     -10.118  14.257  66.689  1.00  0.00    -0.274 A  
HETATM   22  C   UNL     1     -10.542  14.580  65.398  1.00  0.00    -0.385 A  
HETATM   23  F   UNL     1     -12.177  14.419  63.704  1.00  0.00    -0.442 F  
HETATM   24  C   UNL     1     -12.410  13.064  65.620  1.00  0.00    -0.504 A  
HETATM   25  C   UNL     1     -11.995  12.746  66.914  1.00  0.00    -0.380 A  
ENDBRANCH  18  19
ENDBRANCH  17  18
BRANCH  17  26
HETATM   26  C   UNL     1     -12.786  13.756  70.505  1.00  0.00    -0.222 C  
HETATM   27  C   UNL     1     -12.991  13.508  72.011  1.00  0.00    -0.420 C  
HETATM   28  C   UNL     1     -12.522  15.279  70.287  1.00  0.00    -0.405 C  
HETATM   29  C   UNL     1     -13.246  16.178  73.232  1.00  0.00    -0.464 C  
HETATM   30  C   UNL     1     -11.925  14.175  72.863  1.00  0.00     0.593 C  
HETATM   31  N   UNL     1     -11.982  15.628  72.740  1.00  0.00    -0.445 NA 
HETATM   32  C   UNL     1     -11.696  16.004  71.358  1.00  0.00    -0.473 C  
ENDBRANCH  17  26
ENDBRANCH  15  17
ENDBRANCH  13  15
ENDBRANCH  12  13
ENDBRANCH   9  12
ENDBRANCH   5   6
ENDBRANCH   4   5
TORSDOF 9
ENDMDL
MODEL      174
REMARK 921   NORMALIZED FREE ENERGY PREDICTED BY IDOCK:   -5.08 KCAL/MOL
REMARK 922        TOTAL FREE ENERGY PREDICTED BY IDOCK:   -9.22 KCAL/MOL
REMARK 923 INTER-LIGAND FREE ENERGY PREDICTED BY IDOCK:   -7.73 KCAL/MOL
REMARK 924 INTRA-LIGAND FREE ENERGY PREDICTED BY IDOCK:   -1.49 KCAL/MOL
REMARK 927      BINDING AFFINITY PREDICTED BY RF-SCORE:    0.00 PKD
ROOT
HETATM    1  C   UNL     1      -7.024   3.993  65.297  1.00  0.00    -0.061 C  
HETATM    2  C   UNL     1      -8.428   4.524  65.007  1.00  0.00    -0.128 C  
HETATM    3  C   UNL     1      -9.481   3.567  65.562  1.00  0.00    -0.147 C  
HETATM    4  C   UNL     1      -8.614   5.968  65.512  1.00  0.00    -0.143 C  
ENDROOT
BRANCH   4   5
HETATM    5  O   UNL     1      -8.485   6.084  66.936  1.00  0.00    -0.109 OA 
BRANCH   5   6
HETATM    6  C   UNL     1      -9.119   7.171  67.488  1.00  0.00    -0.123 A  
HETATM    7  C   UNL     1     -10.082   7.951  66.841  1.00  0.00    -0.362 A  
HETATM    8  C   UNL     1     -10.499   9.177  67.395  1.00  0.00    -0.339 A  
HETATM    9  C   UNL     1      -9.980   9.619  68.618  1.00  0.00    -0.179 A  
HETATM   10  C   UNL     1      -9.149   8.743  69.337  1.00  0.00    -0.145 A  
HETATM   11  C   UNL     1      -8.723   7.533  68.775  1.00  0.00    -0.128 A  
BRANCH   9  12
HETATM   12  C   UNL     1     -10.091  11.069  69.042  1.00  0.00    -0.180 C  
BRANCH  12  13
HETATM   13  N   UNL     1     -11.274  11.775  68.600  1.00  0.00    -0.234 N  
HETATM   14  H   UNL     1     -12.078  11.264  68.236  1.00  0.00     0.000 HD 
BRANCH  13  15
HETATM   15  C   UNL     1     -11.293  13.145  68.680  1.00  0.00    -0.289 C  
HETATM   16  O   UNL     1     -12.088  13.719  69.428  1.00  0.00    -0.326 OA 
BRANCH  15  17
HETATM   17  N   UNL     1     -10.355  13.842  67.909  1.00  0.00    -0.236 N  
BRANCH  17  18
HETATM   18  C   UNL     1      -9.377  14.642  68.700  1.00  0.00    -0.206 C  
BRANCH  18  19
HETATM   19  C   UNL     1      -9.385  16.151  68.436  1.00  0.00    -0.206 A  
HETATM   20  C   UNL     1      -9.570  18.710  67.348  1.00  0.00    -0.296 A  
HETATM   21  C   UNL     1     -10.518  16.942  68.679  1.00  0.00    -0.352 A  
HETATM   22  C   UNL     1     -10.621  18.210  68.104  1.00  0.00    -0.320 A  
HETATM   23  F   UNL     1      -9.720  19.874  66.694  1.00  0.00    -0.399 F  
HETATM   24  C   UNL     1      -8.381  18.006  67.223  1.00  0.00    -0.234 A  
HETATM   25  C   UNL     1      -8.277  16.734  67.787  1.00  0.00    -0.190 A  
ENDBRANCH  18  19
ENDBRANCH  17  18
BRANCH  17  26
HETATM   26  C   UNL     1     -10.418  14.014  66.410  1.00  0.00    -0.284 C  
HETATM   27  C   UNL     1     -10.133  12.760  65.563  1.00  0.00    -0.278 C  
HETATM   28  C   UNL     1     -11.692  14.715  65.841  1.00  0.00    -0.301 C  
HETATM   29  C   UNL     1     -11.907  12.960  63.218  1.00  0.00    -0.398 C  
HETATM   30  C   UNL     1     -11.375  11.911  65.341  1.00  0.00    -0.277 C  
HETATM   31  N   UNL     1     -12.377  12.633  64.565  1.00  0.00    -0.473 NA 
HETATM   32  C   UNL     1     -12.813  13.807  65.318  1.00  0.00    -0.384 C  
ENDBRANCH  17  26
ENDBRANCH  15  17
ENDBRANCH  13  15
ENDBRANCH  12  13
ENDBRANCH   9  12
ENDBRANCH   5   6
ENDBRANCH   4   5
TORSDOF 9
ENDMDL
MODEL      175
REMARK 921   NORMALIZED FREE ENERGY PREDICTED BY IDOCK:   -5.07 KCAL/MOL
REMARK 922        TOTAL FREE ENERGY PREDICTED BY IDOCK:   -9.21 KCAL/MOL
REMARK 923 INTER-LIGAND FREE ENERGY PREDICTED BY IDOCK:   -7.42 KCAL/MOL
REMARK 924 INTRA-LIGAND FREE ENERGY PREDICTED BY IDOCK:   -1.79 KCAL/MOL
REMARK 927      BINDING AFFINITY PREDICTED BY RF-SCORE:    0.00 PKD
ROOT
HETATM    1  C   UNL     1      -9.711  20.544  67.277  1.00  0.00    -0.600 C  
HETATM    2  C   UNL     1     -10.220  19.119  67.503  1.00  0.00    -0.493 C  
HETATM    3  C   UNL     1     -10.074  18.297  66.224  1.00  0.00    -0.389 C  
HETATM    4  C   UNL     1      -9.547  18.452  68.717  1.00  0.00    -0.321 C  
ENDROOT
BRANCH   4   5
HETATM    5  O   UNL     1      -8.131  18.294  68.556  1.00  0.00    -0.304 OA 
BRANCH   5   6
HETATM    6  C   UNL     1      -7.657  17.029  68.810  1.00  0.00    -0.243 A  
HETATM    7  C   UNL     1      -6.358  16.730  69.233  1.00  0.00    -0.213 A  
HETATM    8  C   UNL     1      -5.897  15.399  69.239  1.00  0.00    -0.104 A  
HETATM    9  C   UNL     1      -6.742  14.352  68.854  1.00  0.00    -0.098 A  
HETATM   10  C   UNL     1      -8.092  14.650  68.603  1.00  0.00    -0.150 A  
HETATM   11  C   UNL     1      -8.542  15.977  68.581  1.00  0.00    -0.206 A  
BRANCH   9  12
HETATM   12  C   UNL     1      -6.188  12.995  68.472  1.00  0.00    -0.078 C  
BRANCH  12  13
HETATM   13  N   UNL     1      -7.162  11.964  68.187  1.00  0.00    -0.078 N  
HETATM   14  H   UNL     1      -7.584  11.889  67.262  1.00  0.00     0.000 HD 
BRANCH  13  15
HETATM   15  C   UNL     1      -7.509  11.090  69.187  1.00  0.00    -0.121 C  
HETATM   16  O   UNL     1      -6.934  11.125  70.278  1.00  0.00    -0.128 OA 
BRANCH  15  17
HETATM   17  N   UNL     1      -8.553  10.196  68.920  1.00  0.00    -0.132 N  
BRANCH  17  18
HETATM   18  C   UNL     1      -9.916  10.747  69.167  1.00  0.00    -0.187 C  
BRANCH  18  19
HETATM   19  C   UNL     1     -10.445  11.712  68.101  1.00  0.00    -0.217 A  
HETATM   20  C   UNL     1     -11.960  13.115  66.229  1.00  0.00    -0.415 A  
HETATM   21  C   UNL     1     -11.008  12.952  68.436  1.00  0.00    -0.285 A  
HETATM   22  C   UNL     1     -11.795  13.636  67.506  1.00  0.00    -0.416 A  
HETATM   23  F   UNL     1     -12.815  13.708  65.379  1.00  0.00    -0.488 F  
HETATM   24  C   UNL     1     -11.287  11.969  65.833  1.00  0.00    -0.391 A  
HETATM   25  C   UNL     1     -10.508  11.277  66.761  1.00  0.00    -0.291 A  
ENDBRANCH  18  19
ENDBRANCH  17  18
BRANCH  17  26
HETATM   26  C   UNL     1      -8.385   8.721  68.642  1.00  0.00    -0.128 C  
HETATM   27  C   UNL     1      -9.520   7.798  69.123  1.00  0.00    -0.151 C  
HETATM   28  C   UNL     1      -8.013   8.325  67.179  1.00  0.00    -0.105 C  
HETATM   29  C   UNL     1      -9.735   5.674  67.092  1.00  0.00    -0.139 C  
HETATM   30  C   UNL     1     -10.646   7.681  68.109  1.00  0.00    -0.130 C  
HETATM   31  N   UNL     1     -10.185   7.050  66.877  1.00  0.00    -0.240 NA 
HETATM   32  C   UNL     1      -9.164   7.893  66.259  1.00  0.00    -0.178 C  
ENDBRANCH  17  26
ENDBRANCH  15  17
ENDBRANCH  13  15
ENDBRANCH  12  13
ENDBRANCH   9  12
ENDBRANCH   5   6
ENDBRANCH   4   5
TORSDOF 9
ENDMDL
MODEL      176
REMARK 921   NORMALIZED FREE ENERGY PREDICTED BY IDOCK:   -5.07 KCAL/MOL
REMARK 922        TOTAL FREE ENERGY PREDICTED BY IDOCK:   -9.20 KCAL/MOL
REMARK 923 INTER-LIGAND FREE ENERGY PREDICTED BY IDOCK:   -6.57 KCAL/MOL
REMARK 924 INTRA-LIGAND FREE ENERGY PREDICTED BY IDOCK:   -2.64 KCAL/MOL
REMARK 927      BINDING AFFINITY PREDICTED BY RF-SCORE:    0.00 PKD
ROOT
HETATM    1  C   UNL     1      -7.012   8.528  72.183  1.00  0.00    -0.096 C  
HETATM    2  C   UNL     1      -8.010   7.708  73.001  1.00  0.00    -0.148 C  
HETATM    3  C   UNL     1      -8.114   8.264  74.420  1.00  0.00    -0.259 C  
HETATM    4  C   UNL     1      -9.380   7.603  72.304  1.00  0.00    -0.151 C  
ENDROOT
BRANCH   4   5
HETATM    5  O   UNL     1     -10.024   8.874  72.141  1.00  0.00    -0.322 OA 
BRANCH   5   6
HETATM    6  C   UNL     1     -10.491   9.129  70.874  1.00  0.00    -0.278 A  
HETATM    7  C   UNL     1     -10.265   8.318  69.759  1.00  0.00    -0.204 A  
HETATM    8  C   UNL     1     -10.579   8.778  68.465  1.00  0.00    -0.171 A  
HETATM    9  C   UNL     1     -11.151  10.041  68.278  1.00  0.00    -0.247 A  
HETATM   10  C   UNL     1     -11.534  10.768  69.418  1.00  0.00    -0.366 A  
HETATM   11  C   UNL     1     -11.204  10.315  70.703  1.00  0.00    -0.406 A  
BRANCH   9  12
HETATM   12  C   UNL     1     -11.135  10.720  66.924  1.00  0.00    -0.133 C  
BRANCH  12  13
HETATM   13  N   UNL     1     -11.034  12.163  66.934  1.00  0.00    -0.256 N  
HETATM   14  H   UNL     1     -11.703  12.727  67.457  1.00  0.00     0.000 HD 
BRANCH  13  15
HETATM   15  C   UNL     1     -10.019  12.758  66.226  1.00  0.00    -0.264 C  
HETATM   16  O   UNL     1      -9.821  12.463  65.045  1.00  0.00    -0.219 OA 
BRANCH  15  17
HETATM   17  N   UNL     1      -9.257  13.725  66.894  1.00  0.00    -0.249 N  
BRANCH  17  18
HETATM   18  C   UNL     1      -8.706  13.278  68.205  1.00  0.00    -0.179 C  
BRANCH  18  19
HETATM   19  C   UNL     1      -7.645  12.175  68.139  1.00  0.00    -0.125 A  
HETATM   20  C   UNL     1      -6.172   9.858  67.658  1.00  0.00    -0.059 A  
HETATM   21  C   UNL     1      -6.642  12.166  67.159  1.00  0.00    -0.127 A  
HETATM   22  C   UNL     1      -5.930  10.994  66.898  1.00  0.00    -0.088 A  
HETATM   23  F   UNL     1      -5.578   8.700  67.327  1.00  0.00    -0.036 F  
HETATM   24  C   UNL     1      -7.051   9.891  68.731  1.00  0.00    -0.067 A  
HETATM   25  C   UNL     1      -7.772  11.058  68.989  1.00  0.00    -0.132 A  
ENDBRANCH  18  19
ENDBRANCH  17  18
BRANCH  17  26
HETATM   26  C   UNL     1      -9.163  15.180  66.502  1.00  0.00    -0.287 C  
HETATM   27  C   UNL     1     -10.490  15.958  66.430  1.00  0.00    -0.311 C  
HETATM   28  C   UNL     1      -8.125  16.047  67.282  1.00  0.00    -0.205 C  
HETATM   29  C   UNL     1      -9.869  18.684  67.362  1.00  0.00    -0.318 C  
HETATM   30  C   UNL     1     -10.906  16.529  67.776  1.00  0.00    -0.304 C  
HETATM   31  N   UNL     1      -9.947  17.522  68.248  1.00  0.00    -0.310 NA 
HETATM   32  C   UNL     1      -8.653  16.877  68.459  1.00  0.00    -0.251 C  
ENDBRANCH  17  26
ENDBRANCH  15  17
ENDBRANCH  13  15
ENDBRANCH  12  13
ENDBRANCH   9  12
ENDBRANCH   5   6
ENDBRANCH   4   5
TORSDOF 9
ENDMDL
MODEL      177
REMARK 921   NORMALIZED FREE ENERGY PREDICTED BY IDOCK:   -5.07 KCAL/MOL
REMARK 922        TOTAL FREE ENERGY PREDICTED BY IDOCK:   -9.20 KCAL/MOL
REMARK 923 INTER-LIGAND FREE ENERGY PREDICTED BY IDOCK:   -7.38 KCAL/MOL
REMARK 924 INTRA-LIGAND FREE ENERGY PREDICTED BY IDOCK:   -1.82 KCAL/MOL
REMARK 927      BINDING AFFINITY PREDICTED BY RF-SCORE:    0.00 PKD
ROOT
HETATM    1  C   UNL     1      -6.263   4.388  71.709  1.00  0.00    -0.018 C  
HETATM    2  C   UNL     1      -6.609   5.860  71.940  1.00  0.00    -0.058 C  
HETATM    3  C   UNL     1      -6.936   6.540  70.613  1.00  0.00    -0.064 C  
HETATM    4  C   UNL     1      -7.726   6.033  72.987  1.00  0.00    -0.102 C  
ENDROOT
BRANCH   4   5
HETATM    5  O   UNL     1      -8.969   5.442  72.582  1.00  0.00    -0.132 OA 
BRANCH   5   6
HETATM    6  C   UNL     1      -9.875   6.319  72.035  1.00  0.00    -0.157 A  
HETATM    7  C   UNL     1     -10.545   6.127  70.823  1.00  0.00    -0.299 A  
HETATM    8  C   UNL     1     -11.270   7.181  70.232  1.00  0.00    -0.309 A  
HETATM    9  C   UNL     1     -11.357   8.427  70.863  1.00  0.00    -0.298 A  
HETATM   10  C   UNL     1     -10.828   8.548  72.160  1.00  0.00    -0.427 A  
HETATM   11  C   UNL     1     -10.094   7.504  72.737  1.00  0.00    -0.293 A  
BRANCH   9  12
HETATM   12  C   UNL     1     -11.772   9.668  70.101  1.00  0.00    -0.089 C  
BRANCH  12  13
HETATM   13  N   UNL     1     -10.803  10.741  70.052  1.00  0.00    -0.457 N  
HETATM   14  H   UNL     1     -10.965  11.611  70.561  1.00  0.00     0.000 HD 
BRANCH  13  15
HETATM   15  C   UNL     1      -9.662  10.568  69.309  1.00  0.00    -0.196 C  
HETATM   16  O   UNL     1      -8.790   9.776  69.674  1.00  0.00    -0.178 OA 
BRANCH  15  17
HETATM   17  N   UNL     1      -9.560  11.297  68.118  1.00  0.00    -0.180 N  
BRANCH  17  18
HETATM   18  C   UNL     1      -9.749  12.767  68.276  1.00  0.00    -0.216 C  
BRANCH  18  19
HETATM   19  C   UNL     1     -10.551  13.457  67.169  1.00  0.00    -0.259 A  
HETATM   20  C   UNL     1     -11.878  14.159  64.820  1.00  0.00    -0.417 A  
HETATM   21  C   UNL     1     -11.948  13.354  67.089  1.00  0.00    -0.415 A  
HETATM   22  C   UNL     1     -12.605  13.674  65.899  1.00  0.00    -0.478 A  
HETATM   23  F   UNL     1     -12.491  14.348  63.640  1.00  0.00    -0.466 F  
HETATM   24  C   UNL     1     -10.518  14.411  64.931  1.00  0.00    -0.448 A  
HETATM   25  C   UNL     1      -9.855  14.083  66.114  1.00  0.00    -0.319 A  
ENDBRANCH  18  19
ENDBRANCH  17  18
BRANCH  17  26
HETATM   26  C   UNL     1      -9.509  10.697  66.733  1.00  0.00    -0.162 C  
HETATM   27  C   UNL     1      -8.110  10.488  66.126  1.00  0.00    -0.145 C  
HETATM   28  C   UNL     1     -10.345   9.399  66.504  1.00  0.00    -0.268 C  
HETATM   29  C   UNL     1      -8.286   8.003  64.552  1.00  0.00    -0.094 C  
HETATM   30  C   UNL     1      -7.490   9.161  66.531  1.00  0.00    -0.093 C  
HETATM   31  N   UNL     1      -8.263   8.037  66.015  1.00  0.00    -0.113 NA 
HETATM   32  C   UNL     1      -9.599   8.062  66.606  1.00  0.00    -0.230 C  
ENDBRANCH  17  26
ENDBRANCH  15  17
ENDBRANCH  13  15
ENDBRANCH  12  13
ENDBRANCH   9  12
ENDBRANCH   5   6
ENDBRANCH   4   5
TORSDOF 9
ENDMDL
MODEL      178
REMARK 921   NORMALIZED FREE ENERGY PREDICTED BY IDOCK:   -5.05 KCAL/MOL
REMARK 922        TOTAL FREE ENERGY PREDICTED BY IDOCK:   -9.18 KCAL/MOL
REMARK 923 INTER-LIGAND FREE ENERGY PREDICTED BY IDOCK:   -7.75 KCAL/MOL
REMARK 924 INTRA-LIGAND FREE ENERGY PREDICTED BY IDOCK:   -1.43 KCAL/MOL
REMARK 927      BINDING AFFINITY PREDICTED BY RF-SCORE:    0.00 PKD
ROOT
HETATM    1  C   UNL     1      -9.630   6.555  74.519  1.00  0.00    -0.305 C  
HETATM    2  C   UNL     1     -10.177   7.414  73.377  1.00  0.00    -0.402 C  
HETATM    3  C   UNL     1      -9.028   8.009  72.567  1.00  0.00    -0.256 C  
HETATM    4  C   UNL     1     -11.181   6.639  72.503  1.00  0.00    -0.266 C  
ENDROOT
BRANCH   4   5
HETATM    5  O   UNL     1     -10.592   5.512  71.839  1.00  0.00    -0.222 OA 
BRANCH   5   6
HETATM    6  C   UNL     1     -10.355   5.690  70.497  1.00  0.00    -0.258 A  
HETATM    7  C   UNL     1      -9.168   5.349  69.842  1.00  0.00    -0.174 A  
HETATM    8  C   UNL     1      -8.930   5.783  68.523  1.00  0.00    -0.112 A  
HETATM    9  C   UNL     1      -9.890   6.535  67.836  1.00  0.00    -0.134 A  
HETATM   10  C   UNL     1     -11.144   6.717  68.444  1.00  0.00    -0.281 A  
HETATM   11  C   UNL     1     -11.371   6.299  69.762  1.00  0.00    -0.506 A  
BRANCH   9  12
HETATM   12  C   UNL     1      -9.528   7.339  66.606  1.00  0.00    -0.177 C  
BRANCH  12  13
HETATM   13  N   UNL     1     -10.350   8.497  66.334  1.00  0.00    -0.375 N  
HETATM   14  H   UNL     1     -11.344   8.392  66.128  1.00  0.00     0.000 HD 
BRANCH  13  15
HETATM   15  C   UNL     1      -9.768   9.740  66.357  1.00  0.00    -0.216 C  
HETATM   16  O   UNL     1      -9.236  10.164  67.386  1.00  0.00    -0.140 OA 
BRANCH  15  17
HETATM   17  N   UNL     1      -9.781  10.473  65.164  1.00  0.00    -0.257 N  
BRANCH  17  18
HETATM   18  C   UNL     1     -11.089  11.111  64.845  1.00  0.00    -0.047 C  
BRANCH  18  19
HETATM   19  C   UNL     1     -11.234  12.576  65.269  1.00  0.00    -0.341 A  
HETATM   20  C   UNL     1     -11.033  15.080  66.478  1.00  0.00    -0.327 A  
HETATM   21  C   UNL     1     -10.513  13.605  64.646  1.00  0.00    -0.442 A  
HETATM   22  C   UNL     1     -10.386  14.847  65.272  1.00  0.00    -0.424 A  
HETATM   23  F   UNL     1     -10.811  16.228  67.137  1.00  0.00    -0.318 F  
HETATM   24  C   UNL     1     -11.875  14.126  67.032  1.00  0.00    -0.458 A  
HETATM   25  C   UNL     1     -11.996  12.880  66.416  1.00  0.00    -0.462 A  
ENDBRANCH  18  19
ENDBRANCH  17  18
BRANCH  17  26
HETATM   26  C   UNL     1      -8.685  10.460  64.125  1.00  0.00    -0.197 C  
HETATM   27  C   UNL     1      -7.247  10.278  64.645  1.00  0.00    -0.082 C  
HETATM   28  C   UNL     1      -8.893   9.509  62.905  1.00  0.00    -0.242 C  
HETATM   29  C   UNL     1      -5.859   8.666  62.606  1.00  0.00    -0.083 C  
HETATM   30  C   UNL     1      -6.867   8.815  64.809  1.00  0.00    -0.073 C  
HETATM   31  N   UNL     1      -6.861   8.123  63.525  1.00  0.00    -0.075 NA 
HETATM   32  C   UNL     1      -8.212   8.135  62.967  1.00  0.00    -0.103 C  
ENDBRANCH  17  26
ENDBRANCH  15  17
ENDBRANCH  13  15
ENDBRANCH  12  13
ENDBRANCH   9  12
ENDBRANCH   5   6
ENDBRANCH   4   5
TORSDOF 9
ENDMDL
MODEL      179
REMARK 921   NORMALIZED FREE ENERGY PREDICTED BY IDOCK:   -5.05 KCAL/MOL
REMARK 922        TOTAL FREE ENERGY PREDICTED BY IDOCK:   -9.18 KCAL/MOL
REMARK 923 INTER-LIGAND FREE ENERGY PREDICTED BY IDOCK:   -7.51 KCAL/MOL
REMARK 924 INTRA-LIGAND FREE ENERGY PREDICTED BY IDOCK:   -1.67 KCAL/MOL
REMARK 927      BINDING AFFINITY PREDICTED BY RF-SCORE:    0.00 PKD
ROOT
HETATM    1  C   UNL     1     -13.617  16.068  72.993  1.00  0.00    -0.530 C  
HETATM    2  C   UNL     1     -12.621  14.967  72.627  1.00  0.00    -0.456 C  
HETATM    3  C   UNL     1     -13.362  13.727  72.131  1.00  0.00    -0.569 C  
HETATM    4  C   UNL     1     -11.556  15.460  71.629  1.00  0.00    -0.423 C  
ENDROOT
BRANCH   4   5
HETATM    5  O   UNL     1     -12.113  15.859  70.368  1.00  0.00    -0.361 OA 
BRANCH   5   6
HETATM    6  C   UNL     1     -11.564  15.240  69.271  1.00  0.00    -0.332 A  
HETATM    7  C   UNL     1     -12.283  14.803  68.154  1.00  0.00    -0.047 A  
HETATM    8  C   UNL     1     -11.674  13.973  67.192  1.00  0.00    -0.421 A  
HETATM    9  C   UNL     1     -10.332  13.598  67.322  1.00  0.00    -0.249 A  
HETATM   10  C   UNL     1      -9.579  14.187  68.352  1.00  0.00    -0.225 A  
HETATM   11  C   UNL     1     -10.192  14.998  69.317  1.00  0.00    -0.244 A  
BRANCH   9  12
HETATM   12  C   UNL     1      -9.766  12.421  66.555  1.00  0.00    -0.240 C  
BRANCH  12  13
HETATM   13  N   UNL     1     -10.500  11.179  66.660  1.00  0.00    -0.241 N  
HETATM   14  H   UNL     1     -11.318  11.008  66.076  1.00  0.00     0.000 HD 
BRANCH  13  15
HETATM   15  C   UNL     1     -10.073  10.234  67.560  1.00  0.00    -0.198 C  
HETATM   16  O   UNL     1     -10.053  10.482  68.768  1.00  0.00    -0.173 OA 
BRANCH  15  17
HETATM   17  N   UNL     1      -9.702   8.985  67.046  1.00  0.00    -0.174 N  
BRANCH  17  18
HETATM   18  C   UNL     1     -10.672   7.889  67.327  1.00  0.00    -0.229 C  
BRANCH  18  19
HETATM   19  C   UNL     1     -10.252   6.893  68.413  1.00  0.00    -0.191 A  
HETATM   20  C   UNL     1     -10.134   4.942  70.401  1.00  0.00    -0.245 A  
HETATM   21  C   UNL     1      -9.820   5.595  68.104  1.00  0.00    -0.170 A  
HETATM   22  C   UNL     1      -9.795   4.612  69.095  1.00  0.00    -0.242 A  
HETATM   23  F   UNL     1     -10.229   3.973  71.325  1.00  0.00    -0.248 F  
HETATM   24  C   UNL     1     -10.417   6.253  70.755  1.00  0.00    -0.273 A  
HETATM   25  C   UNL     1     -10.453   7.237  69.766  1.00  0.00    -0.236 A  
ENDBRANCH  18  19
ENDBRANCH  17  18
BRANCH  17  26
HETATM   26  C   UNL     1      -8.347   8.651  66.467  1.00  0.00    -0.108 C  
HETATM   27  C   UNL     1      -8.270   8.515  64.935  1.00  0.00    -0.166 C  
HETATM   28  C   UNL     1      -7.149   9.530  66.945  1.00  0.00    -0.086 C  
HETATM   29  C   UNL     1      -5.631   9.580  64.171  1.00  0.00    -0.072 C  
HETATM   30  C   UNL     1      -8.042   9.848  64.241  1.00  0.00    -0.152 C  
HETATM   31  N   UNL     1      -6.750  10.418  64.604  1.00  0.00    -0.074 NA 
HETATM   32  C   UNL     1      -6.733  10.696  66.038  1.00  0.00    -0.128 C  
ENDBRANCH  17  26
ENDBRANCH  15  17
ENDBRANCH  13  15
ENDBRANCH  12  13
ENDBRANCH   9  12
ENDBRANCH   5   6
ENDBRANCH   4   5
TORSDOF 9
ENDMDL
MODEL      180
REMARK 921   NORMALIZED FREE ENERGY PREDICTED BY IDOCK:   -5.04 KCAL/MOL
REMARK 922        TOTAL FREE ENERGY PREDICTED BY IDOCK:   -9.17 KCAL/MOL
REMARK 923 INTER-LIGAND FREE ENERGY PREDICTED BY IDOCK:   -7.77 KCAL/MOL
REMARK 924 INTRA-LIGAND FREE ENERGY PREDICTED BY IDOCK:   -1.40 KCAL/MOL
REMARK 927      BINDING AFFINITY PREDICTED BY RF-SCORE:    0.00 PKD
ROOT
HETATM    1  C   UNL     1      -9.315  18.391  68.198  1.00  0.00    -0.331 C  
HETATM    2  C   UNL     1      -9.806  18.979  66.874  1.00  0.00    -0.385 C  
HETATM    3  C   UNL     1      -8.651  19.646  66.132  1.00  0.00    -0.357 C  
HETATM    4  C   UNL     1     -10.539  17.932  66.015  1.00  0.00    -0.234 C  
ENDROOT
BRANCH   4   5
HETATM    5  O   UNL     1      -9.694  16.842  65.619  1.00  0.00    -0.539 OA 
BRANCH   5   6
HETATM    6  C   UNL     1     -10.075  15.611  66.097  1.00  0.00    -0.313 A  
HETATM    7  C   UNL     1     -11.333  15.031  65.904  1.00  0.00    -0.273 A  
HETATM    8  C   UNL     1     -11.708  13.881  66.626  1.00  0.00    -0.417 A  
HETATM    9  C   UNL     1     -10.817  13.282  67.524  1.00  0.00    -0.276 A  
HETATM   10  C   UNL     1      -9.501  13.772  67.574  1.00  0.00    -0.220 A  
HETATM   11  C   UNL     1      -9.137  14.926  66.868  1.00  0.00    -0.271 A  
BRANCH   9  12
HETATM   12  C   UNL     1     -11.300  12.315  68.585  1.00  0.00    -0.291 C  
BRANCH  12  13
HETATM   13  N   UNL     1     -10.316  11.390  69.103  1.00  0.00    -0.390 N  
HETATM   14  H   UNL     1      -9.637  11.691  69.802  1.00  0.00     0.000 HD 
BRANCH  13  15
HETATM   15  C   UNL     1     -10.312  10.100  68.633  1.00  0.00    -0.188 C  
HETATM   16  O   UNL     1     -11.158   9.727  67.817  1.00  0.00    -0.245 OA 
BRANCH  15  17
HETATM   17  N   UNL     1      -9.295   9.256  69.096  1.00  0.00    -0.154 N  
BRANCH  17  18
HETATM   18  C   UNL     1      -8.064   9.256  68.256  1.00  0.00    -0.107 C  
BRANCH  18  19
HETATM   19  C   UNL     1      -7.848   8.009  67.393  1.00  0.00    -0.117 A  
HETATM   20  C   UNL     1      -7.725   5.431  66.340  1.00  0.00    -0.099 A  
HETATM   21  C   UNL     1      -8.793   7.587  66.447  1.00  0.00    -0.178 A  
HETATM   22  C   UNL     1      -8.748   6.284  65.947  1.00  0.00    -0.154 A  
HETATM   23  F   UNL     1      -7.752   4.144  65.957  1.00  0.00    -0.085 F  
HETATM   24  C   UNL     1      -6.696   5.879  67.156  1.00  0.00    -0.061 A  
HETATM   25  C   UNL     1      -6.742   7.177  67.666  1.00  0.00    -0.064 A  
ENDBRANCH  18  19
ENDBRANCH  17  18
BRANCH  17  26
HETATM   26  C   UNL     1      -9.450   8.228  70.192  1.00  0.00    -0.167 C  
HETATM   27  C   UNL     1     -10.275   8.654  71.420  1.00  0.00    -0.324 C  
HETATM   28  C   UNL     1      -9.917   6.805  69.752  1.00  0.00    -0.189 C  
HETATM   29  C   UNL     1     -11.716   6.235  72.290  1.00  0.00    -0.298 C  
HETATM   30  C   UNL     1     -11.765   8.419  71.232  1.00  0.00    -0.285 C  
HETATM   31  N   UNL     1     -12.063   6.998  71.090  1.00  0.00    -0.352 NA 
HETATM   32  C   UNL     1     -11.413   6.490  69.884  1.00  0.00    -0.403 C  
ENDBRANCH  17  26
ENDBRANCH  15  17
ENDBRANCH  13  15
ENDBRANCH  12  13
ENDBRANCH   9  12
ENDBRANCH   5   6
ENDBRANCH   4   5
TORSDOF 9
ENDMDL
MODEL      181
REMARK 921   NORMALIZED FREE ENERGY PREDICTED BY IDOCK:   -5.03 KCAL/MOL
REMARK 922        TOTAL FREE ENERGY PREDICTED BY IDOCK:   -9.14 KCAL/MOL
REMARK 923 INTER-LIGAND FREE ENERGY PREDICTED BY IDOCK:   -8.07 KCAL/MOL
REMARK 924 INTRA-LIGAND FREE ENERGY PREDICTED BY IDOCK:   -1.07 KCAL/MOL
REMARK 927      BINDING AFFINITY PREDICTED BY RF-SCORE:    0.00 PKD
ROOT
HETATM    1  C   UNL     1      -9.683   3.397  70.650  1.00  0.00    -0.176 C  
HETATM    2  C   UNL     1      -9.636   3.457  72.178  1.00  0.00    -0.206 C  
HETATM    3  C   UNL     1      -8.226   3.149  72.675  1.00  0.00    -0.075 C  
HETATM    4  C   UNL     1     -10.178   4.793  72.720  1.00  0.00    -0.182 C  
ENDROOT
BRANCH   4   5
HETATM    5  O   UNL     1      -9.399   5.924  72.303  1.00  0.00    -0.145 OA 
BRANCH   5   6
HETATM    6  C   UNL     1     -10.095   7.105  72.213  1.00  0.00    -0.181 A  
HETATM    7  C   UNL     1     -11.359   7.335  72.765  1.00  0.00    -0.318 A  
HETATM    8  C   UNL     1     -12.090   8.489  72.422  1.00  0.00    -0.436 A  
HETATM    9  C   UNL     1     -11.550   9.440  71.548  1.00  0.00    -0.467 A  
HETATM   10  C   UNL     1     -10.213   9.281  71.143  1.00  0.00    -0.387 A  
HETATM   11  C   UNL     1      -9.496   8.123  71.472  1.00  0.00    -0.222 A  
BRANCH   9  12
HETATM   12  C   UNL     1     -12.429  10.461  70.856  1.00  0.00    -0.381 C  
BRANCH  12  13
HETATM   13  N   UNL     1     -12.277  10.568  69.422  1.00  0.00    -0.547 N  
HETATM   14  H   UNL     1     -12.636   9.839  68.806  1.00  0.00     0.000 HD 
BRANCH  13  15
HETATM   15  C   UNL     1     -11.640  11.669  68.906  1.00  0.00    -0.314 C  
HETATM   16  O   UNL     1     -11.172  12.531  69.654  1.00  0.00    -0.154 OA 
BRANCH  15  17
HETATM   17  N   UNL     1     -11.521  11.743  67.513  1.00  0.00    -0.305 N  
BRANCH  17  18
HETATM   18  C   UNL     1     -12.060  12.997  66.914  1.00  0.00    -0.285 C  
BRANCH  18  19
HETATM   19  C   UNL     1     -11.013  14.030  66.482  1.00  0.00    -0.306 A  
HETATM   20  C   UNL     1      -9.507  16.328  66.016  1.00  0.00    -0.334 A  
HETATM   21  C   UNL     1      -9.866  14.289  67.246  1.00  0.00    -0.244 A  
HETATM   22  C   UNL     1      -9.133  15.458  67.032  1.00  0.00    -0.247 A  
HETATM   23  F   UNL     1      -8.879  17.509  65.892  1.00  0.00    -0.222 F  
HETATM   24  C   UNL     1     -10.546  16.014  65.153  1.00  0.00    -0.394 A  
HETATM   25  C   UNL     1     -11.287  14.851  65.369  1.00  0.00    -0.346 A  
ENDBRANCH  18  19
ENDBRANCH  17  18
BRANCH  17  26
HETATM   26  C   UNL     1     -11.123  10.598  66.612  1.00  0.00     0.019 C  
HETATM   27  C   UNL     1     -10.388  10.971  65.312  1.00  0.00    -0.338 C  
HETATM   28  C   UNL     1     -10.363   9.413  67.286  1.00  0.00    -0.325 C  
HETATM   29  C   UNL     1      -8.433   8.814  64.854  1.00  0.00    -0.171 C  
HETATM   30  C   UNL     1      -8.887  11.107  65.508  1.00  0.00    -0.136 C  
HETATM   31  N   UNL     1      -8.287   9.834  65.893  1.00  0.00    -0.122 NA 
HETATM   32  C   UNL     1      -8.832   9.417  67.183  1.00  0.00    -0.127 C  
ENDBRANCH  17  26
ENDBRANCH  15  17
ENDBRANCH  13  15
ENDBRANCH  12  13
ENDBRANCH   9  12
ENDBRANCH   5   6
ENDBRANCH   4   5
TORSDOF 9
ENDMDL
MODEL      182
REMARK 921   NORMALIZED FREE ENERGY PREDICTED BY IDOCK:   -5.03 KCAL/MOL
REMARK 922        TOTAL FREE ENERGY PREDICTED BY IDOCK:   -9.14 KCAL/MOL
REMARK 923 INTER-LIGAND FREE ENERGY PREDICTED BY IDOCK:   -7.05 KCAL/MOL
REMARK 924 INTRA-LIGAND FREE ENERGY PREDICTED BY IDOCK:   -2.09 KCAL/MOL
REMARK 927      BINDING AFFINITY PREDICTED BY RF-SCORE:    0.00 PKD
ROOT
HETATM    1  C   UNL     1      -7.330   2.815  67.565  1.00  0.00    -0.057 C  
HETATM    2  C   UNL     1      -8.859   2.838  67.573  1.00  0.00    -0.164 C  
HETATM    3  C   UNL     1      -9.385   2.489  68.964  1.00  0.00    -0.209 C  
HETATM    4  C   UNL     1      -9.419   4.172  67.045  1.00  0.00    -0.192 C  
ENDROOT
BRANCH   4   5
HETATM    5  O   UNL     1      -9.050   5.296  67.857  1.00  0.00    -0.109 OA 
BRANCH   5   6
HETATM    6  C   UNL     1      -8.395   6.302  67.190  1.00  0.00    -0.109 A  
HETATM    7  C   UNL     1      -7.068   6.683  67.415  1.00  0.00    -0.080 A  
HETATM    8  C   UNL     1      -6.561   7.872  66.855  1.00  0.00    -0.059 A  
HETATM    9  C   UNL     1      -7.365   8.674  66.038  1.00  0.00    -0.085 A  
HETATM   10  C   UNL     1      -8.635   8.188  65.680  1.00  0.00    -0.181 A  
HETATM   11  C   UNL     1      -9.142   7.014  66.253  1.00  0.00    -0.178 A  
BRANCH   9  12
HETATM   12  C   UNL     1      -7.004  10.116  65.751  1.00  0.00    -0.123 C  
BRANCH  12  13
HETATM   13  N   UNL     1      -8.112  11.025  65.553  1.00  0.00    -0.359 N  
HETATM   14  H   UNL     1      -8.517  11.157  64.627  1.00  0.00     0.000 HD 
BRANCH  13  15
HETATM   15  C   UNL     1      -8.607  11.708  66.637  1.00  0.00    -0.179 C  
HETATM   16  O   UNL     1      -8.193  12.837  66.910  1.00  0.00    -0.135 OA 
BRANCH  15  17
HETATM   17  N   UNL     1      -9.612  11.079  67.382  1.00  0.00    -0.163 N  
BRANCH  17  18
HETATM   18  C   UNL     1     -10.831  10.728  66.600  1.00  0.00    -0.164 C  
BRANCH  18  19
HETATM   19  C   UNL     1     -11.521  11.895  65.886  1.00  0.00    -0.340 A  
HETATM   20  C   UNL     1     -12.185  14.306  64.654  1.00  0.00    -0.454 A  
HETATM   21  C   UNL     1     -11.577  11.981  64.487  1.00  0.00    -0.387 A  
HETATM   22  C   UNL     1     -11.877  13.200  63.874  1.00  0.00    -0.533 A  
HETATM   23  F   UNL     1     -12.351  15.503  64.069  1.00  0.00    -0.469 F  
HETATM   24  C   UNL     1     -12.283  14.201  66.034  1.00  0.00    -0.464 A  
HETATM   25  C   UNL     1     -11.975  12.988  66.652  1.00  0.00    -0.453 A  
ENDBRANCH  18  19
ENDBRANCH  17  18
BRANCH  17  26
HETATM   26  C   UNL     1      -9.631  10.957  68.887  1.00  0.00    -0.181 C  
HETATM   27  C   UNL     1     -10.850  10.245  69.503  1.00  0.00    -0.292 C  
HETATM   28  C   UNL     1      -8.339  10.394  69.558  1.00  0.00    -0.126 C  
HETATM   29  C   UNL     1      -9.814   8.761  71.829  1.00  0.00    -0.321 C  
HETATM   30  C   UNL     1     -10.676   8.736  69.560  1.00  0.00    -0.188 C  
HETATM   31  N   UNL     1      -9.575   8.363  70.441  1.00  0.00    -0.167 NA 
HETATM   32  C   UNL     1      -8.327   8.899  69.902  1.00  0.00    -0.128 C  
ENDBRANCH  17  26
ENDBRANCH  15  17
ENDBRANCH  13  15
ENDBRANCH  12  13
ENDBRANCH   9  12
ENDBRANCH   5   6
ENDBRANCH   4   5
TORSDOF 9
ENDMDL
MODEL      183
REMARK 921   NORMALIZED FREE ENERGY PREDICTED BY IDOCK:   -5.02 KCAL/MOL
REMARK 922        TOTAL FREE ENERGY PREDICTED BY IDOCK:   -9.13 KCAL/MOL
REMARK 923 INTER-LIGAND FREE ENERGY PREDICTED BY IDOCK:   -6.83 KCAL/MOL
REMARK 924 INTRA-LIGAND FREE ENERGY PREDICTED BY IDOCK:   -2.31 KCAL/MOL
REMARK 927      BINDING AFFINITY PREDICTED BY RF-SCORE:    0.00 PKD
ROOT
HETATM    1  C   UNL     1     -11.423   9.492  70.569  1.00  0.00    -0.337 C  
HETATM    2  C   UNL     1     -11.444   8.653  71.848  1.00  0.00    -0.419 C  
HETATM    3  C   UNL     1     -12.833   8.690  72.481  1.00  0.00    -0.352 C  
HETATM    4  C   UNL     1     -10.941   7.218  71.604  1.00  0.00    -0.226 C  
ENDROOT
BRANCH   4   5
HETATM    5  O   UNL     1     -11.769   6.482  70.692  1.00  0.00    -0.373 OA 
BRANCH   5   6
HETATM    6  C   UNL     1     -11.144   6.088  69.533  1.00  0.00    -0.398 A  
HETATM    7  C   UNL     1     -10.144   5.114  69.453  1.00  0.00    -0.305 A  
HETATM    8  C   UNL     1      -9.402   4.947  68.267  1.00  0.00    -0.168 A  
HETATM    9  C   UNL     1      -9.675   5.732  67.140  1.00  0.00    -0.147 A  
HETATM   10  C   UNL     1     -10.795   6.579  67.181  1.00  0.00    -0.472 A  
HETATM   11  C   UNL     1     -11.520   6.755  68.368  1.00  0.00     0.127 A  
BRANCH   9  12
HETATM   12  C   UNL     1      -8.672   5.864  66.012  1.00  0.00    -0.148 C  
BRANCH  12  13
HETATM   13  N   UNL     1      -8.671   7.125  65.304  1.00  0.00    -0.357 N  
HETATM   14  H   UNL     1      -9.538   7.514  64.934  1.00  0.00     0.000 HD 
BRANCH  13  15
HETATM   15  C   UNL     1      -7.480   7.787  65.138  1.00  0.00    -0.083 C  
HETATM   16  O   UNL     1      -6.582   7.300  64.447  1.00  0.00    -0.039 OA 
BRANCH  15  17
HETATM   17  N   UNL     1      -7.354   9.039  65.755  1.00  0.00    -0.089 N  
BRANCH  17  18
HETATM   18  C   UNL     1      -7.681  10.196  64.874  1.00  0.00    -0.143 C  
BRANCH  18  19
HETATM   19  C   UNL     1      -9.165  10.565  64.786  1.00  0.00    -0.266 A  
HETATM   20  C   UNL     1     -11.639  11.849  64.717  1.00  0.00    -0.236 A  
HETATM   21  C   UNL     1      -9.798  10.813  63.559  1.00  0.00    -0.401 A  
HETATM   22  C   UNL     1     -11.021  11.487  63.527  1.00  0.00    -0.453 A  
HETATM   23  F   UNL     1     -12.749  12.603  64.683  1.00  0.00    -0.500 F  
HETATM   24  C   UNL     1     -11.103  11.477  65.941  1.00  0.00    -0.274 A  
HETATM   25  C   UNL     1      -9.876  10.813  65.979  1.00  0.00    -0.285 A  
ENDBRANCH  18  19
ENDBRANCH  17  18
BRANCH  17  26
HETATM   26  C   UNL     1      -6.717   9.283  67.102  1.00  0.00    -0.076 C  
HETATM   27  C   UNL     1      -7.654   9.755  68.229  1.00  0.00    -0.081 C  
HETATM   28  C   UNL     1      -5.808   8.144  67.660  1.00  0.00    -0.042 C  
HETATM   29  C   UNL     1      -6.634   8.500  70.692  1.00  0.00    -0.039 C  
HETATM   30  C   UNL     1      -8.324   8.599  68.953  1.00  0.00    -0.124 C  
HETATM   31  N   UNL     1      -7.344   7.767  69.643  1.00  0.00    -0.085 NA 
HETATM   32  C   UNL     1      -6.445   7.168  68.658  1.00  0.00    -0.036 C  
ENDBRANCH  17  26
ENDBRANCH  15  17
ENDBRANCH  13  15
ENDBRANCH  12  13
ENDBRANCH   9  12
ENDBRANCH   5   6
ENDBRANCH   4   5
TORSDOF 9
ENDMDL
MODEL      184
REMARK 921   NORMALIZED FREE ENERGY PREDICTED BY IDOCK:   -5.02 KCAL/MOL
REMARK 922        TOTAL FREE ENERGY PREDICTED BY IDOCK:   -9.13 KCAL/MOL
REMARK 923 INTER-LIGAND FREE ENERGY PREDICTED BY IDOCK:   -7.45 KCAL/MOL
REMARK 924 INTRA-LIGAND FREE ENERGY PREDICTED BY IDOCK:   -1.68 KCAL/MOL
REMARK 927      BINDING AFFINITY PREDICTED BY RF-SCORE:    0.00 PKD
ROOT
HETATM    1  C   UNL     1     -13.397  15.929  73.433  1.00  0.00    -0.609 C  
HETATM    2  C   UNL     1     -13.130  15.921  71.927  1.00  0.00    -0.394 C  
HETATM    3  C   UNL     1     -11.629  15.979  71.656  1.00  0.00    -0.538 C  
HETATM    4  C   UNL     1     -13.814  14.731  71.227  1.00  0.00    -0.390 C  
ENDROOT
BRANCH   4   5
HETATM    5  O   UNL     1     -13.322  13.460  71.674  1.00  0.00    -0.374 OA 
BRANCH   5   6
HETATM    6  C   UNL     1     -12.547  12.785  70.762  1.00  0.00    -0.225 A  
HETATM    7  C   UNL     1     -11.975  13.354  69.620  1.00  0.00    -0.386 A  
HETATM    8  C   UNL     1     -11.401  12.537  68.626  1.00  0.00    -0.329 A  
HETATM    9  C   UNL     1     -11.364  11.147  68.780  1.00  0.00    -0.342 A  
HETATM   10  C   UNL     1     -11.783  10.608  70.009  1.00  0.00    -0.405 A  
HETATM   11  C   UNL     1     -12.370  11.420  70.987  1.00  0.00    -0.448 A  
BRANCH   9  12
HETATM   12  C   UNL     1     -11.129  10.230  67.598  1.00  0.00    -0.251 C  
BRANCH  12  13
HETATM   13  N   UNL     1     -11.254   8.812  67.854  1.00  0.00    -0.231 N  
HETATM   14  H   UNL     1     -12.167   8.397  68.041  1.00  0.00     0.000 HD 
BRANCH  13  15
HETATM   15  C   UNL     1     -10.122   8.036  67.841  1.00  0.00    -0.194 C  
HETATM   16  O   UNL     1      -9.774   7.451  66.812  1.00  0.00    -0.185 OA 
BRANCH  15  17
HETATM   17  N   UNL     1      -9.378   7.973  69.025  1.00  0.00    -0.148 N  
BRANCH  17  18
HETATM   18  C   UNL     1      -7.921   8.239  68.854  1.00  0.00    -0.113 C  
BRANCH  18  19
HETATM   19  C   UNL     1      -7.559   9.622  68.302  1.00  0.00    -0.078 A  
HETATM   20  C   UNL     1      -7.555  12.197  67.235  1.00  0.00    -0.156 A  
HETATM   21  C   UNL     1      -7.379  10.733  69.139  1.00  0.00    -0.115 A  
HETATM   22  C   UNL     1      -7.412  12.023  68.605  1.00  0.00    -0.113 A  
HETATM   23  F   UNL     1      -7.710  13.435  66.738  1.00  0.00    -0.035 F  
HETATM   24  C   UNL     1      -7.581  11.108  66.375  1.00  0.00    -0.109 A  
HETATM   25  C   UNL     1      -7.560   9.817  66.905  1.00  0.00    -0.095 A  
ENDBRANCH  18  19
ENDBRANCH  17  18
BRANCH  17  26
HETATM   26  C   UNL     1      -9.889   7.449  70.346  1.00  0.00    -0.183 C  
HETATM   27  C   UNL     1      -9.389   6.057  70.773  1.00  0.00    -0.169 C  
HETATM   28  C   UNL     1      -9.773   8.412  71.570  1.00  0.00    -0.276 C  
HETATM   29  C   UNL     1      -9.102   6.176  73.703  1.00  0.00    -0.127 C  
HETATM   30  C   UNL     1      -8.062   6.114  71.511  1.00  0.00    -0.114 C  
HETATM   31  N   UNL     1      -8.188   6.838  72.771  1.00  0.00    -0.110 NA 
HETATM   32  C   UNL     1      -8.562   8.223  72.493  1.00  0.00    -0.208 C  
ENDBRANCH  17  26
ENDBRANCH  15  17
ENDBRANCH  13  15
ENDBRANCH  12  13
ENDBRANCH   9  12
ENDBRANCH   5   6
ENDBRANCH   4   5
TORSDOF 9
ENDMDL
MODEL      185
REMARK 921   NORMALIZED FREE ENERGY PREDICTED BY IDOCK:   -5.01 KCAL/MOL
REMARK 922        TOTAL FREE ENERGY PREDICTED BY IDOCK:   -9.12 KCAL/MOL
REMARK 923 INTER-LIGAND FREE ENERGY PREDICTED BY IDOCK:   -6.53 KCAL/MOL
REMARK 924 INTRA-LIGAND FREE ENERGY PREDICTED BY IDOCK:   -2.59 KCAL/MOL
REMARK 927      BINDING AFFINITY PREDICTED BY RF-SCORE:    0.00 PKD
ROOT
HETATM    1  C   UNL     1     -12.563   9.592  72.152  1.00  0.00    -0.411 C  
HETATM    2  C   UNL     1     -13.062   8.177  72.452  1.00  0.00    -0.134 C  
HETATM    3  C   UNL     1     -14.405   7.935  71.766  1.00  0.00    -0.589 C  
HETATM    4  C   UNL     1     -12.012   7.108  72.096  1.00  0.00    -0.266 C  
ENDROOT
BRANCH   4   5
HETATM    5  O   UNL     1     -11.697   7.077  70.696  1.00  0.00    -0.324 OA 
BRANCH   5   6
HETATM    6  C   UNL     1     -10.543   7.736  70.348  1.00  0.00    -0.227 A  
HETATM    7  C   UNL     1      -9.359   7.727  71.093  1.00  0.00    -0.164 A  
HETATM    8  C   UNL     1      -8.313   8.617  70.782  1.00  0.00    -0.172 A  
HETATM    9  C   UNL     1      -8.428   9.503  69.704  1.00  0.00    -0.174 A  
HETATM   10  C   UNL     1      -9.546   9.377  68.862  1.00  0.00    -0.155 A  
HETATM   11  C   UNL     1     -10.593   8.503  69.185  1.00  0.00    -0.188 A  
BRANCH   9  12
HETATM   12  C   UNL     1      -7.528  10.715  69.582  1.00  0.00    -0.115 C  
BRANCH  12  13
HETATM   13  N   UNL     1      -8.048  11.822  68.810  1.00  0.00    -0.313 N  
HETATM   14  H   UNL     1      -8.740  12.455  69.211  1.00  0.00     0.000 HD 
BRANCH  13  15
HETATM   15  C   UNL     1      -7.593  12.004  67.528  1.00  0.00    -0.147 C  
HETATM   16  O   UNL     1      -6.670  12.788  67.295  1.00  0.00    -0.158 OA 
BRANCH  15  17
HETATM   17  N   UNL     1      -8.198  11.240  66.522  1.00  0.00    -0.167 N  
BRANCH  17  18
HETATM   18  C   UNL     1      -7.245  10.452  65.689  1.00  0.00    -0.146 C  
BRANCH  18  19
HETATM   19  C   UNL     1      -6.901   9.055  66.215  1.00  0.00    -0.078 A  
HETATM   20  C   UNL     1      -6.580   6.728  67.716  1.00  0.00    -0.058 A  
HETATM   21  C   UNL     1      -7.734   7.950  65.991  1.00  0.00    -0.092 A  
HETATM   22  C   UNL     1      -7.593   6.798  66.768  1.00  0.00    -0.090 A  
HETATM   23  F   UNL     1      -6.522   5.674  68.546  1.00  0.00    -0.035 F  
HETATM   24  C   UNL     1      -5.652   7.751  67.846  1.00  0.00    -0.032 A  
HETATM   25  C   UNL     1      -5.796   8.908  67.079  1.00  0.00    -0.046 A  
ENDBRANCH  18  19
ENDBRANCH  17  18
BRANCH  17  26
HETATM   26  C   UNL     1      -9.645  11.344  66.102  1.00  0.00    -0.218 C  
HETATM   27  C   UNL     1     -10.184  12.763  65.844  1.00  0.00    -0.300 C  
HETATM   28  C   UNL     1     -10.098  10.421  64.927  1.00  0.00    -0.382 C  
HETATM   29  C   UNL     1     -12.085  12.498  63.608  1.00  0.00    -0.554 C  
HETATM   30  C   UNL     1      -9.922  13.237  64.423  1.00  0.00    -0.010 C  
HETATM   31  N   UNL     1     -10.632  12.413  63.451  1.00  0.00    -0.411 NA 
HETATM   32  C   UNL     1     -10.130  11.043  63.525  1.00  0.00    -0.373 C  
ENDBRANCH  17  26
ENDBRANCH  15  17
ENDBRANCH  13  15
ENDBRANCH  12  13
ENDBRANCH   9  12
ENDBRANCH   5   6
ENDBRANCH   4   5
TORSDOF 9
ENDMDL
MODEL      186
REMARK 921   NORMALIZED FREE ENERGY PREDICTED BY IDOCK:   -4.97 KCAL/MOL
REMARK 922        TOTAL FREE ENERGY PREDICTED BY IDOCK:   -9.06 KCAL/MOL
REMARK 923 INTER-LIGAND FREE ENERGY PREDICTED BY IDOCK:   -6.35 KCAL/MOL
REMARK 924 INTRA-LIGAND FREE ENERGY PREDICTED BY IDOCK:   -2.71 KCAL/MOL
REMARK 927      BINDING AFFINITY PREDICTED BY RF-SCORE:    0.00 PKD
ROOT
HETATM    1  C   UNL     1      -9.839  12.051  63.256  1.00  0.00    -0.258 C  
HETATM    2  C   UNL     1     -10.004  10.753  64.048  1.00  0.00    -0.403 C  
HETATM    3  C   UNL     1      -8.638  10.140  64.348  1.00  0.00    -0.199 C  
HETATM    4  C   UNL     1     -10.855  10.956  65.316  1.00  0.00    -0.052 C  
ENDROOT
BRANCH   4   5
HETATM    5  O   UNL     1     -10.256  11.862  66.253  1.00  0.00    -0.208 OA 
BRANCH   5   6
HETATM    6  C   UNL     1     -10.357  11.483  67.571  1.00  0.00    -0.194 A  
HETATM    7  C   UNL     1      -9.304  10.990  68.346  1.00  0.00    -0.179 A  
HETATM    8  C   UNL     1      -9.554  10.409  69.605  1.00  0.00    -0.142 A  
HETATM    9  C   UNL     1     -10.856  10.344  70.113  1.00  0.00    -0.333 A  
HETATM   10  C   UNL     1     -11.875  11.000  69.402  1.00  0.00    -0.407 A  
HETATM   11  C   UNL     1     -11.626  11.561  68.143  1.00  0.00    -0.378 A  
BRANCH   9  12
HETATM   12  C   UNL     1     -11.214   9.400  71.242  1.00  0.00    -0.367 C  
BRANCH  12  13
HETATM   13  N   UNL     1     -11.981   8.230  70.877  1.00  0.00    -0.439 N  
HETATM   14  H   UNL     1     -12.756   8.301  70.217  1.00  0.00     0.000 HD 
BRANCH  13  15
HETATM   15  C   UNL     1     -11.647   7.021  71.436  1.00  0.00    -0.292 C  
HETATM   16  O   UNL     1     -12.316   6.551  72.360  1.00  0.00    -0.159 OA 
BRANCH  15  17
HETATM   17  N   UNL     1     -10.548   6.347  70.889  1.00  0.00    -0.227 N  
BRANCH  17  18
HETATM   18  C   UNL     1     -10.897   5.350  69.837  1.00  0.00    -0.126 C  
BRANCH  18  19
HETATM   19  C   UNL     1     -10.504   5.729  68.406  1.00  0.00    -0.283 A  
HETATM   20  C   UNL     1      -9.227   6.613  66.091  1.00  0.00    -0.087 A  
HETATM   21  C   UNL     1      -9.915   4.807  67.528  1.00  0.00    -0.194 A  
HETATM   22  C   UNL     1      -9.247   5.257  66.387  1.00  0.00    -0.145 A  
HETATM   23  F   UNL     1      -8.482   7.055  65.065  1.00  0.00    -0.137 F  
HETATM   24  C   UNL     1      -9.932   7.523  66.865  1.00  0.00    -0.318 A  
HETATM   25  C   UNL     1     -10.592   7.080  68.012  1.00  0.00    -0.260 A  
ENDBRANCH  18  19
ENDBRANCH  17  18
BRANCH  17  26
HETATM   26  C   UNL     1      -9.141   6.393  71.434  1.00  0.00    -0.145 C  
HETATM   27  C   UNL     1      -8.459   5.037  71.692  1.00  0.00    -0.124 C  
HETATM   28  C   UNL     1      -8.132   7.317  70.681  1.00  0.00    -0.108 C  
HETATM   29  C   UNL     1      -5.615   5.433  71.030  1.00  0.00    -0.009 C  
HETATM   30  C   UNL     1      -7.773   4.483  70.454  1.00  0.00    -0.053 C  
HETATM   31  N   UNL     1      -6.677   5.345  70.026  1.00  0.00    -0.046 NA 
HETATM   32  C   UNL     1      -7.213   6.651  69.648  1.00  0.00    -0.078 C  
ENDBRANCH  17  26
ENDBRANCH  15  17
ENDBRANCH  13  15
ENDBRANCH  12  13
ENDBRANCH   9  12
ENDBRANCH   5   6
ENDBRANCH   4   5
TORSDOF 9
ENDMDL
MODEL      187
REMARK 921   NORMALIZED FREE ENERGY PREDICTED BY IDOCK:   -4.96 KCAL/MOL
REMARK 922        TOTAL FREE ENERGY PREDICTED BY IDOCK:   -9.03 KCAL/MOL
REMARK 923 INTER-LIGAND FREE ENERGY PREDICTED BY IDOCK:   -7.61 KCAL/MOL
REMARK 924 INTRA-LIGAND FREE ENERGY PREDICTED BY IDOCK:   -1.42 KCAL/MOL
REMARK 927      BINDING AFFINITY PREDICTED BY RF-SCORE:    0.00 PKD
ROOT
HETATM    1  C   UNL     1      -8.345   4.162  73.189  1.00  0.00    -0.090 C  
HETATM    2  C   UNL     1      -9.543   3.250  72.922  1.00  0.00    -0.161 C  
HETATM    3  C   UNL     1     -10.085   2.691  74.235  1.00  0.00    -0.173 C  
HETATM    4  C   UNL     1     -10.627   3.953  72.083  1.00  0.00     0.107 C  
ENDROOT
BRANCH   4   5
HETATM    5  O   UNL     1     -11.197   5.091  72.746  1.00  0.00    -0.251 OA 
BRANCH   5   6
HETATM    6  C   UNL     1     -11.293   6.223  71.973  1.00  0.00    -0.300 A  
HETATM    7  C   UNL     1     -10.945   6.303  70.621  1.00  0.00    -0.370 A  
HETATM    8  C   UNL     1     -10.853   7.553  69.979  1.00  0.00    -0.260 A  
HETATM    9  C   UNL     1     -11.138   8.733  70.675  1.00  0.00    -0.285 A  
HETATM   10  C   UNL     1     -11.655   8.623  71.977  1.00  0.00    -0.440 A  
HETATM   11  C   UNL     1     -11.729   7.380  72.618  1.00  0.00    -0.239 A  
BRANCH   9  12
HETATM   12  C   UNL     1     -10.679  10.081  70.160  1.00  0.00    -0.307 C  
BRANCH  12  13
HETATM   13  N   UNL     1     -10.142  10.103  68.817  1.00  0.00    -0.178 N  
HETATM   14  H   UNL     1      -9.231   9.691  68.615  1.00  0.00     0.000 HD 
BRANCH  13  15
HETATM   15  C   UNL     1     -10.881  10.689  67.820  1.00  0.00    -0.286 C  
HETATM   16  O   UNL     1     -11.987  11.178  68.063  1.00  0.00    -0.625 OA 
BRANCH  15  17
HETATM   17  N   UNL     1     -10.309  10.731  66.542  1.00  0.00    -0.238 N  
BRANCH  17  18
HETATM   18  C   UNL     1      -9.662   9.459  66.113  1.00  0.00    -0.265 C  
BRANCH  18  19
HETATM   19  C   UNL     1      -8.353   9.611  65.332  1.00  0.00    -0.146 A  
HETATM   20  C   UNL     1      -6.146  10.523  63.893  1.00  0.00    -0.018 A  
HETATM   21  C   UNL     1      -7.121   9.803  65.975  1.00  0.00    -0.101 A  
HETATM   22  C   UNL     1      -6.027  10.293  65.257  1.00  0.00    -0.127 A  
HETATM   23  F   UNL     1      -5.135  11.109  63.231  1.00  0.00    -0.184 F  
HETATM   24  C   UNL     1      -7.309  10.195  63.213  1.00  0.00    -0.135 A  
HETATM   25  C   UNL     1      -8.408   9.715  63.926  1.00  0.00    -0.172 A  
ENDBRANCH  18  19
ENDBRANCH  17  18
BRANCH  17  26
HETATM   26  C   UNL     1     -10.112  11.982  65.719  1.00  0.00    -0.238 C  
HETATM   27  C   UNL     1     -11.298  12.419  64.838  1.00  0.00    -0.361 C  
HETATM   28  C   UNL     1      -9.572  13.236  66.476  1.00  0.00    -0.267 C  
HETATM   29  C   UNL     1     -11.276  15.365  64.874  1.00  0.00    -0.403 C  
HETATM   30  C   UNL     1     -12.296  13.283  65.590  1.00  0.00    -0.465 C  
HETATM   31  N   UNL     1     -11.694  14.544  66.011  1.00  0.00    -0.362 NA 
HETATM   32  C   UNL     1     -10.606  14.267  66.946  1.00  0.00    -0.273 C  
ENDBRANCH  17  26
ENDBRANCH  15  17
ENDBRANCH  13  15
ENDBRANCH  12  13
ENDBRANCH   9  12
ENDBRANCH   5   6
ENDBRANCH   4   5
TORSDOF 9
ENDMDL
MODEL      188
REMARK 921   NORMALIZED FREE ENERGY PREDICTED BY IDOCK:   -4.94 KCAL/MOL
REMARK 922        TOTAL FREE ENERGY PREDICTED BY IDOCK:   -9.00 KCAL/MOL
REMARK 923 INTER-LIGAND FREE ENERGY PREDICTED BY IDOCK:   -7.94 KCAL/MOL
REMARK 924 INTRA-LIGAND FREE ENERGY PREDICTED BY IDOCK:   -1.06 KCAL/MOL
REMARK 927      BINDING AFFINITY PREDICTED BY RF-SCORE:    0.00 PKD
ROOT
HETATM    1  C   UNL     1      -9.854  20.792  67.189  1.00  0.00    -0.402 C  
HETATM    2  C   UNL     1     -10.460  19.416  67.468  1.00  0.00    -0.577 C  
HETATM    3  C   UNL     1     -10.421  18.556  66.207  1.00  0.00    -0.441 C  
HETATM    4  C   UNL     1      -9.796  18.728  68.676  1.00  0.00    -0.392 C  
ENDROOT
BRANCH   4   5
HETATM    5  O   UNL     1      -8.401  18.460  68.471  1.00  0.00    -0.317 OA 
BRANCH   5   6
HETATM    6  C   UNL     1      -8.012  17.173  68.755  1.00  0.00    -0.255 A  
HETATM    7  C   UNL     1      -6.687  16.730  68.808  1.00  0.00    -0.185 A  
HETATM    8  C   UNL     1      -6.395  15.354  68.872  1.00  0.00    -0.106 A  
HETATM    9  C   UNL     1      -7.427  14.409  68.916  1.00  0.00    -0.132 A  
HETATM   10  C   UNL     1      -8.746  14.877  69.040  1.00  0.00    -0.177 A  
HETATM   11  C   UNL     1      -9.033  16.246  68.958  1.00  0.00    -0.254 A  
BRANCH   9  12
HETATM   12  C   UNL     1      -7.174  12.952  68.589  1.00  0.00    -0.098 C  
BRANCH  12  13
HETATM   13  N   UNL     1      -8.331  12.085  68.595  1.00  0.00    -0.318 N  
HETATM   14  H   UNL     1      -9.241  12.431  68.290  1.00  0.00     0.000 HD 
BRANCH  13  15
HETATM   15  C   UNL     1      -8.183  10.788  69.019  1.00  0.00    -0.138 C  
HETATM   16  O   UNL     1      -7.161  10.435  69.613  1.00  0.00    -0.115 OA 
BRANCH  15  17
HETATM   17  N   UNL     1      -9.247   9.911  68.776  1.00  0.00    -0.142 N  
BRANCH  17  18
HETATM   18  C   UNL     1     -10.472  10.190  69.578  1.00  0.00    -0.241 C  
BRANCH  18  19
HETATM   19  C   UNL     1     -10.555   9.478  70.932  1.00  0.00    -0.395 A  
HETATM   20  C   UNL     1     -10.813   7.650  73.021  1.00  0.00    -0.400 A  
HETATM   21  C   UNL     1      -9.415   8.987  71.585  1.00  0.00    -0.293 A  
HETATM   22  C   UNL     1      -9.547   8.045  72.608  1.00  0.00    -0.327 A  
HETATM   23  F   UNL     1     -10.937   6.657  73.916  1.00  0.00    -0.262 F  
HETATM   24  C   UNL     1     -11.952   8.238  72.491  1.00  0.00    -0.420 A  
HETATM   25  C   UNL     1     -11.826   9.172  71.462  1.00  0.00    -0.428 A  
ENDBRANCH  18  19
ENDBRANCH  17  18
BRANCH  17  26
HETATM   26  C   UNL     1      -9.156   8.634  67.975  1.00  0.00    -0.140 C  
HETATM   27  C   UNL     1      -7.957   7.717  68.280  1.00  0.00    -0.123 C  
HETATM   28  C   UNL     1     -10.446   7.756  67.912  1.00  0.00    -0.263 C  
HETATM   29  C   UNL     1      -8.964   4.963  67.984  1.00  0.00    -0.110 C  
HETATM   30  C   UNL     1      -8.229   6.766  69.434  1.00  0.00    -0.128 C  
HETATM   31  N   UNL     1      -9.304   5.834  69.110  1.00  0.00    -0.122 NA 
HETATM   32  C   UNL     1     -10.540   6.584  68.898  1.00  0.00    -0.241 C  
ENDBRANCH  17  26
ENDBRANCH  15  17
ENDBRANCH  13  15
ENDBRANCH  12  13
ENDBRANCH   9  12
ENDBRANCH   5   6
ENDBRANCH   4   5
TORSDOF 9
ENDMDL
MODEL      189
REMARK 921   NORMALIZED FREE ENERGY PREDICTED BY IDOCK:   -4.94 KCAL/MOL
REMARK 922        TOTAL FREE ENERGY PREDICTED BY IDOCK:   -9.00 KCAL/MOL
REMARK 923 INTER-LIGAND FREE ENERGY PREDICTED BY IDOCK:   -7.55 KCAL/MOL
REMARK 924 INTRA-LIGAND FREE ENERGY PREDICTED BY IDOCK:   -1.45 KCAL/MOL
REMARK 927      BINDING AFFINITY PREDICTED BY RF-SCORE:    0.00 PKD
ROOT
HETATM    1  C   UNL     1     -10.530   2.804  72.925  1.00  0.00    -0.239 C  
HETATM    2  C   UNL     1      -9.622   3.743  72.128  1.00  0.00    -0.212 C  
HETATM    3  C   UNL     1      -9.899   3.601  70.633  1.00  0.00    -0.128 C  
HETATM    4  C   UNL     1      -9.729   5.200  72.616  1.00  0.00    -0.152 C  
ENDROOT
BRANCH   4   5
HETATM    5  O   UNL     1     -11.041   5.754  72.442  1.00  0.00    -0.253 OA 
BRANCH   5   6
HETATM    6  C   UNL     1     -11.070   7.011  71.888  1.00  0.00    -0.242 A  
HETATM    7  C   UNL     1     -11.567   8.155  72.520  1.00  0.00    -0.468 A  
HETATM    8  C   UNL     1     -11.772   9.342  71.791  1.00  0.00    -0.444 A  
HETATM    9  C   UNL     1     -11.453   9.407  70.430  1.00  0.00    -0.272 A  
HETATM   10  C   UNL     1     -10.793   8.308  69.854  1.00  0.00    -0.213 A  
HETATM   11  C   UNL     1     -10.606   7.122  70.578  1.00  0.00    -0.243 A  
BRANCH   9  12
HETATM   12  C   UNL     1     -12.013  10.498  69.541  1.00  0.00    -0.186 C  
BRANCH  12  13
HETATM   13  N   UNL     1     -11.622  10.451  68.149  1.00  0.00    -0.479 N  
HETATM   14  H   UNL     1     -11.554   9.559  67.659  1.00  0.00     0.000 HD 
BRANCH  13  15
HETATM   15  C   UNL     1     -11.346  11.629  67.501  1.00  0.00    -0.298 C  
HETATM   16  O   UNL     1     -12.154  12.111  66.704  1.00  0.00    -0.622 OA 
BRANCH  15  17
HETATM   17  N   UNL     1     -10.136  12.261  67.814  1.00  0.00    -0.197 N  
BRANCH  17  18
HETATM   18  C   UNL     1     -10.283  13.542  68.561  1.00  0.00    -0.229 C  
BRANCH  18  19
HETATM   19  C   UNL     1      -9.528  14.741  67.978  1.00  0.00    -0.204 A  
HETATM   20  C   UNL     1      -8.759  17.173  66.854  1.00  0.00    -0.232 A  
HETATM   21  C   UNL     1      -9.018  15.764  68.790  1.00  0.00    -0.214 A  
HETATM   22  C   UNL     1      -8.666  16.993  68.228  1.00  0.00    -0.241 A  
HETATM   23  F   UNL     1      -8.539  18.390  66.330  1.00  0.00    -0.266 F  
HETATM   24  C   UNL     1      -9.115  16.124  66.019  1.00  0.00    -0.354 A  
HETATM   25  C   UNL     1      -9.478  14.898  66.577  1.00  0.00    -0.307 A  
ENDBRANCH  18  19
ENDBRANCH  17  18
BRANCH  17  26
HETATM   26  C   UNL     1      -8.784  11.868  67.267  1.00  0.00    -0.171 C  
HETATM   27  C   UNL     1      -7.737  11.400  68.295  1.00  0.00    -0.124 C  
HETATM   28  C   UNL     1      -8.780  10.868  66.068  1.00  0.00    -0.192 C  
HETATM   29  C   UNL     1      -6.187   9.286  66.949  1.00  0.00    -0.065 C  
HETATM   30  C   UNL     1      -7.846   9.915  68.604  1.00  0.00    -0.086 C  
HETATM   31  N   UNL     1      -7.560   9.107  67.425  1.00  0.00    -0.085 NA 
HETATM   32  C   UNL     1      -8.561   9.386  66.397  1.00  0.00    -0.134 C  
ENDBRANCH  17  26
ENDBRANCH  15  17
ENDBRANCH  13  15
ENDBRANCH  12  13
ENDBRANCH   9  12
ENDBRANCH   5   6
ENDBRANCH   4   5
TORSDOF 9
ENDMDL
MODEL      190
REMARK 921   NORMALIZED FREE ENERGY PREDICTED BY IDOCK:   -4.92 KCAL/MOL
REMARK 922        TOTAL FREE ENERGY PREDICTED BY IDOCK:   -8.98 KCAL/MOL
REMARK 923 INTER-LIGAND FREE ENERGY PREDICTED BY IDOCK:   -7.19 KCAL/MOL
REMARK 924 INTRA-LIGAND FREE ENERGY PREDICTED BY IDOCK:   -1.79 KCAL/MOL
REMARK 927      BINDING AFFINITY PREDICTED BY RF-SCORE:    0.00 PKD
ROOT
HETATM    1  C   UNL     1     -10.128  14.737  65.544  1.00  0.00    -0.409 C  
HETATM    2  C   UNL     1     -11.649  14.587  65.483  1.00  0.00    -0.350 C  
HETATM    3  C   UNL     1     -12.120  14.575  64.031  1.00  0.00    -0.271 C  
HETATM    4  C   UNL     1     -12.140  13.362  66.277  1.00  0.00    -0.422 C  
ENDROOT
BRANCH   4   5
HETATM    5  O   UNL     1     -11.646  12.121  65.753  1.00  0.00    -0.366 OA 
BRANCH   5   6
HETATM    6  C   UNL     1     -10.789  11.441  66.584  1.00  0.00    -0.289 A  
HETATM    7  C   UNL     1     -10.482  11.813  67.896  1.00  0.00    -0.219 A  
HETATM    8  C   UNL     1      -9.420  11.195  68.585  1.00  0.00    -0.196 A  
HETATM    9  C   UNL     1      -8.675  10.177  67.978  1.00  0.00    -0.122 A  
HETATM   10  C   UNL     1      -9.109   9.695  66.731  1.00  0.00    -0.171 A  
HETATM   11  C   UNL     1     -10.154  10.324  66.042  1.00  0.00    -0.311 A  
BRANCH   9  12
HETATM   12  C   UNL     1      -7.315   9.774  68.508  1.00  0.00    -0.074 C  
BRANCH  12  13
HETATM   13  N   UNL     1      -7.301   9.108  69.792  1.00  0.00    -0.060 N  
HETATM   14  H   UNL     1      -7.392   9.643  70.656  1.00  0.00     0.000 HD 
BRANCH  13  15
HETATM   15  C   UNL     1      -7.162   7.743  69.825  1.00  0.00    -0.067 C  
HETATM   16  O   UNL     1      -6.074   7.216  69.580  1.00  0.00    -0.029 OA 
BRANCH  15  17
HETATM   17  N   UNL     1      -8.292   6.995  70.180  1.00  0.00    -0.136 N  
BRANCH  17  18
HETATM   18  C   UNL     1      -8.726   7.167  71.595  1.00  0.00    -0.118 C  
BRANCH  18  19
HETATM   19  C   UNL     1     -10.069   7.877  71.796  1.00  0.00    -0.236 A  
HETATM   20  C   UNL     1     -12.651   8.903  71.576  1.00  0.00    -0.331 A  
HETATM   21  C   UNL     1     -11.128   7.281  72.497  1.00  0.00    -0.334 A  
HETATM   22  C   UNL     1     -12.425   7.778  72.356  1.00  0.00    -0.157 A  
HETATM   23  F   UNL     1     -13.911   9.305  71.342  1.00  0.00    -0.414 F  
HETATM   24  C   UNL     1     -11.596   9.595  70.999  1.00  0.00    -0.436 A  
HETATM   25  C   UNL     1     -10.299   9.098  71.128  1.00  0.00    -0.387 A  
ENDBRANCH  18  19
ENDBRANCH  17  18
BRANCH  17  26
HETATM   26  C   UNL     1      -8.916   5.910  69.335  1.00  0.00    -0.121 C  
HETATM   27  C   UNL     1     -10.419   6.056  69.030  1.00  0.00    -0.319 C  
HETATM   28  C   UNL     1      -8.177   5.547  68.009  1.00  0.00    -0.100 C  
HETATM   29  C   UNL     1     -10.782   5.020  66.296  1.00  0.00    -0.199 C  
HETATM   30  C   UNL     1     -10.685   6.917  67.807  1.00  0.00    -0.254 C  
HETATM   31  N   UNL     1     -10.145   6.302  66.599  1.00  0.00    -0.172 NA 
HETATM   32  C   UNL     1      -8.692   6.202  66.721  1.00  0.00    -0.116 C  
ENDBRANCH  17  26
ENDBRANCH  15  17
ENDBRANCH  13  15
ENDBRANCH  12  13
ENDBRANCH   9  12
ENDBRANCH   5   6
ENDBRANCH   4   5
TORSDOF 9
ENDMDL
MODEL      191
REMARK 921   NORMALIZED FREE ENERGY PREDICTED BY IDOCK:   -4.89 KCAL/MOL
REMARK 922        TOTAL FREE ENERGY PREDICTED BY IDOCK:   -8.93 KCAL/MOL
REMARK 923 INTER-LIGAND FREE ENERGY PREDICTED BY IDOCK:   -6.47 KCAL/MOL
REMARK 924 INTRA-LIGAND FREE ENERGY PREDICTED BY IDOCK:   -2.46 KCAL/MOL
REMARK 927      BINDING AFFINITY PREDICTED BY RF-SCORE:    0.00 PKD
ROOT
HETATM    1  C   UNL     1      -9.866   8.746  65.965  1.00  0.00    -0.234 C  
HETATM    2  C   UNL     1      -9.663   9.982  66.843  1.00  0.00    -0.237 C  
HETATM    3  C   UNL     1      -8.312  10.627  66.543  1.00  0.00    -0.143 C  
HETATM    4  C   UNL     1     -10.835  10.975  66.720  1.00  0.00    -0.251 C  
ENDROOT
BRANCH   4   5
HETATM    5  O   UNL     1     -10.981  11.508  65.396  1.00  0.00    -0.282 OA 
BRANCH   5   6
HETATM    6  C   UNL     1     -10.828  12.870  65.301  1.00  0.00    -0.292 A  
HETATM    7  C   UNL     1      -9.605  13.545  65.361  1.00  0.00     0.083 A  
HETATM    8  C   UNL     1      -9.568  14.947  65.491  1.00  0.00    -0.180 A  
HETATM    9  C   UNL     1     -10.754  15.690  65.531  1.00  0.00    -0.403 A  
HETATM   10  C   UNL     1     -11.964  15.015  65.292  1.00  0.00    -0.086 A  
HETATM   11  C   UNL     1     -11.998  13.619  65.180  1.00  0.00    -0.391 A  
BRANCH   9  12
HETATM   12  C   UNL     1     -10.776  17.110  66.057  1.00  0.00    -0.113 C  
BRANCH  12  13
HETATM   13  N   UNL     1     -11.207  17.277  67.427  1.00  0.00     0.098 N  
HETATM   14  H   UNL     1     -12.179  17.113  67.689  1.00  0.00     0.000 HD 
BRANCH  13  15
HETATM   15  C   UNL     1     -10.284  17.660  68.368  1.00  0.00    -0.381 C  
HETATM   16  O   UNL     1     -10.268  18.817  68.796  1.00  0.00    -0.374 OA 
BRANCH  15  17
HETATM   17  N   UNL     1      -9.400  16.678  68.831  1.00  0.00    -0.250 N  
BRANCH  17  18
HETATM   18  C   UNL     1      -8.041  16.734  68.222  1.00  0.00    -0.202 C  
BRANCH  18  19
HETATM   19  C   UNL     1      -7.102  15.579  68.584  1.00  0.00    -0.118 A  
HETATM   20  C   UNL     1      -5.944  13.214  69.496  1.00  0.00    -0.108 A  
HETATM   21  C   UNL     1      -6.825  14.537  67.687  1.00  0.00    -0.203 A  
HETATM   22  C   UNL     1      -6.276  13.341  68.154  1.00  0.00    -0.111 A  
HETATM   23  F   UNL     1      -5.533  12.025  69.966  1.00  0.00    -0.071 F  
HETATM   24  C   UNL     1      -6.069  14.286  70.368  1.00  0.00    -0.176 A  
HETATM   25  C   UNL     1      -6.627  15.480  69.908  1.00  0.00    -0.131 A  
ENDBRANCH  18  19
ENDBRANCH  17  18
BRANCH  17  26
HETATM   26  C   UNL     1      -9.787  15.492  69.682  1.00  0.00    -0.278 C  
HETATM   27  C   UNL     1     -10.763  15.767  70.840  1.00  0.00    -0.039 C  
HETATM   28  C   UNL     1     -10.270  14.217  68.921  1.00  0.00    -0.203 C  
HETATM   29  C   UNL     1     -12.472  13.374  71.029  1.00  0.00    -0.353 C  
HETATM   30  C   UNL     1     -12.218  15.706  70.405  1.00  0.00    -0.395 C  
HETATM   31  N   UNL     1     -12.580  14.365  69.958  1.00  0.00    -0.298 NA 
HETATM   32  C   UNL     1     -11.785  14.021  68.780  1.00  0.00    -0.353 C  
ENDBRANCH  17  26
ENDBRANCH  15  17
ENDBRANCH  13  15
ENDBRANCH  12  13
ENDBRANCH   9  12
ENDBRANCH   5   6
ENDBRANCH   4   5
TORSDOF 9
ENDMDL
MODEL      192
REMARK 921   NORMALIZED FREE ENERGY PREDICTED BY IDOCK:   -4.88 KCAL/MOL
REMARK 922        TOTAL FREE ENERGY PREDICTED BY IDOCK:   -8.92 KCAL/MOL
REMARK 923 INTER-LIGAND FREE ENERGY PREDICTED BY IDOCK:   -7.85 KCAL/MOL
REMARK 924 INTRA-LIGAND FREE ENERGY PREDICTED BY IDOCK:   -1.06 KCAL/MOL
REMARK 927      BINDING AFFINITY PREDICTED BY RF-SCORE:    0.00 PKD
ROOT
HETATM    1  C   UNL     1     -13.314  15.956  73.552  1.00  0.00    -0.516 C  
HETATM    2  C   UNL     1     -12.953  15.626  72.103  1.00  0.00    -0.527 C  
HETATM    3  C   UNL     1     -11.452  15.378  71.977  1.00  0.00    -0.521 C  
HETATM    4  C   UNL     1     -13.796  14.460  71.550  1.00  0.00    -0.379 C  
ENDROOT
BRANCH   4   5
HETATM    5  O   UNL     1     -13.577  13.229  72.253  1.00  0.00    -0.536 OA 
BRANCH   5   6
HETATM    6  C   UNL     1     -13.045  12.215  71.493  1.00  0.00    -0.257 A  
HETATM    7  C   UNL     1     -13.043  10.863  71.849  1.00  0.00    -0.537 A  
HETATM    8  C   UNL     1     -12.270   9.935  71.124  1.00  0.00    -0.468 A  
HETATM    9  C   UNL     1     -11.517  10.344  70.018  1.00  0.00    -0.382 A  
HETATM   10  C   UNL     1     -11.670  11.667  69.569  1.00  0.00    -0.410 A  
HETATM   11  C   UNL     1     -12.425  12.592  70.302  1.00  0.00    -0.163 A  
BRANCH   9  12
HETATM   12  C   UNL     1     -10.393   9.490  69.470  1.00  0.00    -0.217 C  
BRANCH  12  13
HETATM   13  N   UNL     1      -9.335  10.192  68.779  1.00  0.00    -0.159 N  
HETATM   14  H   UNL     1      -9.373  11.205  68.663  1.00  0.00     0.000 HD 
BRANCH  13  15
HETATM   15  C   UNL     1      -8.279   9.470  68.281  1.00  0.00    -0.113 C  
HETATM   16  O   UNL     1      -7.124   9.725  68.631  1.00  0.00    -0.069 OA 
BRANCH  15  17
HETATM   17  N   UNL     1      -8.580   8.425  67.399  1.00  0.00    -0.124 N  
BRANCH  17  18
HETATM   18  C   UNL     1      -7.972   7.114  67.764  1.00  0.00    -0.114 C  
BRANCH  18  19
HETATM   19  C   UNL     1      -8.681   6.343  68.882  1.00  0.00    -0.126 A  
HETATM   20  C   UNL     1      -9.522   4.476  70.773  1.00  0.00    -0.168 A  
HETATM   21  C   UNL     1      -8.327   6.495  70.231  1.00  0.00    -0.127 A  
HETATM   22  C   UNL     1      -8.722   5.539  71.169  1.00  0.00    -0.134 A  
HETATM   23  F   UNL     1      -9.798   3.494  71.647  1.00  0.00    -0.215 F  
HETATM   24  C   UNL     1     -10.008   4.391  69.477  1.00  0.00    -0.187 A  
HETATM   25  C   UNL     1      -9.607   5.338  68.533  1.00  0.00    -0.180 A  
ENDBRANCH  18  19
ENDBRANCH  17  18
BRANCH  17  26
HETATM   26  C   UNL     1      -9.245   8.589  66.053  1.00  0.00    -0.202 C  
HETATM   27  C   UNL     1      -9.654  10.020  65.659  1.00  0.00    -0.313 C  
HETATM   28  C   UNL     1      -8.526   7.928  64.835  1.00  0.00    -0.045 C  
HETATM   29  C   UNL     1      -9.225  10.200  62.749  1.00  0.00    -0.301 C  
HETATM   30  C   UNL     1      -8.522  10.789  64.996  1.00  0.00    -0.079 C  
HETATM   31  N   UNL     1      -8.138  10.177  63.729  1.00  0.00    -0.158 NA 
HETATM   32  C   UNL     1      -7.626   8.832  63.981  1.00  0.00    -0.123 C  
ENDBRANCH  17  26
ENDBRANCH  15  17
ENDBRANCH  13  15
ENDBRANCH  12  13
ENDBRANCH   9  12
ENDBRANCH   5   6
ENDBRANCH   4   5
TORSDOF 9
ENDMDL
MODEL      193
REMARK 921   NORMALIZED FREE ENERGY PREDICTED BY IDOCK:   -4.88 KCAL/MOL
REMARK 922        TOTAL FREE ENERGY PREDICTED BY IDOCK:   -8.92 KCAL/MOL
REMARK 923 INTER-LIGAND FREE ENERGY PREDICTED BY IDOCK:   -7.07 KCAL/MOL
REMARK 924 INTRA-LIGAND FREE ENERGY PREDICTED BY IDOCK:   -1.85 KCAL/MOL
REMARK 927      BINDING AFFINITY PREDICTED BY RF-SCORE:    0.00 PKD
ROOT
HETATM    1  C   UNL     1     -11.145  15.408  64.974  1.00  0.00    -0.428 C  
HETATM    2  C   UNL     1     -10.380  15.043  66.247  1.00  0.00    -0.304 C  
HETATM    3  C   UNL     1     -11.257  15.275  67.475  1.00  0.00    -0.317 C  
HETATM    4  C   UNL     1      -9.809  13.614  66.187  1.00  0.00    -0.293 C  
ENDROOT
BRANCH   4   5
HETATM    5  O   UNL     1     -10.827  12.608  66.092  1.00  0.00    -0.265 OA 
BRANCH   5   6
HETATM    6  C   UNL     1     -10.386  11.319  66.272  1.00  0.00    -0.247 A  
HETATM    7  C   UNL     1      -9.600  10.606  65.362  1.00  0.00    -0.282 A  
HETATM    8  C   UNL     1      -9.397   9.221  65.524  1.00  0.00    -0.303 A  
HETATM    9  C   UNL     1      -9.952   8.543  66.615  1.00  0.00    -0.363 A  
HETATM   10  C   UNL     1     -10.588   9.304  67.611  1.00  0.00    -0.324 A  
HETATM   11  C   UNL     1     -10.803  10.678  67.438  1.00  0.00    -0.353 A  
BRANCH   9  12
HETATM   12  C   UNL     1     -10.094   7.035  66.615  1.00  0.00    -0.148 C  
BRANCH  12  13
HETATM   13  N   UNL     1      -8.889   6.280  66.875  1.00  0.00    -0.113 N  
HETATM   14  H   UNL     1      -8.003   6.551  66.447  1.00  0.00     0.000 HD 
BRANCH  13  15
HETATM   15  C   UNL     1      -8.959   5.191  67.708  1.00  0.00    -0.110 C  
HETATM   16  O   UNL     1      -9.490   4.144  67.329  1.00  0.00    -0.163 OA 
BRANCH  15  17
HETATM   17  N   UNL     1      -8.375   5.318  68.975  1.00  0.00    -0.095 N  
BRANCH  17  18
HETATM   18  C   UNL     1      -9.081   4.575  70.057  1.00  0.00    -0.102 C  
BRANCH  18  19
HETATM   19  C   UNL     1     -10.217   5.332  70.750  1.00  0.00    -0.317 A  
HETATM   20  C   UNL     1     -11.829   7.182  72.073  1.00  0.00    -0.295 A  
HETATM   21  C   UNL     1     -11.145   6.101  70.033  1.00  0.00    -0.462 A  
HETATM   22  C   UNL     1     -11.926   7.050  70.694  1.00  0.00    -0.361 A  
HETATM   23  F   UNL     1     -12.487   8.176  72.691  1.00  0.00    -0.346 F  
HETATM   24  C   UNL     1     -11.030   6.327  72.817  1.00  0.00    -0.291 A  
HETATM   25  C   UNL     1     -10.239   5.383  72.160  1.00  0.00    -0.253 A  
ENDBRANCH  18  19
ENDBRANCH  17  18
BRANCH  17  26
HETATM   26  C   UNL     1      -7.280   6.295  69.333  1.00  0.00    -0.082 C  
HETATM   27  C   UNL     1      -7.690   7.775  69.442  1.00  0.00    -0.106 C  
HETATM   28  C   UNL     1      -6.401   5.933  70.571  1.00  0.00    -0.032 C  
HETATM   29  C   UNL     1      -6.060   8.895  71.627  1.00  0.00    -0.065 C  
HETATM   30  C   UNL     1      -8.219   8.134  70.821  1.00  0.00    -0.111 C  
HETATM   31  N   UNL     1      -7.185   7.985  71.840  1.00  0.00    -0.073 NA 
HETATM   32  C   UNL     1      -6.780   6.583  71.909  1.00  0.00    -0.063 C  
ENDBRANCH  17  26
ENDBRANCH  15  17
ENDBRANCH  13  15
ENDBRANCH  12  13
ENDBRANCH   9  12
ENDBRANCH   5   6
ENDBRANCH   4   5
TORSDOF 9
ENDMDL
MODEL      194
REMARK 921   NORMALIZED FREE ENERGY PREDICTED BY IDOCK:   -4.87 KCAL/MOL
REMARK 922        TOTAL FREE ENERGY PREDICTED BY IDOCK:   -8.91 KCAL/MOL
REMARK 923 INTER-LIGAND FREE ENERGY PREDICTED BY IDOCK:   -6.13 KCAL/MOL
REMARK 924 INTRA-LIGAND FREE ENERGY PREDICTED BY IDOCK:   -2.78 KCAL/MOL
REMARK 927      BINDING AFFINITY PREDICTED BY RF-SCORE:    0.00 PKD
ROOT
HETATM    1  C   UNL     1     -11.973   9.595  71.031  1.00  0.00    -0.427 C  
HETATM    2  C   UNL     1     -12.512   8.654  72.111  1.00  0.00    -0.453 C  
HETATM    3  C   UNL     1     -14.038   8.698  72.136  1.00  0.00    -0.511 C  
HETATM    4  C   UNL     1     -11.961   7.224  71.956  1.00  0.00    -0.296 C  
ENDROOT
BRANCH   4   5
HETATM    5  O   UNL     1     -12.355   6.602  70.725  1.00  0.00    -0.352 OA 
BRANCH   5   6
HETATM    6  C   UNL     1     -11.317   6.247  69.897  1.00  0.00    -0.434 A  
HETATM    7  C   UNL     1     -10.299   5.348  70.230  1.00  0.00    -0.357 A  
HETATM    8  C   UNL     1      -9.157   5.228  69.414  1.00  0.00    -0.135 A  
HETATM    9  C   UNL     1      -9.038   5.982  68.241  1.00  0.00    -0.111 A  
HETATM   10  C   UNL     1     -10.144   6.745  67.831  1.00  0.00    -0.189 A  
HETATM   11  C   UNL     1     -11.271   6.876  68.654  1.00  0.00    -0.082 A  
BRANCH   9  12
HETATM   12  C   UNL     1      -7.697   6.179  67.565  1.00  0.00    -0.097 C  
BRANCH  12  13
HETATM   13  N   UNL     1      -7.494   7.451  66.907  1.00  0.00    -0.095 N  
HETATM   14  H   UNL     1      -8.134   7.767  66.178  1.00  0.00     0.000 HD 
BRANCH  13  15
HETATM   15  C   UNL     1      -6.423   8.224  67.280  1.00  0.00    -0.058 C  
HETATM   16  O   UNL     1      -5.281   7.932  66.917  1.00  0.00    -0.029 OA 
BRANCH  15  17
HETATM   17  N   UNL     1      -6.695   9.360  68.053  1.00  0.00    -0.063 N  
BRANCH  17  18
HETATM   18  C   UNL     1      -7.027  10.579  67.262  1.00  0.00    -0.087 C  
BRANCH  18  19
HETATM   19  C   UNL     1      -8.460  11.099  67.414  1.00  0.00    -0.134 A  
HETATM   20  C   UNL     1     -10.990  12.213  67.057  1.00  0.00    -0.271 A  
HETATM   21  C   UNL     1      -9.576  10.271  67.221  1.00  0.00    -0.186 A  
HETATM   22  C   UNL     1     -10.836  10.834  67.008  1.00  0.00    -0.311 A  
HETATM   23  F   UNL     1     -12.174  12.759  66.732  1.00  0.00    -0.442 F  
HETATM   24  C   UNL     1      -9.929  13.039  67.398  1.00  0.00    -0.228 A  
HETATM   25  C   UNL     1      -8.666  12.482  67.601  1.00  0.00    -0.177 A  
ENDBRANCH  18  19
ENDBRANCH  17  18
BRANCH  17  26
HETATM   26  C   UNL     1      -6.453   9.479  69.539  1.00  0.00    -0.044 C  
HETATM   27  C   UNL     1      -7.684   9.786  70.412  1.00  0.00    -0.159 C  
HETATM   28  C   UNL     1      -5.649   8.321  70.209  1.00  0.00    -0.022 C  
HETATM   29  C   UNL     1      -7.267   8.307  72.926  1.00  0.00    -0.103 C  
HETATM   30  C   UNL     1      -8.442   8.531  70.814  1.00  0.00    -0.149 C  
HETATM   31  N   UNL     1      -7.624   7.668  71.659  1.00  0.00    -0.082 NA 
HETATM   32  C   UNL     1      -6.460   7.217  70.900  1.00  0.00    -0.044 C  
ENDBRANCH  17  26
ENDBRANCH  15  17
ENDBRANCH  13  15
ENDBRANCH  12  13
ENDBRANCH   9  12
ENDBRANCH   5   6
ENDBRANCH   4   5
TORSDOF 9
ENDMDL
MODEL      195
REMARK 921   NORMALIZED FREE ENERGY PREDICTED BY IDOCK:   -4.87 KCAL/MOL
REMARK 922        TOTAL FREE ENERGY PREDICTED BY IDOCK:   -8.89 KCAL/MOL
REMARK 923 INTER-LIGAND FREE ENERGY PREDICTED BY IDOCK:   -6.91 KCAL/MOL
REMARK 924 INTRA-LIGAND FREE ENERGY PREDICTED BY IDOCK:   -1.99 KCAL/MOL
REMARK 927      BINDING AFFINITY PREDICTED BY RF-SCORE:    0.00 PKD
ROOT
HETATM    1  C   UNL     1      -6.600   4.441  72.137  1.00  0.00    -0.023 C  
HETATM    2  C   UNL     1      -7.064   5.866  72.445  1.00  0.00    -0.085 C  
HETATM    3  C   UNL     1      -7.422   6.596  71.153  1.00  0.00    -0.084 C  
HETATM    4  C   UNL     1      -8.208   5.889  73.477  1.00  0.00    -0.111 C  
ENDROOT
BRANCH   4   5
HETATM    5  O   UNL     1      -9.394   5.229  73.012  1.00  0.00    -0.133 OA 
BRANCH   5   6
HETATM    6  C   UNL     1     -10.375   6.068  72.538  1.00  0.00    -0.195 A  
HETATM    7  C   UNL     1     -11.158   5.826  71.405  1.00  0.00    -0.273 A  
HETATM    8  C   UNL     1     -11.967   6.844  70.865  1.00  0.00    -0.430 A  
HETATM    9  C   UNL     1     -12.025   8.104  71.471  1.00  0.00    -0.334 A  
HETATM   10  C   UNL     1     -11.373   8.274  72.704  1.00  0.00    -0.421 A  
HETATM   11  C   UNL     1     -10.555   7.265  73.229  1.00  0.00    -0.428 A  
BRANCH   9  12
HETATM   12  C   UNL     1     -12.549   9.313  70.725  1.00  0.00    -0.004 C  
BRANCH  12  13
HETATM   13  N   UNL     1     -11.613  10.398  70.528  1.00  0.00    -0.321 N  
HETATM   14  H   UNL     1     -11.697  11.261  71.064  1.00  0.00     0.000 HD 
BRANCH  13  15
HETATM   15  C   UNL     1     -10.608  10.243  69.605  1.00  0.00    -0.256 C  
HETATM   16  O   UNL     1      -9.450  10.022  69.969  1.00  0.00    -0.224 OA 
BRANCH  15  17
HETATM   17  N   UNL     1     -10.967  10.312  68.253  1.00  0.00    -0.258 N  
BRANCH  17  18
HETATM   18  C   UNL     1     -11.819  11.483  67.901  1.00  0.00    -0.184 C  
BRANCH  18  19
HETATM   19  C   UNL     1     -11.162  12.857  68.068  1.00  0.00    -0.305 A  
HETATM   20  C   UNL     1      -9.820  15.127  68.973  1.00  0.00    -0.238 A  
HETATM   21  C   UNL     1      -9.841  13.103  67.667  1.00  0.00    -0.219 A  
HETATM   22  C   UNL     1      -9.161  14.223  68.149  1.00  0.00    -0.193 A  
HETATM   23  F   UNL     1      -9.132  16.134  69.535  1.00  0.00    -0.241 F  
HETATM   24  C   UNL     1     -11.170  14.980  69.257  1.00  0.00    -0.297 A  
HETATM   25  C   UNL     1     -11.851  13.857  68.785  1.00  0.00    -0.396 A  
ENDBRANCH  18  19
ENDBRANCH  17  18
BRANCH  17  26
HETATM   26  C   UNL     1     -10.754   9.213  67.240  1.00  0.00    -0.154 C  
HETATM   27  C   UNL     1      -9.760   9.511  66.102  1.00  0.00    -0.324 C  
HETATM   28  C   UNL     1     -10.445   7.792  67.807  1.00  0.00    -0.277 C  
HETATM   29  C   UNL     1      -8.399   6.957  65.545  1.00  0.00    -0.137 C  
HETATM   30  C   UNL     1      -8.324   9.194  66.485  1.00  0.00    -0.118 C  
HETATM   31  N   UNL     1      -8.146   7.768  66.737  1.00  0.00    -0.113 NA 
HETATM   32  C   UNL     1      -8.969   7.376  67.878  1.00  0.00    -0.131 C  
ENDBRANCH  17  26
ENDBRANCH  15  17
ENDBRANCH  13  15
ENDBRANCH  12  13
ENDBRANCH   9  12
ENDBRANCH   5   6
ENDBRANCH   4   5
TORSDOF 9
ENDMDL
MODEL      196
REMARK 921   NORMALIZED FREE ENERGY PREDICTED BY IDOCK:   -4.86 KCAL/MOL
REMARK 922        TOTAL FREE ENERGY PREDICTED BY IDOCK:   -8.89 KCAL/MOL
REMARK 923 INTER-LIGAND FREE ENERGY PREDICTED BY IDOCK:   -7.18 KCAL/MOL
REMARK 924 INTRA-LIGAND FREE ENERGY PREDICTED BY IDOCK:   -1.71 KCAL/MOL
REMARK 927      BINDING AFFINITY PREDICTED BY RF-SCORE:    0.00 PKD
ROOT
HETATM    1  C   UNL     1     -10.172   5.247  71.058  1.00  0.00    -0.299 C  
HETATM    2  C   UNL     1     -11.316   5.423  72.058  1.00  0.00    -0.100 C  
HETATM    3  C   UNL     1     -10.872   4.985  73.451  1.00  0.00    -0.360 C  
HETATM    4  C   UNL     1     -11.883   6.856  72.038  1.00  0.00    -0.310 C  
ENDROOT
BRANCH   4   5
HETATM    5  O   UNL     1     -10.921   7.844  72.432  1.00  0.00    -0.271 OA 
BRANCH   5   6
HETATM    6  C   UNL     1     -10.931   8.994  71.680  1.00  0.00    -0.365 A  
HETATM    7  C   UNL     1     -11.991   9.905  71.623  1.00  0.00    -0.427 A  
HETATM    8  C   UNL     1     -12.006  10.923  70.650  1.00  0.00    -0.467 A  
HETATM    9  C   UNL     1     -10.947  11.060  69.746  1.00  0.00    -0.258 A  
HETATM   10  C   UNL     1      -9.813  10.251  69.930  1.00  0.00    -0.153 A  
HETATM   11  C   UNL     1      -9.808   9.228  70.888  1.00  0.00    -0.363 A  
BRANCH   9  12
HETATM   12  C   UNL     1     -11.101  11.858  68.468  1.00  0.00    -0.243 C  
BRANCH  12  13
HETATM   13  N   UNL     1     -10.519  13.183  68.468  1.00  0.00    -0.254 N  
HETATM   14  H   UNL     1     -10.704  13.831  69.233  1.00  0.00     0.000 HD 
BRANCH  13  15
HETATM   15  C   UNL     1      -9.715  13.550  67.418  1.00  0.00    -0.229 C  
HETATM   16  O   UNL     1      -9.738  12.918  66.359  1.00  0.00    -0.254 OA 
BRANCH  15  17
HETATM   17  N   UNL     1      -8.906  14.679  67.598  1.00  0.00    -0.174 N  
BRANCH  17  18
HETATM   18  C   UNL     1      -7.471  14.472  67.253  1.00  0.00    -0.097 C  
BRANCH  18  19
HETATM   19  C   UNL     1      -6.796  13.267  67.916  1.00  0.00    -0.140 A  
HETATM   20  C   UNL     1      -6.188  10.904  69.264  1.00  0.00    -0.055 A  
HETATM   21  C   UNL     1      -6.471  12.108  67.197  1.00  0.00    -0.135 A  
HETATM   22  C   UNL     1      -6.200  10.918  67.876  1.00  0.00    -0.054 A  
HETATM   23  F   UNL     1      -6.051   9.737  69.913  1.00  0.00    -0.037 F  
HETATM   24  C   UNL     1      -6.357  12.074  69.991  1.00  0.00    -0.053 A  
HETATM   25  C   UNL     1      -6.637  13.263  69.318  1.00  0.00    -0.093 A  
ENDBRANCH  18  19
ENDBRANCH  17  18
BRANCH  17  26
HETATM   26  C   UNL     1      -9.327  15.946  68.304  1.00  0.00    -0.194 C  
HETATM   27  C   UNL     1      -8.212  16.961  68.617  1.00  0.00    -0.254 C  
HETATM   28  C   UNL     1     -10.538  16.717  67.689  1.00  0.00    -0.321 C  
HETATM   29  C   UNL     1      -9.441  19.620  68.297  1.00  0.00    -0.368 C  
HETATM   30  C   UNL     1      -7.941  17.906  67.458  1.00  0.00    -0.213 C  
HETATM   31  N   UNL     1      -9.102  18.743  67.175  1.00  0.00    -0.280 NA 
HETATM   32  C   UNL     1     -10.216  17.894  66.759  1.00  0.00    -0.360 C  
ENDBRANCH  17  26
ENDBRANCH  15  17
ENDBRANCH  13  15
ENDBRANCH  12  13
ENDBRANCH   9  12
ENDBRANCH   5   6
ENDBRANCH   4   5
TORSDOF 9
ENDMDL
MODEL      197
REMARK 921   NORMALIZED FREE ENERGY PREDICTED BY IDOCK:   -4.85 KCAL/MOL
REMARK 922        TOTAL FREE ENERGY PREDICTED BY IDOCK:   -8.87 KCAL/MOL
REMARK 923 INTER-LIGAND FREE ENERGY PREDICTED BY IDOCK:   -7.57 KCAL/MOL
REMARK 924 INTRA-LIGAND FREE ENERGY PREDICTED BY IDOCK:   -1.30 KCAL/MOL
REMARK 927      BINDING AFFINITY PREDICTED BY RF-SCORE:    0.00 PKD
ROOT
HETATM    1  C   UNL     1      -5.910  18.724  69.212  1.00  0.00    -0.237 C  
HETATM    2  C   UNL     1      -7.181  19.465  68.793  1.00  0.00    -0.390 C  
HETATM    3  C   UNL     1      -6.830  20.646  67.891  1.00  0.00    -0.335 C  
HETATM    4  C   UNL     1      -8.216  18.518  68.155  1.00  0.00    -0.295 C  
ENDROOT
BRANCH   4   5
HETATM    5  O   UNL     1      -7.748  17.914  66.941  1.00  0.00    -0.203 OA 
BRANCH   5   6
HETATM    6  C   UNL     1      -7.889  16.548  66.882  1.00  0.00    -0.228 A  
HETATM    7  C   UNL     1      -8.868  15.875  66.145  1.00  0.00    -0.363 A  
HETATM    8  C   UNL     1      -9.082  14.495  66.333  1.00  0.00    -0.217 A  
HETATM    9  C   UNL     1      -8.297  13.770  67.237  1.00  0.00    -0.186 A  
HETATM   10  C   UNL     1      -7.206  14.423  67.836  1.00  0.00    -0.169 A  
HETATM   11  C   UNL     1      -7.008  15.799  67.660  1.00  0.00    -0.194 A  
BRANCH   9  12
HETATM   12  C   UNL     1      -8.739  12.416  67.753  1.00  0.00    -0.176 C  
BRANCH  12  13
HETATM   13  N   UNL     1      -9.976  11.899  67.212  1.00  0.00    -0.186 N  
HETATM   14  H   UNL     1     -10.506  12.434  66.524  1.00  0.00     0.000 HD 
BRANCH  13  15
HETATM   15  C   UNL     1     -10.424  10.675  67.643  1.00  0.00    -0.227 C  
HETATM   16  O   UNL     1     -10.237   9.663  66.963  1.00  0.00    -0.215 OA 
BRANCH  15  17
HETATM   17  N   UNL     1     -11.062  10.632  68.889  1.00  0.00    -0.242 N  
BRANCH  17  18
HETATM   18  C   UNL     1     -12.364  11.355  68.941  1.00  0.00     0.109 C  
BRANCH  18  19
HETATM   19  C   UNL     1     -12.274  12.872  69.133  1.00  0.00    -0.083 A  
HETATM   20  C   UNL     1     -11.463  15.511  69.520  1.00  0.00    -0.333 A  
HETATM   21  C   UNL     1     -12.206  13.756  68.047  1.00  0.00    -0.179 A  
HETATM   22  C   UNL     1     -11.766  15.068  68.239  1.00  0.00    -0.338 A  
HETATM   23  F   UNL     1     -10.924  16.729  69.688  1.00  0.00    -0.310 F  
HETATM   24  C   UNL     1     -11.670  14.698  70.624  1.00  0.00    -0.339 A  
HETATM   25  C   UNL     1     -12.099  13.383  70.436  1.00  0.00    -0.405 A  
ENDBRANCH  18  19
ENDBRANCH  17  18
BRANCH  17  26
HETATM   26  C   UNL     1     -10.436  10.130  70.169  1.00  0.00    -0.255 C  
HETATM   27  C   UNL     1     -11.404   9.775  71.313  1.00  0.00    -0.445 C  
HETATM   28  C   UNL     1      -9.392   8.979  70.030  1.00  0.00    -0.198 C  
HETATM   29  C   UNL     1     -10.205   7.455  72.679  1.00  0.00    -0.227 C  
HETATM   30  C   UNL     1     -11.923   8.349  71.216  1.00  0.00    -0.288 C  
HETATM   31  N   UNL     1     -10.841   7.381  71.363  1.00  0.00    -0.228 NA 
HETATM   32  C   UNL     1      -9.895   7.548  70.262  1.00  0.00    -0.183 C  
ENDBRANCH  17  26
ENDBRANCH  15  17
ENDBRANCH  13  15
ENDBRANCH  12  13
ENDBRANCH   9  12
ENDBRANCH   5   6
ENDBRANCH   4   5
TORSDOF 9
ENDMDL
MODEL      198
REMARK 921   NORMALIZED FREE ENERGY PREDICTED BY IDOCK:   -4.84 KCAL/MOL
REMARK 922        TOTAL FREE ENERGY PREDICTED BY IDOCK:   -8.85 KCAL/MOL
REMARK 923 INTER-LIGAND FREE ENERGY PREDICTED BY IDOCK:   -8.66 KCAL/MOL
REMARK 924 INTRA-LIGAND FREE ENERGY PREDICTED BY IDOCK:   -0.18 KCAL/MOL
REMARK 927      BINDING AFFINITY PREDICTED BY RF-SCORE:    0.00 PKD
ROOT
HETATM    1  C   UNL     1      -7.990   3.363  70.583  1.00  0.00    -0.056 C  
HETATM    2  C   UNL     1      -9.518   3.409  70.633  1.00  0.00    -0.243 C  
HETATM    3  C   UNL     1     -10.024   2.751  71.915  1.00  0.00    -0.210 C  
HETATM    4  C   UNL     1     -10.058   4.840  70.448  1.00  0.00    -0.231 C  
ENDROOT
BRANCH   4   5
HETATM    5  O   UNL     1      -9.648   5.733  71.493  1.00  0.00    -0.152 OA 
BRANCH   5   6
HETATM    6  C   UNL     1     -10.466   6.822  71.679  1.00  0.00    -0.209 A  
HETATM    7  C   UNL     1     -11.835   6.757  71.953  1.00  0.00    -0.366 A  
HETATM    8  C   UNL     1     -12.632   7.918  71.892  1.00  0.00    -0.348 A  
HETATM    9  C   UNL     1     -12.060   9.158  71.588  1.00  0.00    -0.432 A  
HETATM   10  C   UNL     1     -10.660   9.234  71.490  1.00  0.00    -0.405 A  
HETATM   11  C   UNL     1      -9.873   8.075  71.533  1.00  0.00    -0.217 A  
BRANCH   9  12
HETATM   12  C   UNL     1     -12.910  10.326  71.131  1.00  0.00    -0.408 C  
BRANCH  12  13
HETATM   13  N   UNL     1     -12.644  10.827  69.800  1.00  0.00    -0.445 N  
HETATM   14  H   UNL     1     -12.976  10.321  68.979  1.00  0.00     0.000 HD 
BRANCH  13  15
HETATM   15  C   UNL     1     -11.936  11.995  69.665  1.00  0.00    -0.293 C  
HETATM   16  O   UNL     1     -11.968  12.854  70.549  1.00  0.00    -0.319 OA 
BRANCH  15  17
HETATM   17  N   UNL     1     -11.163  12.142  68.506  1.00  0.00    -0.238 N  
BRANCH  17  18
HETATM   18  C   UNL     1      -9.978  13.032  68.664  1.00  0.00    -0.107 C  
BRANCH  18  19
HETATM   19  C   UNL     1     -10.212  14.512  68.347  1.00  0.00    -0.239 A  
HETATM   20  C   UNL     1     -10.503  17.283  68.412  1.00  0.00    -0.381 A  
HETATM   21  C   UNL     1      -9.187  15.341  67.870  1.00  0.00    -0.184 A  
HETATM   22  C   UNL     1      -9.323  16.730  67.935  1.00  0.00    -0.229 A  
HETATM   23  F   UNL     1     -10.586  18.612  68.591  1.00  0.00    -0.345 F  
HETATM   24  C   UNL     1     -11.585  16.481  68.746  1.00  0.00    -0.042 A  
HETATM   25  C   UNL     1     -11.450  15.093  68.692  1.00  0.00    -0.341 A  
ENDBRANCH  18  19
ENDBRANCH  17  18
BRANCH  17  26
HETATM   26  C   UNL     1     -11.565  11.673  67.128  1.00  0.00    -0.212 C  
HETATM   27  C   UNL     1     -12.153  12.739  66.185  1.00  0.00    -0.429 C  
HETATM   28  C   UNL     1     -10.504  10.845  66.336  1.00  0.00    -0.307 C  
HETATM   29  C   UNL     1     -11.195  12.034  63.489  1.00  0.00    -0.445 C  
HETATM   30  C   UNL     1     -11.080  13.498  65.421  1.00  0.00    -0.293 C  
HETATM   31  N   UNL     1     -10.341  12.614  64.527  1.00  0.00    -0.341 NA 
HETATM   32  C   UNL     1      -9.642  11.604  65.320  1.00  0.00    -0.197 C  
ENDBRANCH  17  26
ENDBRANCH  15  17
ENDBRANCH  13  15
ENDBRANCH  12  13
ENDBRANCH   9  12
ENDBRANCH   5   6
ENDBRANCH   4   5
TORSDOF 9
ENDMDL
MODEL      199
REMARK 921   NORMALIZED FREE ENERGY PREDICTED BY IDOCK:   -4.83 KCAL/MOL
REMARK 922        TOTAL FREE ENERGY PREDICTED BY IDOCK:   -8.84 KCAL/MOL
REMARK 923 INTER-LIGAND FREE ENERGY PREDICTED BY IDOCK:   -6.66 KCAL/MOL
REMARK 924 INTRA-LIGAND FREE ENERGY PREDICTED BY IDOCK:   -2.19 KCAL/MOL
REMARK 927      BINDING AFFINITY PREDICTED BY RF-SCORE:    0.00 PKD
ROOT
HETATM    1  C   UNL     1      -7.763   9.508  63.710  1.00  0.00    -0.126 C  
HETATM    2  C   UNL     1      -8.782  10.645  63.812  1.00  0.00    -0.144 C  
HETATM    3  C   UNL     1      -9.854  10.491  62.735  1.00  0.00    -0.176 C  
HETATM    4  C   UNL     1      -9.375  10.762  65.228  1.00  0.00    -0.210 C  
ENDROOT
BRANCH   4   5
HETATM    5  O   UNL     1     -10.113   9.597  65.625  1.00  0.00    -0.296 OA 
BRANCH   5   6
HETATM    6  C   UNL     1      -9.669   8.996  66.778  1.00  0.00    -0.216 A  
HETATM    7  C   UNL     1      -8.477   9.310  67.438  1.00  0.00    -0.122 A  
HETATM    8  C   UNL     1      -7.994   8.484  68.472  1.00  0.00    -0.117 A  
HETATM    9  C   UNL     1      -8.714   7.354  68.876  1.00  0.00    -0.132 A  
HETATM   10  C   UNL     1      -9.991   7.153  68.325  1.00  0.00    -0.171 A  
HETATM   11  C   UNL     1     -10.461   7.966  67.285  1.00  0.00    -0.390 A  
BRANCH   9  12
HETATM   12  C   UNL     1      -8.059   6.249  69.679  1.00  0.00    -0.120 C  
BRANCH  12  13
HETATM   13  N   UNL     1      -7.353   6.659  70.872  1.00  0.00    -0.081 N  
HETATM   14  H   UNL     1      -6.535   7.265  70.809  1.00  0.00     0.000 HD 
BRANCH  13  15
HETATM   15  C   UNL     1      -7.803   6.216  72.091  1.00  0.00    -0.101 C  
HETATM   16  O   UNL     1      -7.039   5.642  72.871  1.00  0.00    -0.085 OA 
BRANCH  15  17
HETATM   17  N   UNL     1      -9.142   6.476  72.409  1.00  0.00    -0.134 N  
BRANCH  17  18
HETATM   18  C   UNL     1      -9.423   7.891  72.783  1.00  0.00    -0.241 C  
BRANCH  18  19
HETATM   19  C   UNL     1     -10.508   8.592  71.960  1.00  0.00    -0.407 A  
HETATM   20  C   UNL     1     -12.475  10.297  70.962  1.00  0.00    -0.384 A  
HETATM   21  C   UNL     1     -10.196   9.519  70.954  1.00  0.00    -0.356 A  
HETATM   22  C   UNL     1     -11.176  10.394  70.482  1.00  0.00    -0.395 A  
HETATM   23  F   UNL     1     -13.385  11.216  70.601  1.00  0.00    -0.205 F  
HETATM   24  C   UNL     1     -12.837   9.288  71.843  1.00  0.00    -0.485 A  
HETATM   25  C   UNL     1     -11.859   8.418  72.326  1.00  0.00    -0.456 A  
ENDBRANCH  18  19
ENDBRANCH  17  18
BRANCH  17  26
HETATM   26  C   UNL     1     -10.206   5.424  72.616  1.00  0.00    -0.185 C  
HETATM   27  C   UNL     1     -10.195   4.235  71.638  1.00  0.00    -0.160 C  
HETATM   28  C   UNL     1     -10.365   4.869  74.067  1.00  0.00    -0.298 C  
HETATM   29  C   UNL     1     -11.010   1.890  73.225  1.00  0.00    -0.161 C  
HETATM   30  C   UNL     1      -9.259   3.123  72.083  1.00  0.00    -0.107 C  
HETATM   31  N   UNL     1      -9.700   2.532  73.342  1.00  0.00    -0.094 NA 
HETATM   32  C   UNL     1      -9.654   3.549  74.390  1.00  0.00    -0.102 C  
ENDBRANCH  17  26
ENDBRANCH  15  17
ENDBRANCH  13  15
ENDBRANCH  12  13
ENDBRANCH   9  12
ENDBRANCH   5   6
ENDBRANCH   4   5
TORSDOF 9
ENDMDL
MODEL      200
REMARK 921   NORMALIZED FREE ENERGY PREDICTED BY IDOCK:   -4.83 KCAL/MOL
REMARK 922        TOTAL FREE ENERGY PREDICTED BY IDOCK:   -8.84 KCAL/MOL
REMARK 923 INTER-LIGAND FREE ENERGY PREDICTED BY IDOCK:   -6.43 KCAL/MOL
REMARK 924 INTRA-LIGAND FREE ENERGY PREDICTED BY IDOCK:   -2.41 KCAL/MOL
REMARK 927      BINDING AFFINITY PREDICTED BY RF-SCORE:    0.00 PKD
ROOT
HETATM    1  C   UNL     1     -10.902  19.203  67.152  1.00  0.00    -0.507 C  
HETATM    2  C   UNL     1      -9.641  19.779  66.505  1.00  0.00    -0.509 C  
HETATM    3  C   UNL     1      -9.187  21.029  67.255  1.00  0.00    -0.155 C  
HETATM    4  C   UNL     1      -8.525  18.724  66.379  1.00  0.00    -0.284 C  
ENDROOT
BRANCH   4   5
HETATM    5  O   UNL     1      -8.073  18.233  67.649  1.00  0.00    -0.240 OA 
BRANCH   5   6
HETATM    6  C   UNL     1      -8.038  16.864  67.761  1.00  0.00    -0.181 A  
HETATM    7  C   UNL     1      -9.007  16.088  68.404  1.00  0.00    -0.188 A  
HETATM    8  C   UNL     1      -8.768  14.726  68.673  1.00  0.00    -0.178 A  
HETATM    9  C   UNL     1      -7.571  14.120  68.274  1.00  0.00    -0.130 A  
HETATM   10  C   UNL     1      -6.687  14.867  67.476  1.00  0.00    -0.167 A  
HETATM   11  C   UNL     1      -6.920  16.226  67.225  1.00  0.00    -0.227 A  
BRANCH   9  12
HETATM   12  C   UNL     1      -7.114  12.808  68.875  1.00  0.00    -0.067 C  
BRANCH  12  13
HETATM   13  N   UNL     1      -6.280  11.976  68.036  1.00  0.00    -0.053 N  
HETATM   14  H   UNL     1      -5.271  11.942  68.177  1.00  0.00     0.000 HD 
BRANCH  13  15
HETATM   15  C   UNL     1      -6.874  11.233  67.045  1.00  0.00    -0.126 C  
HETATM   16  O   UNL     1      -6.590  11.427  65.861  1.00  0.00     0.092 OA 
BRANCH  15  17
HETATM   17  N   UNL     1      -7.775  10.239  67.446  1.00  0.00    -0.095 N  
BRANCH  17  18
HETATM   18  C   UNL     1      -9.072  10.250  66.712  1.00  0.00    -0.143 C  
BRANCH  18  19
HETATM   19  C   UNL     1      -9.883  11.545  66.816  1.00  0.00    -0.227 A  
HETATM   20  C   UNL     1     -11.777  13.580  66.608  1.00  0.00    -0.387 A  
HETATM   21  C   UNL     1     -10.799  11.766  67.855  1.00  0.00    -0.255 A  
HETATM   22  C   UNL     1     -11.768  12.765  67.732  1.00  0.00    -0.412 A  
HETATM   23  F   UNL     1     -12.780  14.455  66.434  1.00  0.00    -0.453 F  
HETATM   24  C   UNL     1     -10.786  13.476  65.643  1.00  0.00    -0.292 A  
HETATM   25  C   UNL     1      -9.822  12.473  65.756  1.00  0.00    -0.244 A  
ENDBRANCH  18  19
ENDBRANCH  17  18
BRANCH  17  26
HETATM   26  C   UNL     1      -7.616   9.362  68.665  1.00  0.00    -0.080 C  
HETATM   27  C   UNL     1      -8.644   9.562  69.794  1.00  0.00    -0.201 C  
HETATM   28  C   UNL     1      -7.459   7.830  68.406  1.00  0.00    -0.104 C  
HETATM   29  C   UNL     1      -9.111   6.884  70.931  1.00  0.00    -0.153 C  
HETATM   30  C   UNL     1      -9.906   8.741  69.586  1.00  0.00    -0.183 C  
HETATM   31  N   UNL     1      -9.620   7.311  69.627  1.00  0.00    -0.156 NA 
HETATM   32  C   UNL     1      -8.723   6.969  68.525  1.00  0.00    -0.122 C  
ENDBRANCH  17  26
ENDBRANCH  15  17
ENDBRANCH  13  15
ENDBRANCH  12  13
ENDBRANCH   9  12
ENDBRANCH   5   6
ENDBRANCH   4   5
TORSDOF 9
ENDMDL
MODEL      201
REMARK 921   NORMALIZED FREE ENERGY PREDICTED BY IDOCK:   -4.83 KCAL/MOL
REMARK 922        TOTAL FREE ENERGY PREDICTED BY IDOCK:   -8.84 KCAL/MOL
REMARK 923 INTER-LIGAND FREE ENERGY PREDICTED BY IDOCK:   -6.74 KCAL/MOL
REMARK 924 INTRA-LIGAND FREE ENERGY PREDICTED BY IDOCK:   -2.09 KCAL/MOL
REMARK 927      BINDING AFFINITY PREDICTED BY RF-SCORE:    0.00 PKD
ROOT
HETATM    1  C   UNL     1     -11.889   9.423  71.607  1.00  0.00    -0.464 C  
HETATM    2  C   UNL     1     -12.713   8.275  72.192  1.00  0.00    -0.366 C  
HETATM    3  C   UNL     1     -14.168   8.386  71.740  1.00  0.00    -0.536 C  
HETATM    4  C   UNL     1     -12.095   6.901  71.873  1.00  0.00    -0.333 C  
ENDROOT
BRANCH   4   5
HETATM    5  O   UNL     1     -12.054   6.618  70.467  1.00  0.00    -0.390 OA 
BRANCH   5   6
HETATM    6  C   UNL     1     -10.837   6.840  69.868  1.00  0.00    -0.266 A  
HETATM    7  C   UNL     1      -9.595   6.646  70.480  1.00  0.00    -0.177 A  
HETATM    8  C   UNL     1      -8.417   7.122  69.872  1.00  0.00    -0.140 A  
HETATM    9  C   UNL     1      -8.466   7.768  68.631  1.00  0.00    -0.129 A  
HETATM   10  C   UNL     1      -9.696   7.797  67.951  1.00  0.00    -0.181 A  
HETATM   11  C   UNL     1     -10.868   7.338  68.566  1.00  0.00    -0.106 A  
BRANCH   9  12
HETATM   12  C   UNL     1      -7.317   8.625  68.144  1.00  0.00    -0.091 C  
BRANCH  12  13
HETATM   13  N   UNL     1      -7.675   9.876  67.513  1.00  0.00    -0.092 N  
HETATM   14  H   UNL     1      -8.253  10.559  68.004  1.00  0.00     0.000 HD 
BRANCH  13  15
HETATM   15  C   UNL     1      -7.224  10.127  66.241  1.00  0.00    -0.111 C  
HETATM   16  O   UNL     1      -6.301  10.923  66.049  1.00  0.00    -0.130 OA 
BRANCH  15  17
HETATM   17  N   UNL     1      -7.832   9.420  65.197  1.00  0.00    -0.107 N  
BRANCH  17  18
HETATM   18  C   UNL     1      -6.907   8.544  64.424  1.00  0.00    -0.070 C  
BRANCH  18  19
HETATM   19  C   UNL     1      -7.372   7.098  64.225  1.00  0.00    -0.086 A  
HETATM   20  C   UNL     1      -8.805   4.715  64.031  1.00  0.00    -0.138 A  
HETATM   21  C   UNL     1      -7.760   6.608  62.970  1.00  0.00    -0.102 A  
HETATM   22  C   UNL     1      -8.507   5.432  62.879  1.00  0.00    -0.074 A  
HETATM   23  F   UNL     1      -9.626   3.655  63.957  1.00  0.00    -0.124 F  
HETATM   24  C   UNL     1      -8.300   5.103  65.263  1.00  0.00    -0.139 A  
HETATM   25  C   UNL     1      -7.562   6.283  65.360  1.00  0.00    -0.088 A  
ENDBRANCH  18  19
ENDBRANCH  17  18
BRANCH  17  26
HETATM   26  C   UNL     1      -9.234   9.658  64.687  1.00  0.00    -0.234 C  
HETATM   27  C   UNL     1     -10.120  10.597  65.526  1.00  0.00    -0.343 C  
HETATM   28  C   UNL     1      -9.371  10.061  63.185  1.00  0.00    -0.297 C  
HETATM   29  C   UNL     1     -11.776  12.074  63.588  1.00  0.00    -0.493 C  
HETATM   30  C   UNL     1      -9.928  12.060  65.161  1.00  0.00    -0.239 C  
HETATM   31  N   UNL     1     -10.348  12.322  63.789  1.00  0.00    -0.419 NA 
HETATM   32  C   UNL     1      -9.502  11.558  62.874  1.00  0.00    -0.277 C  
ENDBRANCH  17  26
ENDBRANCH  15  17
ENDBRANCH  13  15
ENDBRANCH  12  13
ENDBRANCH   9  12
ENDBRANCH   5   6
ENDBRANCH   4   5
TORSDOF 9
ENDMDL
MODEL      202
REMARK 921   NORMALIZED FREE ENERGY PREDICTED BY IDOCK:   -4.83 KCAL/MOL
REMARK 922        TOTAL FREE ENERGY PREDICTED BY IDOCK:   -8.83 KCAL/MOL
REMARK 923 INTER-LIGAND FREE ENERGY PREDICTED BY IDOCK:   -7.58 KCAL/MOL
REMARK 924 INTRA-LIGAND FREE ENERGY PREDICTED BY IDOCK:   -1.25 KCAL/MOL
REMARK 927      BINDING AFFINITY PREDICTED BY RF-SCORE:    0.00 PKD
ROOT
HETATM    1  C   UNL     1     -10.385  11.114  63.533  1.00  0.00    -0.446 C  
HETATM    2  C   UNL     1     -11.145  12.433  63.389  1.00  0.00    -0.465 C  
HETATM    3  C   UNL     1     -12.643  12.168  63.258  1.00  0.00    -0.492 C  
HETATM    4  C   UNL     1     -10.814  13.416  64.528  1.00  0.00    -0.406 C  
ENDROOT
BRANCH   4   5
HETATM    5  O   UNL     1     -11.204  12.929  65.819  1.00  0.00    -0.283 OA 
BRANCH   5   6
HETATM    6  C   UNL     1     -10.277  12.126  66.439  1.00  0.00    -0.220 A  
HETATM    7  C   UNL     1     -10.457  10.769  66.728  1.00  0.00    -0.305 A  
HETATM    8  C   UNL     1      -9.554  10.092  67.571  1.00  0.00    -0.180 A  
HETATM    9  C   UNL     1      -8.445  10.757  68.107  1.00  0.00    -0.125 A  
HETATM   10  C   UNL     1      -8.183  12.065  67.666  1.00  0.00    -0.155 A  
HETATM   11  C   UNL     1      -9.093  12.741  66.842  1.00  0.00    -0.221 A  
BRANCH   9  12
HETATM   12  C   UNL     1      -7.695  10.201  69.299  1.00  0.00    -0.126 C  
BRANCH  12  13
HETATM   13  N   UNL     1      -8.444  10.096  70.533  1.00  0.00    -0.056 N  
HETATM   14  H   UNL     1      -8.913  10.912  70.926  1.00  0.00     0.000 HD 
BRANCH  13  15
HETATM   15  C   UNL     1      -8.510   8.879  71.163  1.00  0.00    -0.198 C  
HETATM   16  O   UNL     1      -7.943   8.700  72.244  1.00  0.00    -0.301 OA 
BRANCH  15  17
HETATM   17  N   UNL     1      -9.270   7.879  70.543  1.00  0.00    -0.157 N  
BRANCH  17  18
HETATM   18  C   UNL     1      -8.466   6.822  69.868  1.00  0.00    -0.140 C  
BRANCH  18  19
HETATM   19  C   UNL     1      -8.962   6.391  68.484  1.00  0.00    -0.125 A  
HETATM   20  C   UNL     1      -9.300   5.268  65.955  1.00  0.00    -0.158 A  
HETATM   21  C   UNL     1      -9.811   5.288  68.309  1.00  0.00    -0.206 A  
HETATM   22  C   UNL     1      -9.951   4.708  67.046  1.00  0.00    -0.227 A  
HETATM   23  F   UNL     1      -9.335   4.639  64.769  1.00  0.00    -0.152 F  
HETATM   24  C   UNL     1      -8.580   6.447  66.082  1.00  0.00    -0.144 A  
HETATM   25  C   UNL     1      -8.429   7.025  67.343  1.00  0.00    -0.122 A  
ENDBRANCH  18  19
ENDBRANCH  17  18
BRANCH  17  26
HETATM   26  C   UNL     1     -10.764   7.933  70.325  1.00  0.00    -0.236 C  
HETATM   27  C   UNL     1     -11.610   6.922  71.121  1.00  0.00    -0.363 C  
HETATM   28  C   UNL     1     -11.435   9.337  70.440  1.00  0.00    -0.255 C  
HETATM   29  C   UNL     1     -14.110   8.330  71.794  1.00  0.00    -0.437 C  
HETATM   30  C   UNL     1     -11.972   7.427  72.508  1.00  0.00    -0.132 C  
HETATM   31  N   UNL     1     -12.823   8.610  72.434  1.00  0.00    -0.381 NA 
HETATM   32  C   UNL     1     -12.087   9.692  71.783  1.00  0.00    -0.369 C  
ENDBRANCH  17  26
ENDBRANCH  15  17
ENDBRANCH  13  15
ENDBRANCH  12  13
ENDBRANCH   9  12
ENDBRANCH   5   6
ENDBRANCH   4   5
TORSDOF 9
ENDMDL
MODEL      203
REMARK 921   NORMALIZED FREE ENERGY PREDICTED BY IDOCK:   -4.82 KCAL/MOL
REMARK 922        TOTAL FREE ENERGY PREDICTED BY IDOCK:   -8.82 KCAL/MOL
REMARK 923 INTER-LIGAND FREE ENERGY PREDICTED BY IDOCK:   -7.77 KCAL/MOL
REMARK 924 INTRA-LIGAND FREE ENERGY PREDICTED BY IDOCK:   -1.05 KCAL/MOL
REMARK 927      BINDING AFFINITY PREDICTED BY RF-SCORE:    0.00 PKD
ROOT
HETATM    1  C   UNL     1      -8.329  18.844  68.085  1.00  0.00    -0.341 C  
HETATM    2  C   UNL     1      -9.850  18.899  68.232  1.00  0.00    -0.427 C  
HETATM    3  C   UNL     1     -10.435  19.946  67.287  1.00  0.00    -0.557 C  
HETATM    4  C   UNL     1     -10.497  17.512  68.056  1.00  0.00    -0.387 C  
ENDROOT
BRANCH   4   5
HETATM    5  O   UNL     1     -10.295  16.963  66.746  1.00  0.00    -0.304 OA 
BRANCH   5   6
HETATM    6  C   UNL     1     -10.140  15.598  66.708  1.00  0.00    -0.272 A  
HETATM    7  C   UNL     1     -11.179  14.679  66.531  1.00  0.00    -0.346 A  
HETATM    8  C   UNL     1     -10.960  13.303  66.743  1.00  0.00    -0.302 A  
HETATM    9  C   UNL     1      -9.693  12.831  67.102  1.00  0.00    -0.216 A  
HETATM   10  C   UNL     1      -8.624  13.744  67.103  1.00  0.00    -0.210 A  
HETATM   11  C   UNL     1      -8.849  15.113  66.909  1.00  0.00    -0.284 A  
BRANCH   9  12
HETATM   12  C   UNL     1      -9.509  11.457  67.712  1.00  0.00    -0.165 C  
BRANCH  12  13
HETATM   13  N   UNL     1     -10.428  10.433  67.269  1.00  0.00    -0.236 N  
HETATM   14  H   UNL     1     -11.369  10.375  67.659  1.00  0.00     0.000 HD 
BRANCH  13  15
HETATM   15  C   UNL     1     -10.010   9.540  66.314  1.00  0.00    -0.274 C  
HETATM   16  O   UNL     1      -9.982   9.861  65.123  1.00  0.00    -0.318 OA 
BRANCH  15  17
HETATM   17  N   UNL     1      -9.593   8.279  66.758  1.00  0.00    -0.204 N  
BRANCH  17  18
HETATM   18  C   UNL     1     -10.668   7.458  67.384  1.00  0.00    -0.278 C  
BRANCH  18  19
HETATM   19  C   UNL     1     -10.585   7.305  68.906  1.00  0.00    -0.207 A  
HETATM   20  C   UNL     1     -10.927   7.465  71.668  1.00  0.00    -0.225 A  
HETATM   21  C   UNL     1     -11.281   6.299  69.591  1.00  0.00    -0.506 A  
HETATM   22  C   UNL     1     -11.480   6.400  70.970  1.00  0.00    -0.394 A  
HETATM   23  F   UNL     1     -11.221   7.628  72.968  1.00  0.00    -0.367 F  
HETATM   24  C   UNL     1     -10.108   8.387  71.033  1.00  0.00    -0.242 A  
HETATM   25  C   UNL     1      -9.915   8.296  69.654  1.00  0.00    -0.193 A  
ENDBRANCH  18  19
ENDBRANCH  17  18
BRANCH  17  26
HETATM   26  C   UNL     1      -8.156   7.822  66.852  1.00  0.00    -0.116 C  
HETATM   27  C   UNL     1      -7.897   6.321  66.625  1.00  0.00    -0.104 C  
HETATM   28  C   UNL     1      -7.111   8.634  66.024  1.00  0.00    -0.083 C  
HETATM   29  C   UNL     1      -5.308   6.161  65.227  1.00  0.00    -0.014 C  
HETATM   30  C   UNL     1      -7.727   5.974  65.155  1.00  0.00    -0.095 C  
HETATM   31  N   UNL     1      -6.545   6.618  64.592  1.00  0.00    -0.041 NA 
HETATM   32  C   UNL     1      -6.715   8.068  64.653  1.00  0.00    -0.059 C  
ENDBRANCH  17  26
ENDBRANCH  15  17
ENDBRANCH  13  15
ENDBRANCH  12  13
ENDBRANCH   9  12
ENDBRANCH   5   6
ENDBRANCH   4   5
TORSDOF 9
ENDMDL
MODEL      204
REMARK 921   NORMALIZED FREE ENERGY PREDICTED BY IDOCK:   -4.80 KCAL/MOL
REMARK 922        TOTAL FREE ENERGY PREDICTED BY IDOCK:   -8.79 KCAL/MOL
REMARK 923 INTER-LIGAND FREE ENERGY PREDICTED BY IDOCK:   -7.82 KCAL/MOL
REMARK 924 INTRA-LIGAND FREE ENERGY PREDICTED BY IDOCK:   -0.97 KCAL/MOL
REMARK 927      BINDING AFFINITY PREDICTED BY RF-SCORE:    0.00 PKD
ROOT
HETATM    1  C   UNL     1      -8.645  15.841  68.762  1.00  0.00    -0.203 C  
HETATM    2  C   UNL     1     -10.065  16.177  69.221  1.00  0.00    -0.260 C  
HETATM    3  C   UNL     1     -10.516  17.503  68.613  1.00  0.00    -0.338 C  
HETATM    4  C   UNL     1     -11.050  15.028  68.937  1.00  0.00    -0.266 C  
ENDROOT
BRANCH   4   5
HETATM    5  O   UNL     1     -11.194  14.747  67.537  1.00  0.00    -0.307 OA 
BRANCH   5   6
HETATM    6  C   UNL     1     -11.216  13.412  67.214  1.00  0.00    -0.295 A  
HETATM    7  C   UNL     1     -11.579  12.382  68.087  1.00  0.00    -0.395 A  
HETATM    8  C   UNL     1     -11.345  11.036  67.742  1.00  0.00    -0.365 A  
HETATM    9  C   UNL     1     -10.775  10.707  66.507  1.00  0.00    -0.218 A  
HETATM   10  C   UNL     1     -10.581  11.740  65.573  1.00  0.00    -0.323 A  
HETATM   11  C   UNL     1     -10.798  13.078  65.927  1.00  0.00    -0.291 A  
BRANCH   9  12
HETATM   12  C   UNL     1     -10.154   9.347  66.264  1.00  0.00    -0.258 C  
BRANCH  12  13
HETATM   13  N   UNL     1     -10.651   8.263  67.081  1.00  0.00    -0.404 N  
HETATM   14  H   UNL     1     -11.576   8.316  67.509  1.00  0.00     0.000 HD 
BRANCH  13  15
HETATM   15  C   UNL     1      -9.855   7.161  67.271  1.00  0.00    -0.167 C  
HETATM   16  O   UNL     1      -9.667   6.358  66.353  1.00  0.00    -0.159 OA 
BRANCH  15  17
HETATM   17  N   UNL     1      -9.252   7.017  68.526  1.00  0.00    -0.137 N  
BRANCH  17  18
HETATM   18  C   UNL     1      -9.275   8.248  69.366  1.00  0.00    -0.155 C  
BRANCH  18  19
HETATM   19  C   UNL     1     -10.418   8.338  70.382  1.00  0.00    -0.223 A  
HETATM   20  C   UNL     1     -12.848   8.684  71.703  1.00  0.00    -0.345 A  
HETATM   21  C   UNL     1     -11.204   7.226  70.716  1.00  0.00    -0.300 A  
HETATM   22  C   UNL     1     -12.437   7.406  71.348  1.00  0.00    -0.402 A  
HETATM   23  F   UNL     1     -14.083   8.869  72.196  1.00  0.00    -0.401 F  
HETATM   24  C   UNL     1     -12.016   9.779  71.518  1.00  0.00    -0.488 A  
HETATM   25  C   UNL     1     -10.788   9.605  70.879  1.00  0.00    -0.409 A  
ENDBRANCH  18  19
ENDBRANCH  17  18
BRANCH  17  26
HETATM   26  C   UNL     1      -8.420   5.834  68.961  1.00  0.00    -0.104 C  
HETATM   27  C   UNL     1      -9.156   4.486  69.085  1.00  0.00    -0.173 C  
HETATM   28  C   UNL     1      -7.085   5.598  68.187  1.00  0.00    -0.071 C  
HETATM   29  C   UNL     1      -7.218   2.439  68.226  1.00  0.00    -0.048 C  
HETATM   30  C   UNL     1      -9.219   3.733  67.766  1.00  0.00    -0.173 C  
HETATM   31  N   UNL     1      -7.886   3.359  67.305  1.00  0.00    -0.078 NA 
HETATM   32  C   UNL     1      -7.111   4.571  67.048  1.00  0.00    -0.068 C  
ENDBRANCH  17  26
ENDBRANCH  15  17
ENDBRANCH  13  15
ENDBRANCH  12  13
ENDBRANCH   9  12
ENDBRANCH   5   6
ENDBRANCH   4   5
TORSDOF 9
ENDMDL
MODEL      205
REMARK 921   NORMALIZED FREE ENERGY PREDICTED BY IDOCK:   -4.80 KCAL/MOL
REMARK 922        TOTAL FREE ENERGY PREDICTED BY IDOCK:   -8.79 KCAL/MOL
REMARK 923 INTER-LIGAND FREE ENERGY PREDICTED BY IDOCK:   -5.87 KCAL/MOL
REMARK 924 INTRA-LIGAND FREE ENERGY PREDICTED BY IDOCK:   -2.92 KCAL/MOL
REMARK 927      BINDING AFFINITY PREDICTED BY RF-SCORE:    0.00 PKD
ROOT
HETATM    1  C   UNL     1      -9.815  15.060  68.861  1.00  0.00    -0.233 C  
HETATM    2  C   UNL     1      -8.857  15.569  67.782  1.00  0.00    -0.173 C  
HETATM    3  C   UNL     1      -8.083  16.782  68.294  1.00  0.00    -0.202 C  
HETATM    4  C   UNL     1      -7.933  14.454  67.258  1.00  0.00    -0.180 C  
ENDROOT
BRANCH   4   5
HETATM    5  O   UNL     1      -7.066  13.922  68.270  1.00  0.00    -0.086 OA 
BRANCH   5   6
HETATM    6  C   UNL     1      -6.653  12.629  68.057  1.00  0.00    -0.095 A  
HETATM    7  C   UNL     1      -5.714  12.235  67.099  1.00  0.00    -0.103 A  
HETATM    8  C   UNL     1      -5.532  10.871  66.796  1.00  0.00    -0.072 A  
HETATM    9  C   UNL     1      -6.263   9.888  67.472  1.00  0.00    -0.059 A  
HETATM   10  C   UNL     1      -7.070  10.289  68.550  1.00  0.00    -0.074 A  
HETATM   11  C   UNL     1      -7.263  11.647  68.837  1.00  0.00    -0.113 A  
BRANCH   9  12
HETATM   12  C   UNL     1      -6.391   8.484  66.919  1.00  0.00    -0.056 C  
BRANCH  12  13
HETATM   13  N   UNL     1      -7.155   7.550  67.717  1.00  0.00    -0.082 N  
HETATM   14  H   UNL     1      -6.873   7.331  68.672  1.00  0.00     0.000 HD 
BRANCH  13  15
HETATM   15  C   UNL     1      -8.266   6.964  67.163  1.00  0.00    -0.118 C  
HETATM   16  O   UNL     1      -8.180   6.320  66.115  1.00  0.00    -0.111 OA 
BRANCH  15  17
HETATM   17  N   UNL     1      -9.475   7.105  67.857  1.00  0.00    -0.130 N  
BRANCH  17  18
HETATM   18  C   UNL     1     -10.540   7.824  67.102  1.00  0.00    -0.331 C  
BRANCH  18  19
HETATM   19  C   UNL     1     -10.353   9.338  66.969  1.00  0.00    -0.325 A  
HETATM   20  C   UNL     1     -10.525  12.043  66.314  1.00  0.00    -0.238 A  
HETATM   21  C   UNL     1     -10.954  10.243  67.856  1.00  0.00    -0.350 A  
HETATM   22  C   UNL     1     -11.069  11.591  67.509  1.00  0.00    -0.329 A  
HETATM   23  F   UNL     1     -10.744  13.309  65.925  1.00  0.00    -0.268 F  
HETATM   24  C   UNL     1      -9.794  11.193  65.496  1.00  0.00    -0.281 A  
HETATM   25  C   UNL     1      -9.686   9.844  65.833  1.00  0.00    -0.326 A  
ENDBRANCH  18  19
ENDBRANCH  17  18
BRANCH  17  26
HETATM   26  C   UNL     1      -9.675   6.803  69.323  1.00  0.00    -0.151 C  
HETATM   27  C   UNL     1      -9.015   7.773  70.321  1.00  0.00    -0.148 C  
HETATM   28  C   UNL     1     -11.142   6.541  69.787  1.00  0.00    -0.430 C  
HETATM   29  C   UNL     1     -10.871   7.956  72.602  1.00  0.00    -0.364 C  
HETATM   30  C   UNL     1      -9.890   8.977  70.630  1.00  0.00    -0.230 C  
HETATM   31  N   UNL     1     -11.123   8.576  71.300  1.00  0.00    -0.249 NA 
HETATM   32  C   UNL     1     -11.901   7.723  70.404  1.00  0.00     0.040 C  
ENDBRANCH  17  26
ENDBRANCH  15  17
ENDBRANCH  13  15
ENDBRANCH  12  13
ENDBRANCH   9  12
ENDBRANCH   5   6
ENDBRANCH   4   5
TORSDOF 9
ENDMDL
MODEL      206
REMARK 921   NORMALIZED FREE ENERGY PREDICTED BY IDOCK:   -4.79 KCAL/MOL
REMARK 922        TOTAL FREE ENERGY PREDICTED BY IDOCK:   -8.78 KCAL/MOL
REMARK 923 INTER-LIGAND FREE ENERGY PREDICTED BY IDOCK:   -6.66 KCAL/MOL
REMARK 924 INTRA-LIGAND FREE ENERGY PREDICTED BY IDOCK:   -2.12 KCAL/MOL
REMARK 927      BINDING AFFINITY PREDICTED BY RF-SCORE:    0.00 PKD
ROOT
HETATM    1  C   UNL     1      -8.591   3.788  70.038  1.00  0.00    -0.107 C  
HETATM    2  C   UNL     1      -8.461   2.638  69.039  1.00  0.00    -0.100 C  
HETATM    3  C   UNL     1      -9.510   1.566  69.327  1.00  0.00    -0.146 C  
HETATM    4  C   UNL     1      -8.503   3.133  67.581  1.00  0.00    -0.090 C  
ENDROOT
BRANCH   4   5
HETATM    5  O   UNL     1      -9.750   3.754  67.236  1.00  0.00    -0.204 OA 
BRANCH   5   6
HETATM    6  C   UNL     1      -9.698   5.121  67.103  1.00  0.00    -0.157 A  
HETATM    7  C   UNL     1     -10.789   5.983  67.256  1.00  0.00    -0.403 A  
HETATM    8  C   UNL     1     -10.691   7.334  66.870  1.00  0.00    -0.346 A  
HETATM    9  C   UNL     1      -9.493   7.843  66.357  1.00  0.00    -0.258 A  
HETATM   10  C   UNL     1      -8.361   7.011  66.375  1.00  0.00    -0.125 A  
HETATM   11  C   UNL     1      -8.465   5.663  66.743  1.00  0.00    -0.111 A  
BRANCH   9  12
HETATM   12  C   UNL     1      -9.460   9.142  65.578  1.00  0.00    -0.206 C  
BRANCH  12  13
HETATM   13  N   UNL     1      -8.172   9.792  65.475  1.00  0.00    -0.124 N  
HETATM   14  H   UNL     1      -7.473   9.458  64.811  1.00  0.00     0.000 HD 
BRANCH  13  15
HETATM   15  C   UNL     1      -7.907  10.866  66.288  1.00  0.00    -0.158 C  
HETATM   16  O   UNL     1      -6.747  11.242  66.474  1.00  0.00    -0.137 OA 
BRANCH  15  17
HETATM   17  N   UNL     1      -9.007  11.523  66.855  1.00  0.00    -0.173 N  
BRANCH  17  18
HETATM   18  C   UNL     1      -8.896  11.754  68.323  1.00  0.00    -0.172 C  
BRANCH  18  19
HETATM   19  C   UNL     1      -9.088  10.517  69.207  1.00  0.00    -0.161 A  
HETATM   20  C   UNL     1      -9.682   8.006  70.261  1.00  0.00    -0.175 A  
HETATM   21  C   UNL     1      -8.071   9.569  69.390  1.00  0.00    -0.116 A  
HETATM   22  C   UNL     1      -8.378   8.301  69.886  1.00  0.00    -0.125 A  
HETATM   23  F   UNL     1     -10.000   6.752  70.620  1.00  0.00    -0.184 F  
HETATM   24  C   UNL     1     -10.671   8.979  70.230  1.00  0.00    -0.262 A  
HETATM   25  C   UNL     1     -10.371  10.245  69.726  1.00  0.00    -0.287 A  
ENDBRANCH  18  19
ENDBRANCH  17  18
BRANCH  17  26
HETATM   26  C   UNL     1     -10.320  11.781  66.157  1.00  0.00    -0.230 C  
HETATM   27  C   UNL     1     -11.476  12.294  67.036  1.00  0.00    -0.419 C  
HETATM   28  C   UNL     1     -10.262  12.650  64.861  1.00  0.00    -0.295 C  
HETATM   29  C   UNL     1     -12.994  14.169  65.343  1.00  0.00    -0.270 C  
HETATM   30  C   UNL     1     -11.464  13.806  67.192  1.00  0.00    -0.340 C  
HETATM   31  N   UNL     1     -11.680  14.472  65.912  1.00  0.00    -0.361 NA 
HETATM   32  C   UNL     1     -10.579  14.144  65.009  1.00  0.00    -0.419 C  
ENDBRANCH  17  26
ENDBRANCH  15  17
ENDBRANCH  13  15
ENDBRANCH  12  13
ENDBRANCH   9  12
ENDBRANCH   5   6
ENDBRANCH   4   5
TORSDOF 9
ENDMDL
MODEL      207
REMARK 921   NORMALIZED FREE ENERGY PREDICTED BY IDOCK:   -4.78 KCAL/MOL
REMARK 922        TOTAL FREE ENERGY PREDICTED BY IDOCK:   -8.77 KCAL/MOL
REMARK 923 INTER-LIGAND FREE ENERGY PREDICTED BY IDOCK:   -7.00 KCAL/MOL
REMARK 924 INTRA-LIGAND FREE ENERGY PREDICTED BY IDOCK:   -1.77 KCAL/MOL
REMARK 927      BINDING AFFINITY PREDICTED BY RF-SCORE:    0.00 PKD
ROOT
HETATM    1  C   UNL     1      -6.905  19.680  69.207  1.00  0.00    -0.390 C  
HETATM    2  C   UNL     1      -6.959  18.685  68.047  1.00  0.00    -0.247 C  
HETATM    3  C   UNL     1      -5.547  18.359  67.565  1.00  0.00    -0.146 C  
HETATM    4  C   UNL     1      -7.770  17.425  68.404  1.00  0.00    -0.258 C  
ENDROOT
BRANCH   4   5
HETATM    5  O   UNL     1      -7.191  16.674  69.481  1.00  0.00    -0.196 OA 
BRANCH   5   6
HETATM    6  C   UNL     1      -6.748  15.419  69.138  1.00  0.00    -0.138 A  
HETATM    7  C   UNL     1      -6.517  14.979  67.831  1.00  0.00    -0.175 A  
HETATM    8  C   UNL     1      -6.294  13.614  67.565  1.00  0.00    -0.076 A  
HETATM    9  C   UNL     1      -6.268  12.681  68.607  1.00  0.00    -0.070 A  
HETATM   10  C   UNL     1      -6.326  13.162  69.926  1.00  0.00    -0.038 A  
HETATM   11  C   UNL     1      -6.565  14.518  70.187  1.00  0.00    -0.128 A  
BRANCH   9  12
HETATM   12  C   UNL     1      -6.428  11.198  68.340  1.00  0.00    -0.057 C  
BRANCH  12  13
HETATM   13  N   UNL     1      -7.645  10.589  68.828  1.00  0.00    -0.093 N  
HETATM   14  H   UNL     1      -7.738  10.327  69.809  1.00  0.00     0.000 HD 
BRANCH  13  15
HETATM   15  C   UNL     1      -8.673  10.369  67.945  1.00  0.00    -0.118 C  
HETATM   16  O   UNL     1      -8.450   9.902  66.826  1.00  0.00    -0.124 OA 
BRANCH  15  17
HETATM   17  N   UNL     1      -9.969  10.666  68.387  1.00  0.00    -0.158 N  
BRANCH  17  18
HETATM   18  C   UNL     1     -10.281  12.122  68.450  1.00  0.00    -0.210 C  
BRANCH  18  19
HETATM   19  C   UNL     1     -10.703  12.768  67.127  1.00  0.00    -0.264 A  
HETATM   20  C   UNL     1     -12.008  14.114  65.064  1.00  0.00    -0.408 A  
HETATM   21  C   UNL     1     -10.321  14.073  66.782  1.00  0.00    -0.271 A  
HETATM   22  C   UNL     1     -11.000  14.756  65.771  1.00  0.00    -0.334 A  
HETATM   23  F   UNL     1     -12.742  14.809  64.179  1.00  0.00    -0.451 F  
HETATM   24  C   UNL     1     -12.297  12.776  65.288  1.00  0.00    -0.546 A  
HETATM   25  C   UNL     1     -11.628  12.092  66.305  1.00  0.00    -0.424 A  
ENDBRANCH  18  19
ENDBRANCH  17  18
BRANCH  17  26
HETATM   26  C   UNL     1     -10.929   9.671  68.994  1.00  0.00    -0.132 C  
HETATM   27  C   UNL     1     -10.594   8.182  68.791  1.00  0.00    -0.149 C  
HETATM   28  C   UNL     1     -11.309   9.892  70.492  1.00  0.00    -0.399 C  
HETATM   29  C   UNL     1     -11.439   6.829  71.268  1.00  0.00    -0.302 C  
HETATM   30  C   UNL     1      -9.646   7.647  69.852  1.00  0.00    -0.160 C  
HETATM   31  N   UNL     1     -10.258   7.687  71.176  1.00  0.00    -0.196 NA 
HETATM   32  C   UNL     1     -10.533   9.077  71.535  1.00  0.00    -0.339 C  
ENDBRANCH  17  26
ENDBRANCH  15  17
ENDBRANCH  13  15
ENDBRANCH  12  13
ENDBRANCH   9  12
ENDBRANCH   5   6
ENDBRANCH   4   5
TORSDOF 9
ENDMDL
MODEL      208
REMARK 921   NORMALIZED FREE ENERGY PREDICTED BY IDOCK:   -4.78 KCAL/MOL
REMARK 922        TOTAL FREE ENERGY PREDICTED BY IDOCK:   -8.76 KCAL/MOL
REMARK 923 INTER-LIGAND FREE ENERGY PREDICTED BY IDOCK:   -7.83 KCAL/MOL
REMARK 924 INTRA-LIGAND FREE ENERGY PREDICTED BY IDOCK:   -0.94 KCAL/MOL
REMARK 927      BINDING AFFINITY PREDICTED BY RF-SCORE:    0.00 PKD
ROOT
HETATM    1  C   UNL     1      -8.096   4.920  72.887  1.00  0.00    -0.101 C  
HETATM    2  C   UNL     1      -9.262   3.945  72.720  1.00  0.00    -0.137 C  
HETATM    3  C   UNL     1      -9.737   3.450  74.085  1.00  0.00    -0.142 C  
HETATM    4  C   UNL     1     -10.403   4.549  71.878  1.00  0.00    -0.128 C  
ENDROOT
BRANCH   4   5
HETATM    5  O   UNL     1     -10.998   5.703  72.488  1.00  0.00    -0.235 OA 
BRANCH   5   6
HETATM    6  C   UNL     1     -10.993   6.836  71.711  1.00  0.00    -0.235 A  
HETATM    7  C   UNL     1     -10.965   6.849  70.313  1.00  0.00    -0.322 A  
HETATM    8  C   UNL     1     -10.724   8.048  69.614  1.00  0.00    -0.207 A  
HETATM    9  C   UNL     1     -10.541   9.251  70.305  1.00  0.00    -0.278 A  
HETATM   10  C   UNL     1     -10.748   9.251  71.696  1.00  0.00    -0.393 A  
HETATM   11  C   UNL     1     -10.970   8.054  72.389  1.00  0.00    -0.402 A  
BRANCH   9  12
HETATM   12  C   UNL     1      -9.901  10.451  69.640  1.00  0.00    -0.144 C  
BRANCH  12  13
HETATM   13  N   UNL     1     -10.343  10.748  68.296  1.00  0.00    -0.165 N  
HETATM   14  H   UNL     1      -9.854  10.358  67.490  1.00  0.00     0.000 HD 
BRANCH  13  15
HETATM   15  C   UNL     1     -11.433  11.565  68.125  1.00  0.00    -0.315 C  
HETATM   16  O   UNL     1     -12.369  11.538  68.928  1.00  0.00    -0.400 OA 
BRANCH  15  17
HETATM   17  N   UNL     1     -11.411  12.437  67.030  1.00  0.00    -0.337 N  
BRANCH  17  18
HETATM   18  C   UNL     1     -11.743  11.799  65.725  1.00  0.00    -0.018 C  
BRANCH  18  19
HETATM   19  C   UNL     1     -10.546  11.354  64.879  1.00  0.00    -0.368 A  
HETATM   20  C   UNL     1      -8.753  10.029  63.206  1.00  0.00    -0.221 A  
HETATM   21  C   UNL     1     -10.376  11.774  63.552  1.00  0.00    -0.490 A  
HETATM   22  C   UNL     1      -9.502  11.086  62.707  1.00  0.00    -0.361 A  
HETATM   23  F   UNL     1      -8.009   9.291  62.366  1.00  0.00    -0.115 F  
HETATM   24  C   UNL     1      -8.795   9.696  64.552  1.00  0.00    -0.257 A  
HETATM   25  C   UNL     1      -9.673  10.374  65.398  1.00  0.00    -0.325 A  
ENDBRANCH  18  19
ENDBRANCH  17  18
BRANCH  17  26
HETATM   26  C   UNL     1     -10.872  13.848  67.053  1.00  0.00    -0.285 C  
HETATM   27  C   UNL     1     -11.653  14.867  67.903  1.00  0.00    -0.364 C  
HETATM   28  C   UNL     1      -9.351  14.008  67.366  1.00  0.00    -0.220 C  
HETATM   29  C   UNL     1      -9.625  16.668  69.053  1.00  0.00    -0.246 C  
HETATM   30  C   UNL     1     -11.221  14.866  69.360  1.00  0.00    -0.283 C  
HETATM   31  N   UNL     1      -9.832  15.290  69.500  1.00  0.00    -0.239 NA 
HETATM   32  C   UNL     1      -8.967  14.332  68.816  1.00  0.00    -0.097 C  
ENDBRANCH  17  26
ENDBRANCH  15  17
ENDBRANCH  13  15
ENDBRANCH  12  13
ENDBRANCH   9  12
ENDBRANCH   5   6
ENDBRANCH   4   5
TORSDOF 9
ENDMDL
MODEL      209
REMARK 921   NORMALIZED FREE ENERGY PREDICTED BY IDOCK:   -4.77 KCAL/MOL
REMARK 922        TOTAL FREE ENERGY PREDICTED BY IDOCK:   -8.74 KCAL/MOL
REMARK 923 INTER-LIGAND FREE ENERGY PREDICTED BY IDOCK:   -6.16 KCAL/MOL
REMARK 924 INTRA-LIGAND FREE ENERGY PREDICTED BY IDOCK:   -2.58 KCAL/MOL
REMARK 927      BINDING AFFINITY PREDICTED BY RF-SCORE:    0.00 PKD
ROOT
HETATM    1  C   UNL     1      -8.732   4.492  63.910  1.00  0.00    -0.139 C  
HETATM    2  C   UNL     1      -8.734   2.964  63.841  1.00  0.00    -0.089 C  
HETATM    3  C   UNL     1      -7.516   2.469  63.065  1.00  0.00    -0.053 C  
HETATM    4  C   UNL     1      -8.848   2.324  65.238  1.00  0.00    -0.122 C  
ENDROOT
BRANCH   4   5
HETATM    5  O   UNL     1      -7.735   2.633  66.088  1.00  0.00    -0.075 OA 
BRANCH   5   6
HETATM    6  C   UNL     1      -8.068   3.188  67.300  1.00  0.00    -0.082 A  
HETATM    7  C   UNL     1      -7.238   4.023  68.054  1.00  0.00    -0.059 A  
HETATM    8  C   UNL     1      -7.571   4.348  69.384  1.00  0.00    -0.055 A  
HETATM    9  C   UNL     1      -8.752   3.868  69.960  1.00  0.00    -0.117 A  
HETATM   10  C   UNL     1      -9.657   3.180  69.135  1.00  0.00    -0.081 A  
HETATM   11  C   UNL     1      -9.315   2.843  67.818  1.00  0.00    -0.247 A  
BRANCH   9  12
HETATM   12  C   UNL     1      -8.948   3.860  71.462  1.00  0.00    -0.107 C  
BRANCH  12  13
HETATM   13  N   UNL     1      -9.934   4.780  71.983  1.00  0.00    -0.180 N  
HETATM   14  H   UNL     1     -10.783   4.433  72.430  1.00  0.00     0.000 HD 
BRANCH  13  15
HETATM   15  C   UNL     1      -9.707   6.128  71.865  1.00  0.00    -0.152 C  
HETATM   16  O   UNL     1      -8.589   6.598  72.091  1.00  0.00    -0.119 OA 
BRANCH  15  17
HETATM   17  N   UNL     1     -10.782   6.923  71.447  1.00  0.00    -0.220 N  
BRANCH  17  18
HETATM   18  C   UNL     1     -11.401   6.496  70.160  1.00  0.00    -0.402 C  
BRANCH  18  19
HETATM   19  C   UNL     1     -10.537   6.692  68.910  1.00  0.00    -0.264 A  
HETATM   20  C   UNL     1      -9.368   7.560  66.533  1.00  0.00    -0.181 A  
HETATM   21  C   UNL     1      -9.347   7.433  68.938  1.00  0.00    -0.145 A  
HETATM   22  C   UNL     1      -8.783   7.895  67.747  1.00  0.00    -0.127 A  
HETATM   23  F   UNL     1      -8.899   8.105  65.399  1.00  0.00    -0.183 F  
HETATM   24  C   UNL     1     -10.457   6.702  66.478  1.00  0.00    -0.117 A  
HETATM   25  C   UNL     1     -11.030   6.246  67.666  1.00  0.00    -0.438 A  
ENDBRANCH  18  19
ENDBRANCH  17  18
BRANCH  17  26
HETATM   26  C   UNL     1     -11.175   8.245  72.060  1.00  0.00    -0.323 C  
HETATM   27  C   UNL     1     -10.820   9.509  71.255  1.00  0.00    -0.413 C  
HETATM   28  C   UNL     1     -12.650   8.374  72.554  1.00  0.00    -0.311 C  
HETATM   29  C   UNL     1     -13.028  11.402  71.725  1.00  0.00    -0.414 C  
HETATM   30  C   UNL     1     -11.885   9.867  70.232  1.00  0.00    -0.184 C  
HETATM   31  N   UNL     1     -13.146  10.213  70.880  1.00  0.00    -0.374 NA 
HETATM   32  C   UNL     1     -13.648   9.047  71.603  1.00  0.00    -0.390 C  
ENDBRANCH  17  26
ENDBRANCH  15  17
ENDBRANCH  13  15
ENDBRANCH  12  13
ENDBRANCH   9  12
ENDBRANCH   5   6
ENDBRANCH   4   5
TORSDOF 9
ENDMDL
MODEL      210
REMARK 921   NORMALIZED FREE ENERGY PREDICTED BY IDOCK:   -4.76 KCAL/MOL
REMARK 922        TOTAL FREE ENERGY PREDICTED BY IDOCK:   -8.73 KCAL/MOL
REMARK 923 INTER-LIGAND FREE ENERGY PREDICTED BY IDOCK:   -6.61 KCAL/MOL
REMARK 924 INTRA-LIGAND FREE ENERGY PREDICTED BY IDOCK:   -2.13 KCAL/MOL
REMARK 927      BINDING AFFINITY PREDICTED BY RF-SCORE:    0.00 PKD
ROOT
HETATM    1  C   UNL     1      -5.136   6.012  69.866  1.00  0.00    -0.009 C  
HETATM    2  C   UNL     1      -5.677   7.327  70.431  1.00  0.00    -0.024 C  
HETATM    3  C   UNL     1      -6.219   8.203  69.303  1.00  0.00    -0.038 C  
HETATM    4  C   UNL     1      -6.711   7.092  71.549  1.00  0.00    -0.051 C  
ENDROOT
BRANCH   4   5
HETATM    5  O   UNL     1      -7.882   6.401  71.092  1.00  0.00    -0.109 OA 
BRANCH   5   6
HETATM    6  C   UNL     1      -9.000   7.189  70.947  1.00  0.00    -0.151 A  
HETATM    7  C   UNL     1     -10.077   6.903  70.104  1.00  0.00    -0.196 A  
HETATM    8  C   UNL     1     -11.060   7.879  69.846  1.00  0.00    -0.123 A  
HETATM    9  C   UNL     1     -10.992   9.137  70.454  1.00  0.00    -0.290 A  
HETATM   10  C   UNL     1     -10.004   9.345  71.432  1.00  0.00    -0.230 A  
HETATM   11  C   UNL     1      -9.018   8.379  71.673  1.00  0.00    -0.261 A  
BRANCH   9  12
HETATM   12  C   UNL     1     -11.775  10.316  69.915  1.00  0.00    -0.225 C  
BRANCH  12  13
HETATM   13  N   UNL     1     -11.015  11.513  69.633  1.00  0.00    -0.449 N  
HETATM   14  H   UNL     1     -11.120  12.345  70.215  1.00  0.00     0.000 HD 
BRANCH  13  15
HETATM   15  C   UNL     1     -10.149  11.510  68.568  1.00  0.00    -0.207 C  
HETATM   16  O   UNL     1      -8.935  11.377  68.746  1.00  0.00    -0.159 OA 
BRANCH  15  17
HETATM   17  N   UNL     1     -10.709  11.629  67.290  1.00  0.00    -0.227 N  
BRANCH  17  18
HETATM   18  C   UNL     1     -11.778  12.661  67.179  1.00  0.00    -0.371 C  
BRANCH  18  19
HETATM   19  C   UNL     1     -11.294  14.107  67.038  1.00  0.00    -0.346 A  
HETATM   20  C   UNL     1      -9.957  16.547  67.219  1.00  0.00    -0.264 A  
HETATM   21  C   UNL     1     -10.394  14.496  66.035  1.00  0.00    -0.320 A  
HETATM   22  C   UNL     1      -9.701  15.703  66.146  1.00  0.00    -0.348 A  
HETATM   23  F   UNL     1      -9.203  17.645  67.392  1.00  0.00    -0.239 F  
HETATM   24  C   UNL     1     -10.952  16.250  68.139  1.00  0.00    -0.343 A  
HETATM   25  C   UNL     1     -11.640  15.040  68.037  1.00  0.00    -0.356 A  
ENDBRANCH  18  19
ENDBRANCH  17  18
BRANCH  17  26
HETATM   26  C   UNL     1     -10.476  10.671  66.146  1.00  0.00    -0.194 C  
HETATM   27  C   UNL     1      -9.337  11.028  65.172  1.00  0.00    -0.249 C  
HETATM   28  C   UNL     1     -10.352   9.159  66.517  1.00  0.00    -0.269 C  
HETATM   29  C   UNL     1      -8.140   8.458  64.369  1.00  0.00    -0.158 C  
HETATM   30  C   UNL     1      -7.985  10.517  65.643  1.00  0.00    -0.158 C  
HETATM   31  N   UNL     1      -7.957   9.060  65.690  1.00  0.00    -0.101 NA 
HETATM   32  C   UNL     1      -8.935   8.592  66.670  1.00  0.00    -0.145 C  
ENDBRANCH  17  26
ENDBRANCH  15  17
ENDBRANCH  13  15
ENDBRANCH  12  13
ENDBRANCH   9  12
ENDBRANCH   5   6
ENDBRANCH   4   5
TORSDOF 9
ENDMDL
MODEL      211
REMARK 921   NORMALIZED FREE ENERGY PREDICTED BY IDOCK:   -4.76 KCAL/MOL
REMARK 922        TOTAL FREE ENERGY PREDICTED BY IDOCK:   -8.72 KCAL/MOL
REMARK 923 INTER-LIGAND FREE ENERGY PREDICTED BY IDOCK:   -6.23 KCAL/MOL
REMARK 924 INTRA-LIGAND FREE ENERGY PREDICTED BY IDOCK:   -2.49 KCAL/MOL
REMARK 927      BINDING AFFINITY PREDICTED BY RF-SCORE:    0.00 PKD
ROOT
HETATM    1  C   UNL     1      -9.984  17.383  66.969  1.00  0.00    -0.295 C  
HETATM    2  C   UNL     1      -8.981  16.244  67.158  1.00  0.00    -0.213 C  
HETATM    3  C   UNL     1      -8.612  16.104  68.633  1.00  0.00    -0.210 C  
HETATM    4  C   UNL     1      -9.486  14.924  66.545  1.00  0.00    -0.283 C  
ENDROOT
BRANCH   4   5
HETATM    5  O   UNL     1     -10.684  14.440  67.167  1.00  0.00    -0.278 OA 
BRANCH   5   6
HETATM    6  C   UNL     1     -10.588  13.179  67.706  1.00  0.00    -0.234 A  
HETATM    7  C   UNL     1     -11.662  12.438  68.208  1.00  0.00    -0.398 A  
HETATM    8  C   UNL     1     -11.435  11.263  68.950  1.00  0.00    -0.363 A  
HETATM    9  C   UNL     1     -10.132  10.800  69.170  1.00  0.00    -0.224 A  
HETATM   10  C   UNL     1      -9.079  11.457  68.511  1.00  0.00    -0.169 A  
HETATM   11  C   UNL     1      -9.307  12.635  67.788  1.00  0.00    -0.198 A  
BRANCH   9  12
HETATM   12  C   UNL     1      -9.826   9.799  70.264  1.00  0.00    -0.240 C  
BRANCH  12  13
HETATM   13  N   UNL     1      -9.419   8.481  69.829  1.00  0.00    -0.165 N  
HETATM   14  H   UNL     1      -8.432   8.226  69.799  1.00  0.00     0.000 HD 
BRANCH  13  15
HETATM   15  C   UNL     1     -10.386   7.581  69.457  1.00  0.00    -0.216 C  
HETATM   16  O   UNL     1     -11.358   7.366  70.186  1.00  0.00    -0.255 OA 
BRANCH  15  17
HETATM   17  N   UNL     1     -10.232   6.956  68.213  1.00  0.00    -0.171 N  
BRANCH  17  18
HETATM   18  C   UNL     1     -10.778   7.731  67.062  1.00  0.00    -0.246 C  
BRANCH  18  19
HETATM   19  C   UNL     1      -9.802   8.707  66.397  1.00  0.00    -0.341 A  
HETATM   20  C   UNL     1      -8.004  10.018  64.719  1.00  0.00    -0.144 A  
HETATM   21  C   UNL     1     -10.243   9.745  65.564  1.00  0.00    -0.114 A  
HETATM   22  C   UNL     1      -9.345  10.377  64.700  1.00  0.00    -0.304 A  
HETATM   23  F   UNL     1      -7.168  10.536  63.804  1.00  0.00    -0.125 F  
HETATM   24  C   UNL     1      -7.523   9.102  65.642  1.00  0.00    -0.093 A  
HETATM   25  C   UNL     1      -8.417   8.461  66.500  1.00  0.00    -0.116 A  
ENDBRANCH  18  19
ENDBRANCH  17  18
BRANCH  17  26
HETATM   26  C   UNL     1      -9.789   5.528  68.007  1.00  0.00    -0.139 C  
HETATM   27  C   UNL     1     -10.397   4.787  66.802  1.00  0.00    -0.229 C  
HETATM   28  C   UNL     1      -8.250   5.266  68.021  1.00  0.00    -0.098 C  
HETATM   29  C   UNL     1      -8.259   3.036  65.779  1.00  0.00    -0.088 C  
HETATM   30  C   UNL     1      -9.621   5.027  65.517  1.00  0.00    -0.089 C  
HETATM   31  N   UNL     1      -8.268   4.489  65.607  1.00  0.00    -0.109 NA 
HETATM   32  C   UNL     1      -7.542   5.193  66.662  1.00  0.00    -0.088 C  
ENDBRANCH  17  26
ENDBRANCH  15  17
ENDBRANCH  13  15
ENDBRANCH  12  13
ENDBRANCH   9  12
ENDBRANCH   5   6
ENDBRANCH   4   5
TORSDOF 9
ENDMDL
MODEL      212
REMARK 921   NORMALIZED FREE ENERGY PREDICTED BY IDOCK:   -4.74 KCAL/MOL
REMARK 922        TOTAL FREE ENERGY PREDICTED BY IDOCK:   -8.71 KCAL/MOL
REMARK 923 INTER-LIGAND FREE ENERGY PREDICTED BY IDOCK:   -8.30 KCAL/MOL
REMARK 924 INTRA-LIGAND FREE ENERGY PREDICTED BY IDOCK:   -0.41 KCAL/MOL
REMARK 927      BINDING AFFINITY PREDICTED BY RF-SCORE:    0.00 PKD
ROOT
HETATM    1  C   UNL     1     -12.809  15.981  73.935  1.00  0.00    -0.652 C  
HETATM    2  C   UNL     1     -12.735  15.672  72.439  1.00  0.00    -0.509 C  
HETATM    3  C   UNL     1     -11.325  15.222  72.062  1.00  0.00    -0.431 C  
HETATM    4  C   UNL     1     -13.816  14.664  72.004  1.00  0.00    -0.461 C  
ENDROOT
BRANCH   4   5
HETATM    5  O   UNL     1     -13.671  13.382  72.632  1.00  0.00    -0.687 OA 
BRANCH   5   6
HETATM    6  C   UNL     1     -13.248  12.374  71.799  1.00  0.00    -0.334 A  
HETATM    7  C   UNL     1     -13.464  11.010  72.017  1.00  0.00    -0.286 A  
HETATM    8  C   UNL     1     -12.793  10.047  71.239  1.00  0.00    -0.500 A  
HETATM    9  C   UNL     1     -11.924  10.439  70.214  1.00  0.00    -0.387 A  
HETATM   10  C   UNL     1     -11.854  11.806  69.894  1.00  0.00    -0.423 A  
HETATM   11  C   UNL     1     -12.509  12.762  70.682  1.00  0.00    -0.328 A  
BRANCH   9  12
HETATM   12  C   UNL     1     -10.906   9.479  69.636  1.00  0.00    -0.235 C  
BRANCH  12  13
HETATM   13  N   UNL     1     -10.579   8.328  70.449  1.00  0.00    -0.219 N  
HETATM   14  H   UNL     1      -9.948   8.417  71.246  1.00  0.00     0.000 HD 
BRANCH  13  15
HETATM   15  C   UNL     1     -11.133   7.114  70.127  1.00  0.00    -0.272 C  
HETATM   16  O   UNL     1     -12.247   6.800  70.554  1.00  0.00    -0.363 OA 
BRANCH  15  17
HETATM   17  N   UNL     1     -10.396   6.281  69.277  1.00  0.00    -0.198 N  
BRANCH  17  18
HETATM   18  C   UNL     1     -10.235   4.883  69.769  1.00  0.00    -0.214 C  
BRANCH  18  19
HETATM   19  C   UNL     1      -9.510   4.731  71.110  1.00  0.00    -0.218 A  
HETATM   20  C   UNL     1      -8.190   3.815  73.388  1.00  0.00    -0.088 A  
HETATM   21  C   UNL     1      -8.118   4.865  71.222  1.00  0.00    -0.105 A  
HETATM   22  C   UNL     1      -7.457   4.374  72.350  1.00  0.00    -0.077 A  
HETATM   23  F   UNL     1      -7.548   3.233  74.414  1.00  0.00    -0.052 F  
HETATM   24  C   UNL     1      -9.577   3.812  73.362  1.00  0.00    -0.136 A  
HETATM   25  C   UNL     1     -10.242   4.293  72.233  1.00  0.00    -0.244 A  
ENDBRANCH  18  19
ENDBRANCH  17  18
BRANCH  17  26
HETATM   26  C   UNL     1      -9.601   6.746  68.080  1.00  0.00    -0.117 C  
HETATM   27  C   UNL     1      -8.092   6.438  68.096  1.00  0.00    -0.113 C  
HETATM   28  C   UNL     1     -10.167   6.365  66.676  1.00  0.00    -0.216 C  
HETATM   29  C   UNL     1      -7.364   5.866  65.299  1.00  0.00    -0.076 C  
HETATM   30  C   UNL     1      -7.772   5.056  67.550  1.00  0.00    -0.091 C  
HETATM   31  N   UNL     1      -8.132   4.948  66.140  1.00  0.00    -0.107 NA 
HETATM   32  C   UNL     1      -9.577   5.120  66.000  1.00  0.00    -0.162 C  
ENDBRANCH  17  26
ENDBRANCH  15  17
ENDBRANCH  13  15
ENDBRANCH  12  13
ENDBRANCH   9  12
ENDBRANCH   5   6
ENDBRANCH   4   5
TORSDOF 9
ENDMDL
MODEL      213
REMARK 921   NORMALIZED FREE ENERGY PREDICTED BY IDOCK:   -4.72 KCAL/MOL
REMARK 922        TOTAL FREE ENERGY PREDICTED BY IDOCK:   -8.68 KCAL/MOL
REMARK 923 INTER-LIGAND FREE ENERGY PREDICTED BY IDOCK:   -7.45 KCAL/MOL
REMARK 924 INTRA-LIGAND FREE ENERGY PREDICTED BY IDOCK:   -1.23 KCAL/MOL
REMARK 927      BINDING AFFINITY PREDICTED BY RF-SCORE:    0.00 PKD
ROOT
HETATM    1  C   UNL     1     -10.353  17.654  67.065  1.00  0.00    -0.330 C  
HETATM    2  C   UNL     1      -9.954  16.595  66.036  1.00  0.00    -0.346 C  
HETATM    3  C   UNL     1      -8.574  16.030  66.367  1.00  0.00    -0.369 C  
HETATM    4  C   UNL     1     -11.025  15.497  65.893  1.00  0.00    -0.264 C  
ENDROOT
BRANCH   4   5
HETATM    5  O   UNL     1     -11.227  14.751  67.101  1.00  0.00    -0.324 OA 
BRANCH   5   6
HETATM    6  C   UNL     1     -11.230  13.385  66.944  1.00  0.00    -0.308 A  
HETATM    7  C   UNL     1     -11.799  12.477  67.841  1.00  0.00    -0.383 A  
HETATM    8  C   UNL     1     -11.547  11.096  67.717  1.00  0.00    -0.303 A  
HETATM    9  C   UNL     1     -10.749  10.609  66.676  1.00  0.00    -0.246 A  
HETATM   10  C   UNL     1     -10.332  11.514  65.685  1.00  0.00    -0.308 A  
HETATM   11  C   UNL     1     -10.570  12.888  65.821  1.00  0.00    -0.293 A  
BRANCH   9  12
HETATM   12  C   UNL     1     -10.140   9.224  66.733  1.00  0.00    -0.261 C  
BRANCH  12  13
HETATM   13  N   UNL     1     -10.479   8.424  67.890  1.00  0.00    -0.330 N  
HETATM   14  H   UNL     1     -10.585   8.857  68.807  1.00  0.00     0.000 HD 
BRANCH  13  15
HETATM   15  C   UNL     1     -10.654   7.072  67.729  1.00  0.00    -0.233 C  
HETATM   16  O   UNL     1     -11.378   6.636  66.831  1.00  0.00    -0.333 OA 
BRANCH  15  17
HETATM   17  N   UNL     1      -9.954   6.230  68.601  1.00  0.00    -0.138 N  
BRANCH  17  18
HETATM   18  C   UNL     1      -8.637   5.763  68.083  1.00  0.00    -0.108 C  
BRANCH  18  19
HETATM   19  C   UNL     1      -8.675   5.016  66.746  1.00  0.00    -0.108 A  
HETATM   20  C   UNL     1      -8.196   3.376  64.544  1.00  0.00    -0.090 A  
HETATM   21  C   UNL     1      -9.401   3.828  66.580  1.00  0.00    -0.204 A  
HETATM   22  C   UNL     1      -9.134   2.992  65.493  1.00  0.00    -0.150 A  
HETATM   23  F   UNL     1      -7.851   2.518  63.570  1.00  0.00    -0.063 F  
HETATM   24  C   UNL     1      -7.579   4.616  64.611  1.00  0.00    -0.073 A  
HETATM   25  C   UNL     1      -7.835   5.451  65.700  1.00  0.00    -0.100 A  
ENDBRANCH  18  19
ENDBRANCH  17  18
BRANCH  17  26
HETATM   26  C   UNL     1     -10.522   5.611  69.856  1.00  0.00    -0.308 C  
HETATM   27  C   UNL     1      -9.504   5.112  70.898  1.00  0.00    -0.223 C  
HETATM   28  C   UNL     1     -11.627   6.429  70.598  1.00  0.00    -0.412 C  
HETATM   29  C   UNL     1     -10.724   5.648  73.526  1.00  0.00    -0.275 C  
HETATM   30  C   UNL     1      -9.059   6.209  71.851  1.00  0.00    -0.140 C  
HETATM   31  N   UNL     1     -10.174   6.691  72.660  1.00  0.00    -0.182 NA 
HETATM   32  C   UNL     1     -11.177   7.293  71.784  1.00  0.00    -0.247 C  
ENDBRANCH  17  26
ENDBRANCH  15  17
ENDBRANCH  13  15
ENDBRANCH  12  13
ENDBRANCH   9  12
ENDBRANCH   5   6
ENDBRANCH   4   5
TORSDOF 9
ENDMDL
MODEL      214
REMARK 921   NORMALIZED FREE ENERGY PREDICTED BY IDOCK:   -4.72 KCAL/MOL
REMARK 922        TOTAL FREE ENERGY PREDICTED BY IDOCK:   -8.67 KCAL/MOL
REMARK 923 INTER-LIGAND FREE ENERGY PREDICTED BY IDOCK:   -7.45 KCAL/MOL
REMARK 924 INTRA-LIGAND FREE ENERGY PREDICTED BY IDOCK:   -1.22 KCAL/MOL
REMARK 927      BINDING AFFINITY PREDICTED BY RF-SCORE:    0.00 PKD
ROOT
HETATM    1  C   UNL     1     -12.158  14.762  64.381  1.00  0.00    -0.457 C  
HETATM    2  C   UNL     1     -10.720  14.530  64.848  1.00  0.00    -0.448 C  
HETATM    3  C   UNL     1     -10.415  15.397  66.068  1.00  0.00    -0.333 C  
HETATM    4  C   UNL     1     -10.426  13.038  65.092  1.00  0.00    -0.320 C  
ENDROOT
BRANCH   4   5
HETATM    5  O   UNL     1     -11.227  12.473  66.139  1.00  0.00    -0.292 OA 
BRANCH   5   6
HETATM    6  C   UNL     1     -10.833  11.226  66.561  1.00  0.00    -0.265 A  
HETATM    7  C   UNL     1     -10.144  10.296  65.778  1.00  0.00    -0.325 A  
HETATM    8  C   UNL     1      -9.993   8.965  66.215  1.00  0.00    -0.337 A  
HETATM    9  C   UNL     1     -10.503   8.561  67.454  1.00  0.00    -0.351 A  
HETATM   10  C   UNL     1     -11.035   9.547  68.302  1.00  0.00    -0.131 A  
HETATM   11  C   UNL     1     -11.199  10.865  67.857  1.00  0.00    -0.387 A  
BRANCH   9  12
HETATM   12  C   UNL     1     -10.713   7.096  67.778  1.00  0.00    -0.212 C  
BRANCH  12  13
HETATM   13  N   UNL     1      -9.529   6.345  68.133  1.00  0.00    -0.115 N  
HETATM   14  H   UNL     1      -8.718   6.331  67.514  1.00  0.00     0.000 HD 
BRANCH  13  15
HETATM   15  C   UNL     1      -9.518   5.649  69.316  1.00  0.00    -0.130 C  
HETATM   16  O   UNL     1     -10.081   4.555  69.406  1.00  0.00    -0.193 OA 
BRANCH  15  17
HETATM   17  N   UNL     1      -8.818   6.221  70.386  1.00  0.00    -0.146 N  
BRANCH  17  18
HETATM   18  C   UNL     1      -9.639   6.448  71.609  1.00  0.00    -0.160 C  
BRANCH  18  19
HETATM   19  C   UNL     1     -10.783   7.457  71.463  1.00  0.00    -0.243 A  
HETATM   20  C   UNL     1     -12.974   9.140  71.831  1.00  0.00    -0.404 A  
HETATM   21  C   UNL     1     -10.592   8.832  71.663  1.00  0.00    -0.401 A  
HETATM   22  C   UNL     1     -11.690   9.666  71.880  1.00  0.00    -0.225 A  
HETATM   23  F   UNL     1     -14.020   9.915  72.162  1.00  0.00    -0.365 F  
HETATM   24  C   UNL     1     -13.190   7.814  71.484  1.00  0.00    -0.356 A  
HETATM   25  C   UNL     1     -12.095   6.974  71.276  1.00  0.00    -0.403 A  
ENDBRANCH  18  19
ENDBRANCH  17  18
BRANCH  17  26
HETATM   26  C   UNL     1      -7.428   6.805  70.302  1.00  0.00    -0.090 C  
HETATM   27  C   UNL     1      -6.708   6.671  68.948  1.00  0.00    -0.056 C  
HETATM   28  C   UNL     1      -7.257   8.272  70.809  1.00  0.00    -0.055 C  
HETATM   29  C   UNL     1      -5.131   9.140  68.634  1.00  0.00    -0.034 C  
HETATM   30  C   UNL     1      -7.050   7.801  67.990  1.00  0.00    -0.085 C  
HETATM   31  N   UNL     1      -6.588   9.086  68.502  1.00  0.00    -0.054 NA 
HETATM   32  C   UNL     1      -7.285   9.383  69.752  1.00  0.00    -0.076 C  
ENDBRANCH  17  26
ENDBRANCH  15  17
ENDBRANCH  13  15
ENDBRANCH  12  13
ENDBRANCH   9  12
ENDBRANCH   5   6
ENDBRANCH   4   5
TORSDOF 9
ENDMDL
MODEL      215
REMARK 921   NORMALIZED FREE ENERGY PREDICTED BY IDOCK:   -4.69 KCAL/MOL
REMARK 922        TOTAL FREE ENERGY PREDICTED BY IDOCK:   -8.62 KCAL/MOL
REMARK 923 INTER-LIGAND FREE ENERGY PREDICTED BY IDOCK:   -7.81 KCAL/MOL
REMARK 924 INTRA-LIGAND FREE ENERGY PREDICTED BY IDOCK:   -0.81 KCAL/MOL
REMARK 927      BINDING AFFINITY PREDICTED BY RF-SCORE:    0.00 PKD
ROOT
HETATM    1  C   UNL     1      -8.813   3.262  70.778  1.00  0.00    -0.143 C  
HETATM    2  C   UNL     1      -9.017   2.542  72.112  1.00  0.00    -0.120 C  
HETATM    3  C   UNL     1      -7.673   2.306  72.796  1.00  0.00    -0.052 C  
HETATM    4  C   UNL     1     -10.023   3.278  73.017  1.00  0.00    -0.139 C  
ENDROOT
BRANCH   4   5
HETATM    5  O   UNL     1      -9.580   4.590  73.394  1.00  0.00    -0.118 OA 
BRANCH   5   6
HETATM    6  C   UNL     1     -10.471   5.601  73.127  1.00  0.00    -0.221 A  
HETATM    7  C   UNL     1     -11.747   5.422  72.582  1.00  0.00    -0.214 A  
HETATM    8  C   UNL     1     -12.490   6.528  72.126  1.00  0.00    -0.205 A  
HETATM    9  C   UNL     1     -11.979   7.825  72.239  1.00  0.00    -0.356 A  
HETATM   10  C   UNL     1     -10.778   8.002  72.947  1.00  0.00    -0.403 A  
HETATM   11  C   UNL     1     -10.032   6.899  73.383  1.00  0.00    -0.265 A  
BRANCH   9  12
HETATM   12  C   UNL     1     -12.548   8.969  71.425  1.00  0.00    -0.311 C  
BRANCH  12  13
HETATM   13  N   UNL     1     -11.779   9.374  70.269  1.00  0.00    -0.450 N  
HETATM   14  H   UNL     1     -11.256   8.686  69.726  1.00  0.00     0.000 HD 
BRANCH  13  15
HETATM   15  C   UNL     1     -11.766  10.700  69.916  1.00  0.00    -0.317 C  
HETATM   16  O   UNL     1     -12.290  11.548  70.643  1.00  0.00    -0.361 OA 
BRANCH  15  17
HETATM   17  N   UNL     1     -11.110  11.038  68.726  1.00  0.00    -0.217 N  
BRANCH  17  18
HETATM   18  C   UNL     1     -11.770  12.120  67.942  1.00  0.00    -0.336 C  
BRANCH  18  19
HETATM   19  C   UNL     1     -11.307  13.546  68.258  1.00  0.00    -0.328 A  
HETATM   20  C   UNL     1     -10.925  16.304  68.388  1.00  0.00    -0.351 A  
HETATM   21  C   UNL     1     -11.846  14.284  69.322  1.00  0.00    -0.372 A  
HETATM   22  C   UNL     1     -11.681  15.670  69.365  1.00  0.00    -0.395 A  
HETATM   23  F   UNL     1     -10.871  17.646  68.361  1.00  0.00    -0.350 F  
HETATM   24  C   UNL     1     -10.259  15.574  67.415  1.00  0.00    -0.255 A  
HETATM   25  C   UNL     1     -10.429  14.190  67.361  1.00  0.00    -0.271 A  
ENDBRANCH  18  19
ENDBRANCH  17  18
BRANCH  17  26
HETATM   26  C   UNL     1      -9.974  10.258  68.108  1.00  0.00    -0.146 C  
HETATM   27  C   UNL     1     -10.315   9.420  66.862  1.00  0.00    -0.308 C  
HETATM   28  C   UNL     1      -8.657  11.047  67.827  1.00  0.00    -0.130 C  
HETATM   29  C   UNL     1      -7.935   9.562  65.130  1.00  0.00    -0.117 C  
HETATM   30  C   UNL     1     -10.227  10.225  65.576  1.00  0.00    -0.238 C  
HETATM   31  N   UNL     1      -8.863  10.677  65.327  1.00  0.00    -0.186 NA 
HETATM   32  C   UNL     1      -8.452  11.577  66.402  1.00  0.00    -0.138 C  
ENDBRANCH  17  26
ENDBRANCH  15  17
ENDBRANCH  13  15
ENDBRANCH  12  13
ENDBRANCH   9  12
ENDBRANCH   5   6
ENDBRANCH   4   5
TORSDOF 9
ENDMDL
MODEL      216
REMARK 921   NORMALIZED FREE ENERGY PREDICTED BY IDOCK:   -4.66 KCAL/MOL
REMARK 922        TOTAL FREE ENERGY PREDICTED BY IDOCK:   -8.59 KCAL/MOL
REMARK 923 INTER-LIGAND FREE ENERGY PREDICTED BY IDOCK:   -6.61 KCAL/MOL
REMARK 924 INTRA-LIGAND FREE ENERGY PREDICTED BY IDOCK:   -1.98 KCAL/MOL
REMARK 927      BINDING AFFINITY PREDICTED BY RF-SCORE:    0.00 PKD
ROOT
HETATM    1  C   UNL     1     -10.412  11.385  63.138  1.00  0.00    -0.323 C  
HETATM    2  C   UNL     1     -10.459  12.679  63.952  1.00  0.00    -0.441 C  
HETATM    3  C   UNL     1     -11.879  13.240  63.970  1.00  0.00    -0.512 C  
HETATM    4  C   UNL     1      -9.876  12.493  65.365  1.00  0.00    -0.163 C  
ENDROOT
BRANCH   4   5
HETATM    5  O   UNL     1     -10.619  11.556  66.158  1.00  0.00    -0.250 OA 
BRANCH   5   6
HETATM    6  C   UNL     1     -10.036  10.319  66.289  1.00  0.00    -0.236 A  
HETATM    7  C   UNL     1     -10.734   9.119  66.457  1.00  0.00     0.040 A  
HETATM    8  C   UNL     1     -10.051   7.940  66.818  1.00  0.00    -0.352 A  
HETATM    9  C   UNL     1      -8.661   7.944  66.982  1.00  0.00    -0.132 A  
HETATM   10  C   UNL     1      -7.959   9.112  66.637  1.00  0.00    -0.104 A  
HETATM   11  C   UNL     1      -8.642  10.287  66.296  1.00  0.00    -0.144 A  
BRANCH   9  12
HETATM   12  C   UNL     1      -7.955   6.837  67.735  1.00  0.00    -0.113 C  
BRANCH  12  13
HETATM   13  N   UNL     1      -8.048   6.885  69.178  1.00  0.00    -0.119 N  
HETATM   14  H   UNL     1      -7.838   7.746  69.683  1.00  0.00     0.000 HD 
BRANCH  13  15
HETATM   15  C   UNL     1      -8.423   5.751  69.853  1.00  0.00    -0.123 C  
HETATM   16  O   UNL     1      -7.974   4.649  69.528  1.00  0.00    -0.062 OA 
BRANCH  15  17
HETATM   17  N   UNL     1      -9.300   5.912  70.933  1.00  0.00    -0.159 N  
BRANCH  17  18
HETATM   18  C   UNL     1     -10.744   5.891  70.564  1.00  0.00    -0.294 C  
BRANCH  18  19
HETATM   19  C   UNL     1     -11.504   7.203  70.783  1.00  0.00    -0.342 A  
HETATM   20  C   UNL     1     -12.431   9.686  71.648  1.00  0.00    -0.407 A  
HETATM   21  C   UNL     1     -11.214   8.362  70.046  1.00  0.00    -0.085 A  
HETATM   22  C   UNL     1     -11.652   9.607  70.502  1.00  0.00    -0.341 A  
HETATM   23  F   UNL     1     -12.746  10.890  72.153  1.00  0.00    -0.468 F  
HETATM   24  C   UNL     1     -12.855   8.539  72.304  1.00  0.00    -0.404 A  
HETATM   25  C   UNL     1     -12.411   7.293  71.858  1.00  0.00    -0.337 A  
ENDBRANCH  18  19
ENDBRANCH  17  18
BRANCH  17  26
HETATM   26  C   UNL     1      -8.894   6.318  72.330  1.00  0.00    -0.136 C  
HETATM   27  C   UNL     1      -7.695   5.569  72.941  1.00  0.00    -0.098 C  
HETATM   28  C   UNL     1      -8.702   7.847  72.583  1.00  0.00    -0.223 C  
HETATM   29  C   UNL     1      -6.252   7.562  74.562  1.00  0.00    -0.085 C  
HETATM   30  C   UNL     1      -6.362   6.193  72.562  1.00  0.00    -0.054 C  
HETATM   31  N   UNL     1      -6.237   7.543  73.099  1.00  0.00    -0.059 NA 
HETATM   32  C   UNL     1      -7.270   8.392  72.508  1.00  0.00    -0.080 C  
ENDBRANCH  17  26
ENDBRANCH  15  17
ENDBRANCH  13  15
ENDBRANCH  12  13
ENDBRANCH   9  12
ENDBRANCH   5   6
ENDBRANCH   4   5
TORSDOF 9
ENDMDL
MODEL      217
REMARK 921   NORMALIZED FREE ENERGY PREDICTED BY IDOCK:   -4.66 KCAL/MOL
REMARK 922        TOTAL FREE ENERGY PREDICTED BY IDOCK:   -8.58 KCAL/MOL
REMARK 923 INTER-LIGAND FREE ENERGY PREDICTED BY IDOCK:   -6.72 KCAL/MOL
REMARK 924 INTRA-LIGAND FREE ENERGY PREDICTED BY IDOCK:   -1.86 KCAL/MOL
REMARK 927      BINDING AFFINITY PREDICTED BY RF-SCORE:    0.00 PKD
ROOT
HETATM    1  C   UNL     1     -12.431  12.232  63.635  1.00  0.00    -0.647 C  
HETATM    2  C   UNL     1     -11.538  13.421  63.993  1.00  0.00    -0.429 C  
HETATM    3  C   UNL     1     -12.392  14.629  64.371  1.00  0.00    -0.420 C  
HETATM    4  C   UNL     1     -10.506  13.061  65.078  1.00  0.00    -0.328 C  
ENDROOT
BRANCH   4   5
HETATM    5  O   UNL     1     -11.111  12.693  66.326  1.00  0.00    -0.275 OA 
BRANCH   5   6
HETATM    6  C   UNL     1     -10.237  12.223  67.276  1.00  0.00    -0.210 A  
HETATM    7  C   UNL     1      -8.852  12.420  67.260  1.00  0.00    -0.192 A  
HETATM    8  C   UNL     1      -8.018  11.705  68.142  1.00  0.00    -0.141 A  
HETATM    9  C   UNL     1      -8.563  10.810  69.069  1.00  0.00    -0.143 A  
HETATM   10  C   UNL     1      -9.962  10.756  69.191  1.00  0.00    -0.206 A  
HETATM   11  C   UNL     1     -10.789  11.455  68.301  1.00  0.00    -0.253 A  
BRANCH   9  12
HETATM   12  C   UNL     1      -7.709   9.755  69.740  1.00  0.00    -0.143 C  
BRANCH  12  13
HETATM   13  N   UNL     1      -7.406   8.581  68.952  1.00  0.00    -0.084 N  
HETATM   14  H   UNL     1      -6.758   8.636  68.166  1.00  0.00     0.000 HD 
BRANCH  13  15
HETATM   15  C   UNL     1      -8.008   7.392  69.280  1.00  0.00    -0.118 C  
HETATM   16  O   UNL     1      -7.369   6.500  69.844  1.00  0.00    -0.081 OA 
BRANCH  15  17
HETATM   17  N   UNL     1      -9.370   7.261  68.979  1.00  0.00    -0.148 N  
BRANCH  17  18
HETATM   18  C   UNL     1      -9.734   7.654  67.589  1.00  0.00    -0.152 C  
BRANCH  18  19
HETATM   19  C   UNL     1      -9.626   6.546  66.536  1.00  0.00    -0.184 A  
HETATM   20  C   UNL     1      -9.029   4.254  65.066  1.00  0.00    -0.141 A  
HETATM   21  C   UNL     1     -10.546   5.490  66.470  1.00  0.00    -0.343 A  
HETATM   22  C   UNL     1     -10.229   4.330  65.760  1.00  0.00    -0.207 A  
HETATM   23  F   UNL     1      -8.670   3.096  64.488  1.00  0.00    -0.095 F  
HETATM   24  C   UNL     1      -8.176   5.346  64.994  1.00  0.00    -0.137 A  
HETATM   25  C   UNL     1      -8.483   6.504  65.709  1.00  0.00    -0.149 A  
ENDBRANCH  18  19
ENDBRANCH  17  18
BRANCH  17  26
HETATM   26  C   UNL     1     -10.461   6.990  69.988  1.00  0.00    -0.215 C  
HETATM   27  C   UNL     1     -10.806   5.511  70.244  1.00  0.00    -0.285 C  
HETATM   28  C   UNL     1     -10.333   7.713  71.365  1.00  0.00    -0.219 C  
HETATM   29  C   UNL     1     -11.469   5.333  73.110  1.00  0.00    -0.246 C  
HETATM   30  C   UNL     1      -9.916   4.879  71.301  1.00  0.00    -0.201 C  
HETATM   31  N   UNL     1     -10.108   5.511  72.602  1.00  0.00    -0.178 NA 
HETATM   32  C   UNL     1      -9.709   6.914  72.517  1.00  0.00    -0.153 C  
ENDBRANCH  17  26
ENDBRANCH  15  17
ENDBRANCH  13  15
ENDBRANCH  12  13
ENDBRANCH   9  12
ENDBRANCH   5   6
ENDBRANCH   4   5
TORSDOF 9
ENDMDL
MODEL      218
REMARK 921   NORMALIZED FREE ENERGY PREDICTED BY IDOCK:   -4.66 KCAL/MOL
REMARK 922        TOTAL FREE ENERGY PREDICTED BY IDOCK:   -8.57 KCAL/MOL
REMARK 923 INTER-LIGAND FREE ENERGY PREDICTED BY IDOCK:   -7.33 KCAL/MOL
REMARK 924 INTRA-LIGAND FREE ENERGY PREDICTED BY IDOCK:   -1.24 KCAL/MOL
REMARK 927      BINDING AFFINITY PREDICTED BY RF-SCORE:    0.00 PKD
ROOT
HETATM    1  C   UNL     1     -11.012   2.543  73.874  1.00  0.00    -0.281 C  
HETATM    2  C   UNL     1     -10.045   3.707  73.651  1.00  0.00    -0.188 C  
HETATM    3  C   UNL     1      -9.321   3.544  72.317  1.00  0.00    -0.171 C  
HETATM    4  C   UNL     1     -10.747   5.072  73.782  1.00  0.00    -0.301 C  
ENDROOT
BRANCH   4   5
HETATM    5  O   UNL     1     -11.769   5.273  72.795  1.00  0.00    -0.275 OA 
BRANCH   5   6
HETATM    6  C   UNL     1     -11.519   6.287  71.902  1.00  0.00    -0.309 A  
HETATM    7  C   UNL     1     -11.363   6.119  70.522  1.00  0.00    -0.381 A  
HETATM    8  C   UNL     1     -10.877   7.174  69.725  1.00  0.00    -0.261 A  
HETATM    9  C   UNL     1     -10.573   8.416  70.294  1.00  0.00    -0.234 A  
HETATM   10  C   UNL     1     -10.902   8.621  71.645  1.00  0.00    -0.374 A  
HETATM   11  C   UNL     1     -11.368   7.565  72.439  1.00  0.00    -0.360 A  
BRANCH   9  12
HETATM   12  C   UNL     1      -9.698   9.419  69.572  1.00  0.00    -0.183 C  
BRANCH  12  13
HETATM   13  N   UNL     1     -10.329  10.170  68.510  1.00  0.00    -0.171 N  
HETATM   14  H   UNL     1     -11.003  10.905  68.722  1.00  0.00     0.000 HD 
BRANCH  13  15
HETATM   15  C   UNL     1     -10.003   9.874  67.209  1.00  0.00    -0.196 C  
HETATM   16  O   UNL     1     -10.782   9.235  66.497  1.00  0.00    -0.107 OA 
BRANCH  15  17
HETATM   17  N   UNL     1      -8.778  10.357  66.732  1.00  0.00    -0.127 N  
BRANCH  17  18
HETATM   18  C   UNL     1      -8.733  11.833  66.532  1.00  0.00    -0.173 C  
BRANCH  18  19
HETATM   19  C   UNL     1      -9.978  12.455  65.891  1.00  0.00    -0.271 A  
HETATM   20  C   UNL     1     -11.851  14.113  64.661  1.00  0.00    -0.431 A  
HETATM   21  C   UNL     1     -10.264  12.306  64.526  1.00  0.00    -0.322 A  
HETATM   22  C   UNL     1     -11.178  13.161  63.906  1.00  0.00    -0.377 A  
HETATM   23  F   UNL     1     -12.634  15.013  64.044  1.00  0.00    -0.495 F  
HETATM   24  C   UNL     1     -11.694  14.174  66.038  1.00  0.00    -0.389 A  
HETATM   25  C   UNL     1     -10.774  13.328  66.660  1.00  0.00    -0.284 A  
ENDBRANCH  18  19
ENDBRANCH  17  18
BRANCH  17  26
HETATM   26  C   UNL     1      -7.648   9.500  66.214  1.00  0.00    -0.097 C  
HETATM   27  C   UNL     1      -8.044   8.159  65.568  1.00  0.00    -0.130 C  
HETATM   28  C   UNL     1      -6.605  10.204  65.290  1.00  0.00    -0.119 C  
HETATM   29  C   UNL     1      -6.132   7.740  63.365  1.00  0.00    -0.059 C  
HETATM   30  C   UNL     1      -8.379   8.299  64.092  1.00  0.00    -0.043 C  
HETATM   31  N   UNL     1      -7.215   8.724  63.323  1.00  0.00    -0.093 NA 
HETATM   32  C   UNL     1      -6.798  10.050  63.776  1.00  0.00    -0.126 C  
ENDBRANCH  17  26
ENDBRANCH  15  17
ENDBRANCH  13  15
ENDBRANCH  12  13
ENDBRANCH   9  12
ENDBRANCH   5   6
ENDBRANCH   4   5
TORSDOF 9
ENDMDL
MODEL      219
REMARK 921   NORMALIZED FREE ENERGY PREDICTED BY IDOCK:   -4.65 KCAL/MOL
REMARK 922        TOTAL FREE ENERGY PREDICTED BY IDOCK:   -8.56 KCAL/MOL
REMARK 923 INTER-LIGAND FREE ENERGY PREDICTED BY IDOCK:   -7.96 KCAL/MOL
REMARK 924 INTRA-LIGAND FREE ENERGY PREDICTED BY IDOCK:   -0.60 KCAL/MOL
REMARK 927      BINDING AFFINITY PREDICTED BY RF-SCORE:    0.00 PKD
ROOT
HETATM    1  C   UNL     1     -13.948  15.482  72.674  1.00  0.00    -0.617 C  
HETATM    2  C   UNL     1     -12.712  14.638  72.362  1.00  0.00    -0.429 C  
HETATM    3  C   UNL     1     -13.021  13.641  71.247  1.00  0.00    -0.399 C  
HETATM    4  C   UNL     1     -11.480  15.510  72.054  1.00  0.00    -0.428 C  
ENDROOT
BRANCH   4   5
HETATM    5  O   UNL     1     -11.650  16.324  70.885  1.00  0.00    -0.401 OA 
BRANCH   5   6
HETATM    6  C   UNL     1     -11.164  15.776  69.722  1.00  0.00    -0.330 A  
HETATM    7  C   UNL     1     -11.831  15.784  68.493  1.00  0.00    -0.233 A  
HETATM    8  C   UNL     1     -11.364  14.997  67.422  1.00  0.00    -0.338 A  
HETATM    9  C   UNL     1     -10.209  14.219  67.560  1.00  0.00    -0.240 A  
HETATM   10  C   UNL     1      -9.456  14.359  68.739  1.00  0.00    -0.161 A  
HETATM   11  C   UNL     1      -9.932  15.129  69.808  1.00  0.00    -0.149 A  
BRANCH   9  12
HETATM   12  C   UNL     1      -9.906  13.083  66.605  1.00  0.00    -0.252 C  
BRANCH  12  13
HETATM   13  N   UNL     1     -10.875  12.011  66.558  1.00  0.00    -0.265 N  
HETATM   14  H   UNL     1     -11.507  11.916  65.764  1.00  0.00     0.000 HD 
BRANCH  13  15
HETATM   15  C   UNL     1     -10.928  11.124  67.605  1.00  0.00    -0.269 C  
HETATM   16  O   UNL     1     -11.704  11.309  68.545  1.00  0.00    -0.333 OA 
BRANCH  15  17
HETATM   17  N   UNL     1     -10.095  10.001  67.532  1.00  0.00    -0.186 N  
BRANCH  17  18
HETATM   18  C   UNL     1     -10.588   8.816  68.291  1.00  0.00    -0.142 C  
BRANCH  18  19
HETATM   19  C   UNL     1     -10.457   8.902  69.815  1.00  0.00    -0.217 A  
HETATM   20  C   UNL     1     -10.221   8.399  72.546  1.00  0.00    -0.299 A  
HETATM   21  C   UNL     1      -9.210   9.013  70.448  1.00  0.00    -0.243 A  
HETATM   22  C   UNL     1      -9.091   8.727  71.810  1.00  0.00    -0.305 A  
HETATM   23  F   UNL     1     -10.088   8.005  73.823  1.00  0.00    -0.311 F  
HETATM   24  C   UNL     1     -11.483   8.433  71.971  1.00  0.00    -0.418 A  
HETATM   25  C   UNL     1     -11.606   8.708  70.608  1.00  0.00    -0.225 A  
ENDBRANCH  18  19
ENDBRANCH  17  18
BRANCH  17  26
HETATM   26  C   UNL     1      -8.696   9.992  66.964  1.00  0.00    -0.132 C  
HETATM   27  C   UNL     1      -7.710   8.983  67.583  1.00  0.00    -0.097 C  
HETATM   28  C   UNL     1      -8.575   9.911  65.410  1.00  0.00    -0.164 C  
HETATM   29  C   UNL     1      -6.001   8.073  65.361  1.00  0.00    -0.041 C  
HETATM   30  C   UNL     1      -7.793   7.612  66.932  1.00  0.00    -0.111 C  
HETATM   31  N   UNL     1      -7.397   7.668  65.529  1.00  0.00    -0.071 NA 
HETATM   32  C   UNL     1      -8.331   8.523  64.801  1.00  0.00    -0.153 C  
ENDBRANCH  17  26
ENDBRANCH  15  17
ENDBRANCH  13  15
ENDBRANCH  12  13
ENDBRANCH   9  12
ENDBRANCH   5   6
ENDBRANCH   4   5
TORSDOF 9
ENDMDL
MODEL      220
REMARK 921   NORMALIZED FREE ENERGY PREDICTED BY IDOCK:   -4.64 KCAL/MOL
REMARK 922        TOTAL FREE ENERGY PREDICTED BY IDOCK:   -8.54 KCAL/MOL
REMARK 923 INTER-LIGAND FREE ENERGY PREDICTED BY IDOCK:   -7.37 KCAL/MOL
REMARK 924 INTRA-LIGAND FREE ENERGY PREDICTED BY IDOCK:   -1.17 KCAL/MOL
REMARK 927      BINDING AFFINITY PREDICTED BY RF-SCORE:    0.00 PKD
ROOT
HETATM    1  C   UNL     1      -9.091  15.934  69.143  1.00  0.00    -0.255 C  
HETATM    2  C   UNL     1     -10.405  16.708  69.024  1.00  0.00    -0.317 C  
HETATM    3  C   UNL     1     -10.158  18.071  68.380  1.00  0.00    -0.392 C  
HETATM    4  C   UNL     1     -11.490  15.894  68.293  1.00  0.00    -0.320 C  
ENDROOT
BRANCH   4   5
HETATM    5  O   UNL     1     -11.141  15.589  66.935  1.00  0.00    -0.306 OA 
BRANCH   5   6
HETATM    6  C   UNL     1     -11.161  14.252  66.619  1.00  0.00    -0.334 A  
HETATM    7  C   UNL     1     -11.778  13.257  67.383  1.00  0.00    -0.419 A  
HETATM    8  C   UNL     1     -11.545  11.896  67.106  1.00  0.00    -0.363 A  
HETATM    9  C   UNL     1     -10.719  11.517  66.042  1.00  0.00    -0.332 A  
HETATM   10  C   UNL     1     -10.251  12.523  65.179  1.00  0.00    -0.299 A  
HETATM   11  C   UNL     1     -10.470  13.876  65.468  1.00  0.00    -0.333 A  
BRANCH   9  12
HETATM   12  C   UNL     1     -10.135  10.122  65.957  1.00  0.00    -0.248 C  
BRANCH  12  13
HETATM   13  N   UNL     1     -10.688   9.141  66.865  1.00  0.00    -0.179 N  
HETATM   14  H   UNL     1     -11.579   9.310  67.333  1.00  0.00     0.000 HD 
BRANCH  13  15
HETATM   15  C   UNL     1      -9.991   7.980  67.086  1.00  0.00    -0.235 C  
HETATM   16  O   UNL     1      -9.036   7.674  66.367  1.00  0.00    -0.161 OA 
BRANCH  15  17
HETATM   17  N   UNL     1     -10.392   7.191  68.172  1.00  0.00    -0.188 N  
BRANCH  17  18
HETATM   18  C   UNL     1     -10.685   5.771  67.829  1.00  0.00    -0.223 C  
BRANCH  18  19
HETATM   19  C   UNL     1      -9.494   4.811  67.900  1.00  0.00    -0.181 A  
HETATM   20  C   UNL     1      -7.603   2.886  68.600  1.00  0.00    -0.048 A  
HETATM   21  C   UNL     1      -9.526   3.540  67.307  1.00  0.00    -0.228 A  
HETATM   22  C   UNL     1      -8.598   2.568  67.686  1.00  0.00    -0.121 A  
HETATM   23  F   UNL     1      -6.790   1.920  69.056  1.00  0.00    -0.032 F  
HETATM   24  C   UNL     1      -7.462   4.180  69.081  1.00  0.00    -0.054 A  
HETATM   25  C   UNL     1      -8.393   5.152  68.714  1.00  0.00    -0.088 A  
ENDBRANCH  18  19
ENDBRANCH  17  18
BRANCH  17  26
HETATM   26  C   UNL     1     -10.753   7.717  69.541  1.00  0.00    -0.198 C  
HETATM   27  C   UNL     1     -11.612   6.795  70.426  1.00  0.00    -0.422 C  
HETATM   28  C   UNL     1      -9.579   8.277  70.405  1.00  0.00    -0.174 C  
HETATM   29  C   UNL     1     -10.667   7.229  73.183  1.00  0.00    -0.365 C  
HETATM   30  C   UNL     1     -10.777   5.805  71.221  1.00  0.00    -0.258 C  
HETATM   31  N   UNL     1      -9.909   6.489  72.173  1.00  0.00    -0.159 NA 
HETATM   32  C   UNL     1      -8.963   7.329  71.442  1.00  0.00    -0.138 C  
ENDBRANCH  17  26
ENDBRANCH  15  17
ENDBRANCH  13  15
ENDBRANCH  12  13
ENDBRANCH   9  12
ENDBRANCH   5   6
ENDBRANCH   4   5
TORSDOF 9
ENDMDL
MODEL      221
REMARK 921   NORMALIZED FREE ENERGY PREDICTED BY IDOCK:   -4.63 KCAL/MOL
REMARK 922        TOTAL FREE ENERGY PREDICTED BY IDOCK:   -8.53 KCAL/MOL
REMARK 923 INTER-LIGAND FREE ENERGY PREDICTED BY IDOCK:   -6.70 KCAL/MOL
REMARK 924 INTRA-LIGAND FREE ENERGY PREDICTED BY IDOCK:   -1.83 KCAL/MOL
REMARK 927      BINDING AFFINITY PREDICTED BY RF-SCORE:    0.00 PKD
ROOT
HETATM    1  C   UNL     1      -8.342   2.583  62.428  1.00  0.00    -0.073 C  
HETATM    2  C   UNL     1      -8.731   3.704  63.394  1.00  0.00    -0.096 C  
HETATM    3  C   UNL     1     -10.143   3.474  63.928  1.00  0.00    -0.205 C  
HETATM    4  C   UNL     1      -7.693   3.882  64.518  1.00  0.00    -0.081 C  
ENDROOT
BRANCH   4   5
HETATM    5  O   UNL     1      -7.573   2.725  65.358  1.00  0.00    -0.074 OA 
BRANCH   5   6
HETATM    6  C   UNL     1      -7.949   2.917  66.666  1.00  0.00    -0.077 A  
HETATM    7  C   UNL     1      -8.892   2.144  67.350  1.00  0.00    -0.158 A  
HETATM    8  C   UNL     1      -9.384   2.559  68.603  1.00  0.00    -0.242 A  
HETATM    9  C   UNL     1      -8.913   3.736  69.197  1.00  0.00    -0.176 A  
HETATM   10  C   UNL     1      -7.842   4.404  68.581  1.00  0.00    -0.074 A  
HETATM   11  C   UNL     1      -7.368   3.998  67.327  1.00  0.00    -0.068 A  
BRANCH   9  12
HETATM   12  C   UNL     1      -9.678   4.412  70.316  1.00  0.00    -0.211 C  
BRANCH  12  13
HETATM   13  N   UNL     1      -9.553   5.850  70.397  1.00  0.00    -0.165 N  
HETATM   14  H   UNL     1      -8.738   6.278  70.837  1.00  0.00     0.000 HD 
BRANCH  13  15
HETATM   15  C   UNL     1     -10.553   6.630  69.870  1.00  0.00    -0.226 C  
HETATM   16  O   UNL     1     -11.708   6.203  69.796  1.00  0.00    -0.340 OA 
BRANCH  15  17
HETATM   17  N   UNL     1     -10.205   7.923  69.460  1.00  0.00    -0.204 N  
BRANCH  17  18
HETATM   18  C   UNL     1     -10.087   8.911  70.570  1.00  0.00    -0.205 C  
BRANCH  18  19
HETATM   19  C   UNL     1     -11.284   9.849  70.755  1.00  0.00    -0.427 A  
HETATM   20  C   UNL     1     -13.129  11.749  71.625  1.00  0.00    -0.338 A  
HETATM   21  C   UNL     1     -11.343  11.109  70.141  1.00  0.00    -0.295 A  
HETATM   22  C   UNL     1     -12.245  12.070  70.603  1.00  0.00    -0.409 A  
HETATM   23  F   UNL     1     -13.908  12.708  72.151  1.00  0.00    -0.510 F  
HETATM   24  C   UNL     1     -13.189  10.462  72.139  1.00  0.00    -0.418 A  
HETATM   25  C   UNL     1     -12.283   9.502  71.688  1.00  0.00    -0.477 A  
ENDBRANCH  18  19
ENDBRANCH  17  18
BRANCH  17  26
HETATM   26  C   UNL     1     -10.178   8.404  68.029  1.00  0.00    -0.212 C  
HETATM   27  C   UNL     1      -8.924   9.183  67.590  1.00  0.00    -0.130 C  
HETATM   28  C   UNL     1     -10.510   7.344  66.931  1.00  0.00    -0.379 C  
HETATM   29  C   UNL     1      -8.450   8.417  64.785  1.00  0.00    -0.101 C  
HETATM   30  C   UNL     1      -7.804   8.270  67.119  1.00  0.00    -0.097 C  
HETATM   31  N   UNL     1      -8.191   7.533  65.921  1.00  0.00    -0.126 NA 
HETATM   32  C   UNL     1      -9.323   6.664  66.237  1.00  0.00    -0.105 C  
ENDBRANCH  17  26
ENDBRANCH  15  17
ENDBRANCH  13  15
ENDBRANCH  12  13
ENDBRANCH   9  12
ENDBRANCH   5   6
ENDBRANCH   4   5
TORSDOF 9
ENDMDL
MODEL      222
REMARK 921   NORMALIZED FREE ENERGY PREDICTED BY IDOCK:   -4.62 KCAL/MOL
REMARK 922        TOTAL FREE ENERGY PREDICTED BY IDOCK:   -8.52 KCAL/MOL
REMARK 923 INTER-LIGAND FREE ENERGY PREDICTED BY IDOCK:   -5.85 KCAL/MOL
REMARK 924 INTRA-LIGAND FREE ENERGY PREDICTED BY IDOCK:   -2.67 KCAL/MOL
REMARK 927      BINDING AFFINITY PREDICTED BY RF-SCORE:    0.00 PKD
ROOT
HETATM    1  C   UNL     1     -11.401  12.247  68.255  1.00  0.00    -0.339 C  
HETATM    2  C   UNL     1     -11.435  12.667  66.785  1.00  0.00    -0.410 C  
HETATM    3  C   UNL     1     -12.089  14.040  66.643  1.00  0.00    -0.487 C  
HETATM    4  C   UNL     1     -10.040  12.604  66.134  1.00  0.00    -0.257 C  
ENDROOT
BRANCH   4   5
HETATM    5  O   UNL     1      -9.102  13.509  66.734  1.00  0.00    -0.243 OA 
BRANCH   5   6
HETATM    6  C   UNL     1      -8.010  12.909  67.314  1.00  0.00    -0.149 A  
HETATM    7  C   UNL     1      -7.250  11.891  66.730  1.00  0.00    -0.007 A  
HETATM    8  C   UNL     1      -6.302  11.180  67.492  1.00  0.00    -0.065 A  
HETATM    9  C   UNL     1      -6.083  11.502  68.836  1.00  0.00    -0.052 A  
HETATM   10  C   UNL     1      -6.725  12.639  69.356  1.00  0.00    -0.022 A  
HETATM   11  C   UNL     1      -7.680  13.333  68.601  1.00  0.00    -0.080 A  
BRANCH   9  12
HETATM   12  C   UNL     1      -5.389  10.536  69.774  1.00  0.00    -0.039 C  
BRANCH  12  13
HETATM   13  N   UNL     1      -6.061   9.277  70.006  1.00  0.00    -0.040 N  
HETATM   14  H   UNL     1      -5.874   8.470  69.411  1.00  0.00     0.000 HD 
BRANCH  13  15
HETATM   15  C   UNL     1      -6.958   9.189  71.042  1.00  0.00    -0.099 C  
HETATM   16  O   UNL     1      -6.624   9.501  72.189  1.00  0.00    -0.281 OA 
BRANCH  15  17
HETATM   17  N   UNL     1      -8.256   8.769  70.729  1.00  0.00    -0.139 N  
BRANCH  17  18
HETATM   18  C   UNL     1      -8.888   9.507  69.599  1.00  0.00    -0.187 C  
BRANCH  18  19
HETATM   19  C   UNL     1      -8.889   8.782  68.250  1.00  0.00    -0.141 A  
HETATM   20  C   UNL     1      -8.567   8.002  65.593  1.00  0.00    -0.145 A  
HETATM   21  C   UNL     1      -7.892   7.860  67.901  1.00  0.00    -0.127 A  
HETATM   22  C   UNL     1      -7.712   7.497  66.564  1.00  0.00    -0.097 A  
HETATM   23  F   UNL     1      -8.318   7.752  64.298  1.00  0.00    -0.138 F  
HETATM   24  C   UNL     1      -9.652   8.794  65.939  1.00  0.00    -0.255 A  
HETATM   25  C   UNL     1      -9.830   9.167  67.272  1.00  0.00    -0.244 A  
ENDBRANCH  18  19
ENDBRANCH  17  18
BRANCH  17  26
HETATM   26  C   UNL     1      -9.093   7.833  71.569  1.00  0.00    -0.133 C  
HETATM   27  C   UNL     1     -10.379   8.422  72.178  1.00  0.00    -0.397 C  
HETATM   28  C   UNL     1      -9.435   6.447  70.937  1.00  0.00    -0.185 C  
HETATM   29  C   UNL     1     -12.355   6.236  72.133  1.00  0.00    -0.140 C  
HETATM   30  C   UNL     1     -11.563   8.344  71.228  1.00  0.00    -0.283 C  
HETATM   31  N   UNL     1     -11.919   6.960  70.938  1.00  0.00    -0.370 NA 
HETATM   32  C   UNL     1     -10.803   6.310  70.254  1.00  0.00    -0.304 C  
ENDBRANCH  17  26
ENDBRANCH  15  17
ENDBRANCH  13  15
ENDBRANCH  12  13
ENDBRANCH   9  12
ENDBRANCH   5   6
ENDBRANCH   4   5
TORSDOF 9
ENDMDL
MODEL      223
REMARK 921   NORMALIZED FREE ENERGY PREDICTED BY IDOCK:   -4.62 KCAL/MOL
REMARK 922        TOTAL FREE ENERGY PREDICTED BY IDOCK:   -8.52 KCAL/MOL
REMARK 923 INTER-LIGAND FREE ENERGY PREDICTED BY IDOCK:   -6.56 KCAL/MOL
REMARK 924 INTRA-LIGAND FREE ENERGY PREDICTED BY IDOCK:   -1.95 KCAL/MOL
REMARK 927      BINDING AFFINITY PREDICTED BY RF-SCORE:    0.00 PKD
ROOT
HETATM    1  C   UNL     1     -11.563   8.944  70.607  1.00  0.00    -0.251 C  
HETATM    2  C   UNL     1     -11.728   7.926  71.737  1.00  0.00    -0.329 C  
HETATM    3  C   UNL     1     -13.209   7.639  71.976  1.00  0.00    -0.207 C  
HETATM    4  C   UNL     1     -10.908   6.646  71.485  1.00  0.00    -0.239 C  
ENDROOT
BRANCH   4   5
HETATM    5  O   UNL     1     -11.327   5.935  70.312  1.00  0.00    -0.322 OA 
BRANCH   5   6
HETATM    6  C   UNL     1     -10.555   6.153  69.196  1.00  0.00    -0.282 A  
HETATM    7  C   UNL     1      -9.166   6.314  69.201  1.00  0.00    -0.128 A  
HETATM    8  C   UNL     1      -8.495   6.767  68.049  1.00  0.00    -0.120 A  
HETATM    9  C   UNL     1      -9.203   7.032  66.871  1.00  0.00    -0.174 A  
HETATM   10  C   UNL     1     -10.567   6.698  66.830  1.00  0.00    -0.376 A  
HETATM   11  C   UNL     1     -11.235   6.264  67.984  1.00  0.00    -0.223 A  
BRANCH   9  12
HETATM   12  C   UNL     1      -8.603   7.877  65.766  1.00  0.00    -0.147 C  
BRANCH  12  13
HETATM   13  N   UNL     1      -7.675   8.906  66.180  1.00  0.00    -0.097 N  
HETATM   14  H   UNL     1      -7.021   8.739  66.945  1.00  0.00     0.000 HD 
BRANCH  13  15
HETATM   15  C   UNL     1      -7.692  10.112  65.524  1.00  0.00    -0.145 C  
HETATM   16  O   UNL     1      -7.201  10.221  64.398  1.00  0.00    -0.132 OA 
BRANCH  15  17
HETATM   17  N   UNL     1      -8.316  11.184  66.175  1.00  0.00    -0.165 N  
BRANCH  17  18
HETATM   18  C   UNL     1      -7.424  11.955  67.087  1.00  0.00    -0.146 C  
BRANCH  18  19
HETATM   19  C   UNL     1      -7.269  11.388  68.501  1.00  0.00    -0.093 A  
HETATM   20  C   UNL     1      -6.777   9.820  70.753  1.00  0.00    -0.077 A  
HETATM   21  C   UNL     1      -6.105  11.585  69.258  1.00  0.00    -0.068 A  
HETATM   22  C   UNL     1      -5.846  10.774  70.365  1.00  0.00    -0.118 A  
HETATM   23  F   UNL     1      -6.472   8.961  71.739  1.00  0.00    -0.070 F  
HETATM   24  C   UNL     1      -8.001   9.714  70.109  1.00  0.00    -0.189 A  
HETATM   25  C   UNL     1      -8.261  10.514  68.996  1.00  0.00    -0.145 A  
ENDBRANCH  18  19
ENDBRANCH  17  18
BRANCH  17  26
HETATM   26  C   UNL     1      -9.804  11.443  66.192  1.00  0.00    -0.222 C  
HETATM   27  C   UNL     1     -10.259  12.785  66.796  1.00  0.00    -0.245 C  
HETATM   28  C   UNL     1     -10.565  11.223  64.848  1.00  0.00    -0.364 C  
HETATM   29  C   UNL     1     -12.592  13.624  65.203  1.00  0.00    -0.430 C  
HETATM   30  C   UNL     1     -10.252  13.915  65.779  1.00  0.00    -0.318 C  
HETATM   31  N   UNL     1     -11.215  13.670  64.710  1.00  0.00    -0.344 NA 
HETATM   32  C   UNL     1     -10.828  12.463  63.983  1.00  0.00    -0.397 C  
ENDBRANCH  17  26
ENDBRANCH  15  17
ENDBRANCH  13  15
ENDBRANCH  12  13
ENDBRANCH   9  12
ENDBRANCH   5   6
ENDBRANCH   4   5
TORSDOF 9
ENDMDL
MODEL      224
REMARK 921   NORMALIZED FREE ENERGY PREDICTED BY IDOCK:   -4.62 KCAL/MOL
REMARK 922        TOTAL FREE ENERGY PREDICTED BY IDOCK:   -8.51 KCAL/MOL
REMARK 923 INTER-LIGAND FREE ENERGY PREDICTED BY IDOCK:   -6.51 KCAL/MOL
REMARK 924 INTRA-LIGAND FREE ENERGY PREDICTED BY IDOCK:   -2.00 KCAL/MOL
REMARK 927      BINDING AFFINITY PREDICTED BY RF-SCORE:    0.00 PKD
ROOT
HETATM    1  C   UNL     1     -10.297  12.691  66.502  1.00  0.00    -0.256 C  
HETATM    2  C   UNL     1      -9.045  11.817  66.405  1.00  0.00    -0.215 C  
HETATM    3  C   UNL     1      -8.555  11.441  67.802  1.00  0.00    -0.129 C  
HETATM    4  C   UNL     1      -9.267  10.589  65.503  1.00  0.00    -0.188 C  
ENDROOT
BRANCH   4   5
HETATM    5  O   UNL     1     -10.274   9.700  66.006  1.00  0.00    -0.265 OA 
BRANCH   5   6
HETATM    6  C   UNL     1      -9.812   8.721  66.852  1.00  0.00    -0.229 A  
HETATM    7  C   UNL     1      -8.601   8.038  66.703  1.00  0.00    -0.141 A  
HETATM    8  C   UNL     1      -8.324   6.896  67.479  1.00  0.00    -0.123 A  
HETATM    9  C   UNL     1      -9.242   6.444  68.434  1.00  0.00    -0.120 A  
HETATM   10  C   UNL     1     -10.370   7.241  68.694  1.00  0.00    -0.208 A  
HETATM   11  C   UNL     1     -10.651   8.367  67.908  1.00  0.00    -0.218 A  
BRANCH   9  12
HETATM   12  C   UNL     1      -9.171   5.037  68.990  1.00  0.00    -0.114 C  
BRANCH  12  13
HETATM   13  N   UNL     1      -8.487   4.885  70.256  1.00  0.00    -0.090 N  
HETATM   14  H   UNL     1      -7.472   4.975  70.312  1.00  0.00     0.000 HD 
BRANCH  13  15
HETATM   15  C   UNL     1      -9.229   4.615  71.379  1.00  0.00    -0.142 C  
HETATM   16  O   UNL     1     -10.027   3.675  71.392  1.00  0.00    -0.171 OA 
BRANCH  15  17
HETATM   17  N   UNL     1      -9.010   5.427  72.498  1.00  0.00    -0.134 N  
BRANCH  17  18
HETATM   18  C   UNL     1     -10.252   5.968  73.120  1.00  0.00    -0.197 C  
BRANCH  18  19
HETATM   19  C   UNL     1     -11.042   6.964  72.265  1.00  0.00    -0.284 A  
HETATM   20  C   UNL     1     -12.795   8.894  71.278  1.00  0.00    -0.229 A  
HETATM   21  C   UNL     1     -10.600   8.278  72.054  1.00  0.00    -0.365 A  
HETATM   22  C   UNL     1     -11.490   9.249  71.591  1.00  0.00    -0.468 A  
HETATM   23  F   UNL     1     -13.681   9.849  70.953  1.00  0.00    -0.420 F  
HETATM   24  C   UNL     1     -13.208   7.571  71.336  1.00  0.00    -0.368 A  
HETATM   25  C   UNL     1     -12.325   6.598  71.807  1.00  0.00    -0.385 A  
ENDBRANCH  18  19
ENDBRANCH  17  18
BRANCH  17  26
HETATM   26  C   UNL     1      -7.665   5.949  72.944  1.00  0.00    -0.100 C  
HETATM   27  C   UNL     1      -6.938   6.894  71.969  1.00  0.00    -0.069 C  
HETATM   28  C   UNL     1      -7.596   6.568  74.375  1.00  0.00    -0.098 C  
HETATM   29  C   UNL     1      -5.540   8.862  73.660  1.00  0.00    -0.108 C  
HETATM   30  C   UNL     1      -7.360   8.345  72.140  1.00  0.00    -0.098 C  
HETATM   31  N   UNL     1      -6.989   8.852  73.456  1.00  0.00    -0.349 NA 
HETATM   32  C   UNL     1      -7.704   8.095  74.481  1.00  0.00    -0.235 C  
ENDBRANCH  17  26
ENDBRANCH  15  17
ENDBRANCH  13  15
ENDBRANCH  12  13
ENDBRANCH   9  12
ENDBRANCH   5   6
ENDBRANCH   4   5
TORSDOF 9
ENDMDL
MODEL      225
REMARK 921   NORMALIZED FREE ENERGY PREDICTED BY IDOCK:   -4.60 KCAL/MOL
REMARK 922        TOTAL FREE ENERGY PREDICTED BY IDOCK:   -8.48 KCAL/MOL
REMARK 923 INTER-LIGAND FREE ENERGY PREDICTED BY IDOCK:   -6.63 KCAL/MOL
REMARK 924 INTRA-LIGAND FREE ENERGY PREDICTED BY IDOCK:   -1.85 KCAL/MOL
REMARK 927      BINDING AFFINITY PREDICTED BY RF-SCORE:    0.00 PKD
ROOT
HETATM    1  C   UNL     1     -11.614  13.242  69.431  1.00  0.00    -0.364 C  
HETATM    2  C   UNL     1     -12.258  14.445  68.740  1.00  0.00    -0.200 C  
HETATM    3  C   UNL     1     -11.810  15.742  69.411  1.00  0.00    -0.361 C  
HETATM    4  C   UNL     1     -12.001  14.443  67.221  1.00  0.00    -0.377 C  
ENDROOT
BRANCH   4   5
HETATM    5  O   UNL     1     -10.610  14.554  66.888  1.00  0.00    -0.274 OA 
BRANCH   5   6
HETATM    6  C   UNL     1      -9.988  13.364  66.597  1.00  0.00    -0.277 A  
HETATM    7  C   UNL     1     -10.565  12.313  65.877  1.00  0.00    -0.290 A  
HETATM    8  C   UNL     1      -9.941  11.051  65.833  1.00  0.00    -0.289 A  
HETATM    9  C   UNL     1      -8.720  10.837  66.481  1.00  0.00    -0.154 A  
HETATM   10  C   UNL     1      -8.070  11.946  67.049  1.00  0.00    -0.167 A  
HETATM   11  C   UNL     1      -8.701  13.196  67.106  1.00  0.00    -0.214 A  
BRANCH   9  12
HETATM   12  C   UNL     1      -8.228   9.438  66.791  1.00  0.00    -0.112 C  
BRANCH  12  13
HETATM   13  N   UNL     1      -7.244   9.325  67.845  1.00  0.00    -0.079 N  
HETATM   14  H   UNL     1      -6.249   9.420  67.640  1.00  0.00     0.000 HD 
BRANCH  13  15
HETATM   15  C   UNL     1      -7.675   9.088  69.127  1.00  0.00    -0.092 C  
HETATM   16  O   UNL     1      -7.516   9.935  70.009  1.00  0.00    -0.134 OA 
BRANCH  15  17
HETATM   17  N   UNL     1      -8.323   7.870  69.366  1.00  0.00    -0.130 N  
BRANCH  17  18
HETATM   18  C   UNL     1      -7.506   6.664  69.054  1.00  0.00    -0.095 C  
BRANCH  18  19
HETATM   19  C   UNL     1      -8.053   5.760  67.945  1.00  0.00    -0.098 A  
HETATM   20  C   UNL     1      -9.578   4.504  65.978  1.00  0.00    -0.189 A  
HETATM   21  C   UNL     1      -7.805   6.015  66.588  1.00  0.00    -0.101 A  
HETATM   22  C   UNL     1      -8.594   5.410  65.607  1.00  0.00    -0.146 A  
HETATM   23  F   UNL     1     -10.415   4.018  65.047  1.00  0.00    -0.218 F  
HETATM   24  C   UNL     1      -9.736   4.124  67.303  1.00  0.00    -0.214 A  
HETATM   25  C   UNL     1      -8.957   4.734  68.288  1.00  0.00    -0.132 A  
ENDBRANCH  18  19
ENDBRANCH  17  18
BRANCH  17  26
HETATM   26  C   UNL     1      -9.793   7.714  69.677  1.00  0.00    -0.181 C  
HETATM   27  C   UNL     1     -10.152   7.327  71.123  1.00  0.00    -0.190 C  
HETATM   28  C   UNL     1     -10.727   8.883  69.232  1.00  0.00    -0.177 C  
HETATM   29  C   UNL     1     -12.666   8.742  71.727  1.00  0.00    -0.359 C  
HETATM   30  C   UNL     1     -10.267   8.535  72.039  1.00  0.00    -0.321 C  
HETATM   31  N   UNL     1     -11.365   9.405  71.631  1.00  0.00    -0.389 NA 
HETATM   32  C   UNL     1     -11.089   9.929  70.295  1.00  0.00    -0.308 C  
ENDBRANCH  17  26
ENDBRANCH  15  17
ENDBRANCH  13  15
ENDBRANCH  12  13
ENDBRANCH   9  12
ENDBRANCH   5   6
ENDBRANCH   4   5
TORSDOF 9
ENDMDL
MODEL      226
REMARK 921   NORMALIZED FREE ENERGY PREDICTED BY IDOCK:   -4.59 KCAL/MOL
REMARK 922        TOTAL FREE ENERGY PREDICTED BY IDOCK:   -8.47 KCAL/MOL
REMARK 923 INTER-LIGAND FREE ENERGY PREDICTED BY IDOCK:   -7.39 KCAL/MOL
REMARK 924 INTRA-LIGAND FREE ENERGY PREDICTED BY IDOCK:   -1.07 KCAL/MOL
REMARK 927      BINDING AFFINITY PREDICTED BY RF-SCORE:    0.00 PKD
ROOT
HETATM    1  C   UNL     1     -10.805  19.536  67.020  1.00  0.00    -0.542 C  
HETATM    2  C   UNL     1      -9.453  19.572  66.307  1.00  0.00    -0.451 C  
HETATM    3  C   UNL     1      -8.538  20.606  66.960  1.00  0.00    -0.269 C  
HETATM    4  C   UNL     1      -8.807  18.176  66.225  1.00  0.00    -0.174 C  
ENDROOT
BRANCH   4   5
HETATM    5  O   UNL     1      -8.506  17.621  67.513  1.00  0.00    -0.216 OA 
BRANCH   5   6
HETATM    6  C   UNL     1      -8.641  16.257  67.602  1.00  0.00    -0.173 A  
HETATM    7  C   UNL     1      -8.198  15.476  68.674  1.00  0.00    -0.162 A  
HETATM    8  C   UNL     1      -8.167  14.071  68.570  1.00  0.00    -0.136 A  
HETATM    9  C   UNL     1      -8.608  13.433  67.405  1.00  0.00    -0.204 A  
HETATM   10  C   UNL     1      -9.212  14.221  66.410  1.00  0.00    -0.226 A  
HETATM   11  C   UNL     1      -9.225  15.618  66.509  1.00  0.00    -0.325 A  
BRANCH   9  12
HETATM   12  C   UNL     1      -8.231  11.998  67.102  1.00  0.00    -0.181 C  
BRANCH  12  13
HETATM   13  N   UNL     1      -8.417  11.563  65.736  1.00  0.00    -0.377 N  
HETATM   14  H   UNL     1      -7.825  11.928  64.989  1.00  0.00     0.000 HD 
BRANCH  13  15
HETATM   15  C   UNL     1      -9.406  10.651  65.463  1.00  0.00    -0.205 C  
HETATM   16  O   UNL     1     -10.286  10.908  64.638  1.00  0.00    -0.302 OA 
BRANCH  15  17
HETATM   17  N   UNL     1      -9.343   9.422  66.132  1.00  0.00    -0.187 N  
BRANCH  17  18
HETATM   18  C   UNL     1     -10.572   9.075  66.900  1.00  0.00    -0.173 C  
BRANCH  18  19
HETATM   19  C   UNL     1     -10.793   9.864  68.194  1.00  0.00    -0.282 A  
HETATM   20  C   UNL     1     -11.793  11.028  70.521  1.00  0.00    -0.367 A  
HETATM   21  C   UNL     1     -10.441   9.348  69.449  1.00  0.00    -0.231 A  
HETATM   22  C   UNL     1     -10.971   9.913  70.611  1.00  0.00    -0.405 A  
HETATM   23  F   UNL     1     -12.401  11.493  71.625  1.00  0.00    -0.341 F  
HETATM   24  C   UNL     1     -12.030  11.644  69.301  1.00  0.00    -0.382 A  
HETATM   25  C   UNL     1     -11.510  11.078  68.136  1.00  0.00    -0.374 A  
ENDBRANCH  18  19
ENDBRANCH  17  18
BRANCH  17  26
HETATM   26  C   UNL     1      -8.094   8.591  66.308  1.00  0.00    -0.107 C  
HETATM   27  C   UNL     1      -7.381   8.702  67.669  1.00  0.00    -0.089 C  
HETATM   28  C   UNL     1      -8.204   7.080  65.930  1.00  0.00    -0.133 C  
HETATM   29  C   UNL     1      -6.320   6.012  68.235  1.00  0.00    -0.044 C  
HETATM   30  C   UNL     1      -7.950   7.748  68.705  1.00  0.00    -0.125 C  
HETATM   31  N   UNL     1      -7.740   6.357  68.316  1.00  0.00    -0.103 NA 
HETATM   32  C   UNL     1      -8.463   6.092  67.075  1.00  0.00    -0.108 C  
ENDBRANCH  17  26
ENDBRANCH  15  17
ENDBRANCH  13  15
ENDBRANCH  12  13
ENDBRANCH   9  12
ENDBRANCH   5   6
ENDBRANCH   4   5
TORSDOF 9
ENDMDL
MODEL      227
REMARK 921   NORMALIZED FREE ENERGY PREDICTED BY IDOCK:   -4.58 KCAL/MOL
REMARK 922        TOTAL FREE ENERGY PREDICTED BY IDOCK:   -8.45 KCAL/MOL
REMARK 923 INTER-LIGAND FREE ENERGY PREDICTED BY IDOCK:   -7.14 KCAL/MOL
REMARK 924 INTRA-LIGAND FREE ENERGY PREDICTED BY IDOCK:   -1.31 KCAL/MOL
REMARK 927      BINDING AFFINITY PREDICTED BY RF-SCORE:    0.00 PKD
ROOT
HETATM    1  C   UNL     1     -10.560  20.025  65.467  1.00  0.00    -0.300 C  
HETATM    2  C   UNL     1     -10.574  19.265  66.794  1.00  0.00    -0.543 C  
HETATM    3  C   UNL     1     -10.568  17.759  66.540  1.00  0.00    -0.220 C  
HETATM    4  C   UNL     1      -9.434  19.714  67.728  1.00  0.00    -0.348 C  
ENDROOT
BRANCH   4   5
HETATM    5  O   UNL     1      -8.131  19.449  67.188  1.00  0.00    -0.257 OA 
BRANCH   5   6
HETATM    6  C   UNL     1      -7.606  18.222  67.518  1.00  0.00    -0.215 A  
HETATM    7  C   UNL     1      -6.849  17.418  66.661  1.00  0.00    -0.268 A  
HETATM    8  C   UNL     1      -6.557  16.083  67.006  1.00  0.00    -0.088 A  
HETATM    9  C   UNL     1      -6.994  15.551  68.224  1.00  0.00    -0.118 A  
HETATM   10  C   UNL     1      -7.599  16.422  69.147  1.00  0.00    -0.225 A  
HETATM   11  C   UNL     1      -7.902  17.743  68.794  1.00  0.00    -0.251 A  
BRANCH   9  12
HETATM   12  C   UNL     1      -7.051  14.055  68.454  1.00  0.00    -0.102 C  
BRANCH  12  13
HETATM   13  N   UNL     1      -7.054  13.226  67.268  1.00  0.00    -0.344 N  
HETATM   14  H   UNL     1      -6.301  13.295  66.584  1.00  0.00     0.000 HD 
BRANCH  13  15
HETATM   15  C   UNL     1      -8.091  12.346  67.082  1.00  0.00    -0.167 C  
HETATM   16  O   UNL     1      -7.871  11.174  66.766  1.00  0.00    -0.140 OA 
BRANCH  15  17
HETATM   17  N   UNL     1      -9.387  12.831  67.300  1.00  0.00    -0.193 N  
BRANCH  17  18
HETATM   18  C   UNL     1     -10.031  12.330  68.547  1.00  0.00    -0.170 C  
BRANCH  18  19
HETATM   19  C   UNL     1     -10.198  10.811  68.645  1.00  0.00    -0.198 A  
HETATM   20  C   UNL     1      -9.980   8.041  68.417  1.00  0.00    -0.185 A  
HETATM   21  C   UNL     1      -9.602  10.062  69.671  1.00  0.00    -0.251 A  
HETATM   22  C   UNL     1      -9.465   8.679  69.538  1.00  0.00    -0.162 A  
HETATM   23  F   UNL     1      -9.739   6.733  68.231  1.00  0.00    -0.128 F  
HETATM   24  C   UNL     1     -10.706   8.743  67.466  1.00  0.00    -0.213 A  
HETATM   25  C   UNL     1     -10.837  10.127  67.590  1.00  0.00    -0.346 A  
ENDBRANCH  18  19
ENDBRANCH  17  18
BRANCH  17  26
HETATM   26  C   UNL     1     -10.211  13.594  66.290  1.00  0.00    -0.296 C  
HETATM   27  C   UNL     1      -9.782  13.466  64.817  1.00  0.00     0.151 C  
HETATM   28  C   UNL     1     -11.759  13.411  66.371  1.00  0.00    -0.409 C  
HETATM   29  C   UNL     1     -12.279  13.499  63.253  1.00  0.00    -0.146 C  
HETATM   30  C   UNL     1     -10.392  12.253  64.135  1.00  0.00    -0.369 C  
HETATM   31  N   UNL     1     -11.845  12.361  64.064  1.00  0.00    -0.401 NA 
HETATM   32  C   UNL     1     -12.391  12.386  65.420  1.00  0.00    -0.237 C  
ENDBRANCH  17  26
ENDBRANCH  15  17
ENDBRANCH  13  15
ENDBRANCH  12  13
ENDBRANCH   9  12
ENDBRANCH   5   6
ENDBRANCH   4   5
TORSDOF 9
ENDMDL
MODEL      228
REMARK 921   NORMALIZED FREE ENERGY PREDICTED BY IDOCK:   -4.57 KCAL/MOL
REMARK 922        TOTAL FREE ENERGY PREDICTED BY IDOCK:   -8.45 KCAL/MOL
REMARK 923 INTER-LIGAND FREE ENERGY PREDICTED BY IDOCK:   -6.39 KCAL/MOL
REMARK 924 INTRA-LIGAND FREE ENERGY PREDICTED BY IDOCK:   -2.06 KCAL/MOL
REMARK 927      BINDING AFFINITY PREDICTED BY RF-SCORE:    0.00 PKD
ROOT
HETATM    1  C   UNL     1      -6.013   8.056  71.268  1.00  0.00    -0.034 C  
HETATM    2  C   UNL     1      -5.508   8.482  72.647  1.00  0.00    -0.051 C  
HETATM    3  C   UNL     1      -5.193   9.976  72.656  1.00  0.00     0.073 C  
HETATM    4  C   UNL     1      -6.481   8.074  73.769  1.00  0.00    -0.103 C  
ENDROOT
BRANCH   4   5
HETATM    5  O   UNL     1      -7.763   8.708  73.657  1.00  0.00    -0.394 OA 
BRANCH   5   6
HETATM    6  C   UNL     1      -8.737   7.944  73.058  1.00  0.00    -0.202 A  
HETATM    7  C   UNL     1      -8.783   6.547  73.077  1.00  0.00    -0.130 A  
HETATM    8  C   UNL     1      -9.679   5.851  72.243  1.00  0.00    -0.178 A  
HETATM    9  C   UNL     1     -10.559   6.546  71.405  1.00  0.00    -0.266 A  
HETATM   10  C   UNL     1     -10.621   7.945  71.529  1.00  0.00    -0.262 A  
HETATM   11  C   UNL     1      -9.717   8.635  72.346  1.00  0.00    -0.313 A  
BRANCH   9  12
HETATM   12  C   UNL     1     -11.237   5.864  70.235  1.00  0.00    -0.247 C  
BRANCH  12  13
HETATM   13  N   UNL     1     -11.567   6.707  69.108  1.00  0.00    -0.628 N  
HETATM   14  H   UNL     1     -12.345   7.365  69.161  1.00  0.00     0.000 HD 
BRANCH  13  15
HETATM   15  C   UNL     1     -10.814   6.605  67.964  1.00  0.00    -0.271 C  
HETATM   16  O   UNL     1     -11.332   6.253  66.901  1.00  0.00    -0.260 OA 
BRANCH  15  17
HETATM   17  N   UNL     1      -9.460   6.948  68.059  1.00  0.00    -0.125 N  
BRANCH  17  18
HETATM   18  C   UNL     1      -9.202   8.409  68.203  1.00  0.00    -0.137 C  
BRANCH  18  19
HETATM   19  C   UNL     1      -9.756   9.294  67.083  1.00  0.00    -0.225 A  
HETATM   20  C   UNL     1     -10.294  11.323  65.248  1.00  0.00    -0.280 A  
HETATM   21  C   UNL     1      -9.304   9.188  65.759  1.00  0.00    -0.309 A  
HETATM   22  C   UNL     1      -9.547  10.222  64.853  1.00  0.00    -0.365 A  
HETATM   23  F   UNL     1     -10.422  12.370  64.417  1.00  0.00    -0.291 F  
HETATM   24  C   UNL     1     -10.878  11.375  66.506  1.00  0.00    -0.334 A  
HETATM   25  C   UNL     1     -10.630  10.349  67.419  1.00  0.00    -0.321 A  
ENDBRANCH  18  19
ENDBRANCH  17  18
BRANCH  17  26
HETATM   26  C   UNL     1      -8.305   6.010  67.801  1.00  0.00    -0.112 C  
HETATM   27  C   UNL     1      -8.341   4.657  68.536  1.00  0.00    -0.088 C  
HETATM   28  C   UNL     1      -7.940   5.749  66.305  1.00  0.00    -0.102 C  
HETATM   29  C   UNL     1      -7.181   2.700  66.664  1.00  0.00    -0.061 C  
HETATM   30  C   UNL     1      -9.136   3.604  67.782  1.00  0.00    -0.156 C  
HETATM   31  N   UNL     1      -8.512   3.286  66.502  1.00  0.00    -0.103 NA 
HETATM   32  C   UNL     1      -8.511   4.479  65.659  1.00  0.00    -0.116 C  
ENDBRANCH  17  26
ENDBRANCH  15  17
ENDBRANCH  13  15
ENDBRANCH  12  13
ENDBRANCH   9  12
ENDBRANCH   5   6
ENDBRANCH   4   5
TORSDOF 9
ENDMDL
MODEL      229
REMARK 921   NORMALIZED FREE ENERGY PREDICTED BY IDOCK:   -4.57 KCAL/MOL
REMARK 922        TOTAL FREE ENERGY PREDICTED BY IDOCK:   -8.44 KCAL/MOL
REMARK 923 INTER-LIGAND FREE ENERGY PREDICTED BY IDOCK:   -8.31 KCAL/MOL
REMARK 924 INTRA-LIGAND FREE ENERGY PREDICTED BY IDOCK:   -0.13 KCAL/MOL
REMARK 927      BINDING AFFINITY PREDICTED BY RF-SCORE:    0.00 PKD
ROOT
HETATM    1  C   UNL     1      -8.404  19.452  68.745  1.00  0.00    -0.379 C  
HETATM    2  C   UNL     1      -9.855  19.297  68.285  1.00  0.00    -0.482 C  
HETATM    3  C   UNL     1     -10.095  20.105  67.012  1.00  0.00    -0.599 C  
HETATM    4  C   UNL     1     -10.256  17.817  68.133  1.00  0.00    -0.382 C  
ENDROOT
BRANCH   4   5
HETATM    5  O   UNL     1      -9.497  17.132  67.127  1.00  0.00    -0.239 OA 
BRANCH   5   6
HETATM    6  C   UNL     1      -9.627  15.764  67.136  1.00  0.00    -0.218 A  
HETATM    7  C   UNL     1     -10.842  15.074  67.201  1.00  0.00    -0.314 A  
HETATM    8  C   UNL     1     -10.864  13.687  67.443  1.00  0.00    -0.282 A  
HETATM    9  C   UNL     1      -9.671  12.970  67.589  1.00  0.00    -0.212 A  
HETATM   10  C   UNL     1      -8.462  13.644  67.345  1.00  0.00    -0.206 A  
HETATM   11  C   UNL     1      -8.443  15.028  67.123  1.00  0.00    -0.244 A  
BRANCH   9  12
HETATM   12  C   UNL     1      -9.650  11.598  68.229  1.00  0.00    -0.198 C  
BRANCH  12  13
HETATM   13  N   UNL     1      -8.428  11.226  68.906  1.00  0.00    -0.322 N  
HETATM   14  H   UNL     1      -7.631  11.863  68.926  1.00  0.00     0.000 HD 
BRANCH  13  15
HETATM   15  C   UNL     1      -8.360  10.001  69.521  1.00  0.00    -0.172 C  
HETATM   16  O   UNL     1      -7.833   9.883  70.630  1.00  0.00    -0.278 OA 
BRANCH  15  17
HETATM   17  N   UNL     1      -8.940   8.917  68.850  1.00  0.00    -0.136 N  
BRANCH  17  18
HETATM   18  C   UNL     1     -10.428   8.960  68.780  1.00  0.00    -0.200 C  
BRANCH  18  19
HETATM   19  C   UNL     1     -11.148   9.210  70.109  1.00  0.00    -0.248 A  
HETATM   20  C   UNL     1     -12.945   9.324  72.238  1.00  0.00    -0.412 A  
HETATM   21  C   UNL     1     -10.994   8.355  71.210  1.00  0.00    -0.305 A  
HETATM   22  C   UNL     1     -11.915   8.393  72.259  1.00  0.00    -0.455 A  
HETATM   23  F   UNL     1     -13.899   9.278  73.181  1.00  0.00    -0.353 F  
HETATM   24  C   UNL     1     -13.024  10.277  71.233  1.00  0.00    -0.517 A  
HETATM   25  C   UNL     1     -12.112  10.237  70.177  1.00  0.00    -0.279 A  
ENDBRANCH  18  19
ENDBRANCH  17  18
BRANCH  17  26
HETATM   26  C   UNL     1      -8.210   7.665  68.427  1.00  0.00    -0.125 C  
HETATM   27  C   UNL     1      -8.970   6.336  68.598  1.00  0.00    -0.127 C  
HETATM   28  C   UNL     1      -7.560   7.682  67.007  1.00  0.00    -0.103 C  
HETATM   29  C   UNL     1      -8.161   4.655  66.317  1.00  0.00    -0.103 C  
HETATM   30  C   UNL     1      -9.854   6.011  67.405  1.00  0.00    -0.131 C  
HETATM   31  N   UNL     1      -9.060   5.804  66.199  1.00  0.00    -0.152 NA 
HETATM   32  C   UNL     1      -8.361   7.043  65.865  1.00  0.00    -0.141 C  
ENDBRANCH  17  26
ENDBRANCH  15  17
ENDBRANCH  13  15
ENDBRANCH  12  13
ENDBRANCH   9  12
ENDBRANCH   5   6
ENDBRANCH   4   5
TORSDOF 9
ENDMDL
MODEL      230
REMARK 921   NORMALIZED FREE ENERGY PREDICTED BY IDOCK:   -4.56 KCAL/MOL
REMARK 922        TOTAL FREE ENERGY PREDICTED BY IDOCK:   -8.43 KCAL/MOL
REMARK 923 INTER-LIGAND FREE ENERGY PREDICTED BY IDOCK:   -6.77 KCAL/MOL
REMARK 924 INTRA-LIGAND FREE ENERGY PREDICTED BY IDOCK:   -1.66 KCAL/MOL
REMARK 927      BINDING AFFINITY PREDICTED BY RF-SCORE:    0.00 PKD
ROOT
HETATM    1  C   UNL     1      -9.514   3.910  71.434  1.00  0.00    -0.222 C  
HETATM    2  C   UNL     1      -8.912   2.660  70.789  1.00  0.00    -0.161 C  
HETATM    3  C   UNL     1      -9.902   1.500  70.863  1.00  0.00    -0.104 C  
HETATM    4  C   UNL     1      -8.421   2.930  69.355  1.00  0.00    -0.062 C  
ENDROOT
BRANCH   4   5
HETATM    5  O   UNL     1      -9.479   3.307  68.462  1.00  0.00    -0.178 OA 
BRANCH   5   6
HETATM    6  C   UNL     1      -9.458   4.622  68.062  1.00  0.00    -0.146 A  
HETATM    7  C   UNL     1     -10.591   5.406  67.824  1.00  0.00    -0.172 A  
HETATM    8  C   UNL     1     -10.473   6.659  67.193  1.00  0.00    -0.358 A  
HETATM    9  C   UNL     1      -9.218   7.155  66.823  1.00  0.00    -0.188 A  
HETATM   10  C   UNL     1      -8.079   6.437  67.227  1.00  0.00    -0.113 A  
HETATM   11  C   UNL     1      -8.201   5.182  67.838  1.00  0.00    -0.098 A  
BRANCH   9  12
HETATM   12  C   UNL     1      -9.081   8.276  65.814  1.00  0.00    -0.114 C  
BRANCH  12  13
HETATM   13  N   UNL     1      -8.125   9.313  66.137  1.00  0.00    -0.109 N  
HETATM   14  H   UNL     1      -7.133   9.186  65.935  1.00  0.00     0.000 HD 
BRANCH  13  15
HETATM   15  C   UNL     1      -8.578  10.470  66.720  1.00  0.00    -0.126 C  
HETATM   16  O   UNL     1      -8.074  11.558  66.431  1.00  0.00    -0.151 OA 
BRANCH  15  17
HETATM   17  N   UNL     1      -9.647  10.356  67.618  1.00  0.00    -0.148 N  
BRANCH  17  18
HETATM   18  C   UNL     1     -10.994  10.491  66.994  1.00  0.00    -0.180 C  
BRANCH  18  19
HETATM   19  C   UNL     1     -11.346  11.887  66.471  1.00  0.00    -0.403 A  
HETATM   20  C   UNL     1     -11.338  14.525  65.572  1.00  0.00    -0.335 A  
HETATM   21  C   UNL     1     -11.437  12.166  65.100  1.00  0.00    -0.376 A  
HETATM   22  C   UNL     1     -11.398  13.488  64.651  1.00  0.00    -0.375 A  
HETATM   23  F   UNL     1     -11.176  15.786  65.138  1.00  0.00    -0.341 F  
HETATM   24  C   UNL     1     -11.401  14.275  66.935  1.00  0.00    -0.354 A  
HETATM   25  C   UNL     1     -11.430  12.955  67.388  1.00  0.00    -0.388 A  
ENDBRANCH  18  19
ENDBRANCH  17  18
BRANCH  17  26
HETATM   26  C   UNL     1      -9.520  10.344  69.123  1.00  0.00    -0.208 C  
HETATM   27  C   UNL     1     -10.821  10.128  69.920  1.00  0.00    -0.347 C  
HETATM   28  C   UNL     1      -8.415   9.418  69.722  1.00  0.00    -0.170 C  
HETATM   29  C   UNL     1     -10.057   8.531  72.275  1.00  0.00    -0.316 C  
HETATM   30  C   UNL     1     -11.150   8.657  70.112  1.00  0.00    -0.192 C  
HETATM   31  N   UNL     1     -10.135   7.988  70.918  1.00  0.00    -0.190 NA 
HETATM   32  C   UNL     1      -8.856   8.033  70.212  1.00  0.00    -0.145 C  
ENDBRANCH  17  26
ENDBRANCH  15  17
ENDBRANCH  13  15
ENDBRANCH  12  13
ENDBRANCH   9  12
ENDBRANCH   5   6
ENDBRANCH   4   5
TORSDOF 9
ENDMDL
MODEL      231
REMARK 921   NORMALIZED FREE ENERGY PREDICTED BY IDOCK:   -4.56 KCAL/MOL
REMARK 922        TOTAL FREE ENERGY PREDICTED BY IDOCK:   -8.43 KCAL/MOL
REMARK 923 INTER-LIGAND FREE ENERGY PREDICTED BY IDOCK:   -7.02 KCAL/MOL
REMARK 924 INTRA-LIGAND FREE ENERGY PREDICTED BY IDOCK:   -1.41 KCAL/MOL
REMARK 927      BINDING AFFINITY PREDICTED BY RF-SCORE:    0.00 PKD
ROOT
HETATM    1  C   UNL     1      -9.009  19.885  67.380  1.00  0.00    -0.422 C  
HETATM    2  C   UNL     1     -10.395  19.267  67.194  1.00  0.00    -0.533 C  
HETATM    3  C   UNL     1     -10.626  18.920  65.724  1.00  0.00    -0.358 C  
HETATM    4  C   UNL     1     -10.621  18.064  68.130  1.00  0.00    -0.319 C  
ENDROOT
BRANCH   4   5
HETATM    5  O   UNL     1      -9.719  16.979  67.874  1.00  0.00    -0.253 OA 
BRANCH   5   6
HETATM    6  C   UNL     1     -10.302  15.856  67.337  1.00  0.00    -0.288 A  
HETATM    7  C   UNL     1     -11.484  15.268  67.797  1.00  0.00    -0.312 A  
HETATM    8  C   UNL     1     -11.874  13.995  67.340  1.00  0.00    -0.445 A  
HETATM    9  C   UNL     1     -11.102  13.310  66.394  1.00  0.00    -0.313 A  
HETATM   10  C   UNL     1     -10.016  13.988  65.813  1.00  0.00    -0.319 A  
HETATM   11  C   UNL     1      -9.621  15.247  66.283  1.00  0.00    -0.331 A  
BRANCH   9  12
HETATM   12  C   UNL     1     -11.259  11.819  66.180  1.00  0.00    -0.306 C  
BRANCH  12  13
HETATM   13  N   UNL     1     -10.622  10.963  67.156  1.00  0.00    -0.240 N  
HETATM   14  H   UNL     1     -10.624  11.211  68.145  1.00  0.00     0.000 HD 
BRANCH  13  15
HETATM   15  C   UNL     1     -10.015   9.810  66.725  1.00  0.00    -0.218 C  
HETATM   16  O   UNL     1      -9.873   9.588  65.520  1.00  0.00    -0.306 OA 
BRANCH  15  17
HETATM   17  N   UNL     1      -9.543   8.931  67.708  1.00  0.00    -0.144 N  
BRANCH  17  18
HETATM   18  C   UNL     1     -10.578   8.015  68.266  1.00  0.00    -0.101 C  
BRANCH  18  19
HETATM   19  C   UNL     1     -10.301   6.518  68.096  1.00  0.00    -0.223 A  
HETATM   20  C   UNL     1      -9.199   4.005  67.605  1.00  0.00    -0.160 A  
HETATM   21  C   UNL     1      -9.870   5.716  69.162  1.00  0.00    -0.216 A  
HETATM   22  C   UNL     1      -9.287   4.472  68.910  1.00  0.00    -0.209 A  
HETATM   23  F   UNL     1      -8.529   2.869  67.353  1.00  0.00    -0.081 F  
HETATM   24  C   UNL     1      -9.757   4.716  66.553  1.00  0.00    -0.212 A  
HETATM   25  C   UNL     1     -10.331   5.964  66.799  1.00  0.00    -0.302 A  
ENDBRANCH  18  19
ENDBRANCH  17  18
BRANCH  17  26
HETATM   26  C   UNL     1      -8.186   9.013  68.368  1.00  0.00    -0.116 C  
HETATM   27  C   UNL     1      -7.002   9.388  67.458  1.00  0.00    -0.077 C  
HETATM   28  C   UNL     1      -8.096   9.865  69.673  1.00  0.00    -0.171 C  
HETATM   29  C   UNL     1      -5.209  11.034  69.119  1.00  0.00    -0.041 C  
HETATM   30  C   UNL     1      -6.828  10.891  67.316  1.00  0.00    -0.084 C  
HETATM   31  N   UNL     1      -6.491  11.507  68.595  1.00  0.00    -0.054 NA 
HETATM   32  C   UNL     1      -7.597  11.309  69.529  1.00  0.00     0.136 C  
ENDBRANCH  17  26
ENDBRANCH  15  17
ENDBRANCH  13  15
ENDBRANCH  12  13
ENDBRANCH   9  12
ENDBRANCH   5   6
ENDBRANCH   4   5
TORSDOF 9
ENDMDL
MODEL      232
REMARK 921   NORMALIZED FREE ENERGY PREDICTED BY IDOCK:   -4.56 KCAL/MOL
REMARK 922        TOTAL FREE ENERGY PREDICTED BY IDOCK:   -8.42 KCAL/MOL
REMARK 923 INTER-LIGAND FREE ENERGY PREDICTED BY IDOCK:   -7.52 KCAL/MOL
REMARK 924 INTRA-LIGAND FREE ENERGY PREDICTED BY IDOCK:   -0.90 KCAL/MOL
REMARK 927      BINDING AFFINITY PREDICTED BY RF-SCORE:    0.00 PKD
ROOT
HETATM    1  C   UNL     1     -13.084  16.115  73.489  1.00  0.00    -0.594 C  
HETATM    2  C   UNL     1     -12.696  15.711  72.066  1.00  0.00    -0.508 C  
HETATM    3  C   UNL     1     -11.248  15.229  72.031  1.00  0.00    -0.323 C  
HETATM    4  C   UNL     1     -13.678  14.685  71.470  1.00  0.00    -0.419 C  
ENDROOT
BRANCH   4   5
HETATM    5  O   UNL     1     -13.698  13.445  72.190  1.00  0.00    -0.499 OA 
BRANCH   5   6
HETATM    6  C   UNL     1     -13.151  12.377  71.520  1.00  0.00    -0.264 A  
HETATM    7  C   UNL     1     -13.181  11.052  71.965  1.00  0.00    -0.447 A  
HETATM    8  C   UNL     1     -12.394  10.068  71.334  1.00  0.00    -0.512 A  
HETATM    9  C   UNL     1     -11.596  10.395  70.232  1.00  0.00    -0.410 A  
HETATM   10  C   UNL     1     -11.714  11.686  69.691  1.00  0.00    -0.418 A  
HETATM   11  C   UNL     1     -12.483  12.666  70.332  1.00  0.00    -0.219 A  
BRANCH   9  12
HETATM   12  C   UNL     1     -10.464   9.493  69.786  1.00  0.00    -0.231 C  
BRANCH  12  13
HETATM   13  N   UNL     1      -9.800   8.738  70.826  1.00  0.00    -0.190 N  
HETATM   14  H   UNL     1      -9.281   9.214  71.563  1.00  0.00     0.000 HD 
BRANCH  13  15
HETATM   15  C   UNL     1      -9.883   7.368  70.801  1.00  0.00    -0.178 C  
HETATM   16  O   UNL     1     -10.975   6.803  70.905  1.00  0.00    -0.239 OA 
BRANCH  15  17
HETATM   17  N   UNL     1      -8.689   6.659  70.620  1.00  0.00    -0.142 N  
BRANCH  17  18
HETATM   18  C   UNL     1      -7.925   7.039  69.398  1.00  0.00    -0.118 C  
BRANCH  18  19
HETATM   19  C   UNL     1      -8.205   6.194  68.151  1.00  0.00    -0.114 A  
HETATM   20  C   UNL     1      -9.181   4.388  66.265  1.00  0.00    -0.141 A  
HETATM   21  C   UNL     1      -9.068   6.631  67.136  1.00  0.00    -0.132 A  
HETATM   22  C   UNL     1      -9.582   5.716  66.213  1.00  0.00    -0.166 A  
HETATM   23  F   UNL     1      -9.767   3.488  65.459  1.00  0.00    -0.168 F  
HETATM   24  C   UNL     1      -8.213   3.969  67.166  1.00  0.00    -0.099 A  
HETATM   25  C   UNL     1      -7.704   4.877  68.096  1.00  0.00    -0.082 A  
ENDBRANCH  18  19
ENDBRANCH  17  18
BRANCH  17  26
HETATM   26  C   UNL     1      -8.271   5.443  71.412  1.00  0.00    -0.117 C  
HETATM   27  C   UNL     1      -7.950   5.670  72.901  1.00  0.00    -0.101 C  
HETATM   28  C   UNL     1      -9.187   4.184  71.291  1.00  0.00    -0.200 C  
HETATM   29  C   UNL     1      -8.884   3.248  74.297  1.00  0.00    -0.083 C  
HETATM   30  C   UNL     1      -9.187   5.601  73.782  1.00  0.00    -0.126 C  
HETATM   31  N   UNL     1      -9.782   4.269  73.755  1.00  0.00    -0.118 NA 
HETATM   32  C   UNL     1     -10.230   3.972  72.396  1.00  0.00    -0.162 C  
ENDBRANCH  17  26
ENDBRANCH  15  17
ENDBRANCH  13  15
ENDBRANCH  12  13
ENDBRANCH   9  12
ENDBRANCH   5   6
ENDBRANCH   4   5
TORSDOF 9
ENDMDL
MODEL      233
REMARK 921   NORMALIZED FREE ENERGY PREDICTED BY IDOCK:   -4.55 KCAL/MOL
REMARK 922        TOTAL FREE ENERGY PREDICTED BY IDOCK:   -8.42 KCAL/MOL
REMARK 923 INTER-LIGAND FREE ENERGY PREDICTED BY IDOCK:   -7.66 KCAL/MOL
REMARK 924 INTRA-LIGAND FREE ENERGY PREDICTED BY IDOCK:   -0.76 KCAL/MOL
REMARK 927      BINDING AFFINITY PREDICTED BY RF-SCORE:    0.00 PKD
ROOT
HETATM    1  C   UNL     1      -8.635  18.830  67.600  1.00  0.00    -0.293 C  
HETATM    2  C   UNL     1     -10.143  18.961  67.821  1.00  0.00    -0.430 C  
HETATM    3  C   UNL     1     -10.785  19.709  66.655  1.00  0.00    -0.552 C  
HETATM    4  C   UNL     1     -10.807  17.596  68.089  1.00  0.00    -0.216 C  
ENDROOT
BRANCH   4   5
HETATM    5  O   UNL     1     -10.694  16.692  66.981  1.00  0.00    -0.278 OA 
BRANCH   5   6
HETATM    6  C   UNL     1     -10.596  15.365  67.324  1.00  0.00    -0.294 A  
HETATM    7  C   UNL     1      -9.645  14.474  66.816  1.00  0.00    -0.274 A  
HETATM    8  C   UNL     1      -9.770  13.090  67.044  1.00  0.00    -0.235 A  
HETATM    9  C   UNL     1     -10.828  12.587  67.809  1.00  0.00    -0.254 A  
HETATM   10  C   UNL     1     -11.670  13.507  68.457  1.00  0.00    -0.392 A  
HETATM   11  C   UNL     1     -11.554  14.882  68.214  1.00  0.00    -0.356 A  
BRANCH   9  12
HETATM   12  C   UNL     1     -11.218  11.124  67.748  1.00  0.00    -0.294 C  
BRANCH  12  13
HETATM   13  N   UNL     1     -10.219  10.178  68.194  1.00  0.00    -0.163 N  
HETATM   14  H   UNL     1     -10.012  10.070  69.187  1.00  0.00     0.000 HD 
BRANCH  13  15
HETATM   15  C   UNL     1      -9.555   9.428  67.255  1.00  0.00    -0.151 C  
HETATM   16  O   UNL     1      -9.077   9.961  66.250  1.00  0.00    -0.148 OA 
BRANCH  15  17
HETATM   17  N   UNL     1      -9.421   8.058  67.511  1.00  0.00    -0.142 N  
BRANCH  17  18
HETATM   18  C   UNL     1      -8.655   7.733  68.747  1.00  0.00    -0.129 C  
BRANCH  18  19
HETATM   19  C   UNL     1      -9.443   7.818  70.058  1.00  0.00    -0.161 A  
HETATM   20  C   UNL     1     -10.542   7.423  72.590  1.00  0.00    -0.275 A  
HETATM   21  C   UNL     1      -8.993   8.575  71.149  1.00  0.00    -0.232 A  
HETATM   22  C   UNL     1      -9.522   8.350  72.422  1.00  0.00    -0.365 A  
HETATM   23  F   UNL     1     -10.962   7.119  73.828  1.00  0.00    -0.376 F  
HETATM   24  C   UNL     1     -11.104   6.776  71.500  1.00  0.00    -0.289 A  
HETATM   25  C   UNL     1     -10.572   6.989  70.227  1.00  0.00    -0.247 A  
ENDBRANCH  18  19
ENDBRANCH  17  18
BRANCH  17  26
HETATM   26  C   UNL     1      -9.778   6.954  66.544  1.00  0.00    -0.124 C  
HETATM   27  C   UNL     1      -8.612   6.328  65.756  1.00  0.00    -0.153 C  
HETATM   28  C   UNL     1     -10.672   5.802  67.100  1.00  0.00    -0.358 C  
HETATM   29  C   UNL     1      -9.280   3.472  65.477  1.00  0.00    -0.156 C  
HETATM   30  C   UNL     1      -7.932   5.201  66.517  1.00  0.00    -0.104 C  
HETATM   31  N   UNL     1      -8.844   4.083  66.733  1.00  0.00    -0.117 NA 
HETATM   32  C   UNL     1      -9.958   4.527  67.568  1.00  0.00    -0.098 C  
ENDBRANCH  17  26
ENDBRANCH  15  17
ENDBRANCH  13  15
ENDBRANCH  12  13
ENDBRANCH   9  12
ENDBRANCH   5   6
ENDBRANCH   4   5
TORSDOF 9
ENDMDL
MODEL      234
REMARK 921   NORMALIZED FREE ENERGY PREDICTED BY IDOCK:   -4.55 KCAL/MOL
REMARK 922        TOTAL FREE ENERGY PREDICTED BY IDOCK:   -8.40 KCAL/MOL
REMARK 923 INTER-LIGAND FREE ENERGY PREDICTED BY IDOCK:   -6.40 KCAL/MOL
REMARK 924 INTRA-LIGAND FREE ENERGY PREDICTED BY IDOCK:   -2.00 KCAL/MOL
REMARK 927      BINDING AFFINITY PREDICTED BY RF-SCORE:    0.00 PKD
ROOT
HETATM    1  C   UNL     1      -8.649  10.689  62.346  1.00  0.00    -0.294 C  
HETATM    2  C   UNL     1      -9.022   9.630  63.385  1.00  0.00    -0.246 C  
HETATM    3  C   UNL     1      -7.763   8.951  63.922  1.00  0.00    -0.129 C  
HETATM    4  C   UNL     1      -9.908  10.208  64.504  1.00  0.00    -0.264 C  
ENDROOT
BRANCH   4   5
HETATM    5  O   UNL     1      -9.251  11.229  65.268  1.00  0.00    -0.218 OA 
BRANCH   5   6
HETATM    6  C   UNL     1     -10.052  12.283  65.636  1.00  0.00    -0.252 A  
HETATM    7  C   UNL     1      -9.906  13.598  65.184  1.00  0.00    -0.115 A  
HETATM    8  C   UNL     1     -10.620  14.647  65.794  1.00  0.00    -0.330 A  
HETATM    9  C   UNL     1     -11.511  14.388  66.841  1.00  0.00    -0.379 A  
HETATM   10  C   UNL     1     -11.778  13.046  67.163  1.00  0.00    -0.439 A  
HETATM   11  C   UNL     1     -11.053  12.006  66.567  1.00  0.00    -0.362 A  
BRANCH   9  12
HETATM   12  C   UNL     1     -11.982  15.491  67.765  1.00  0.00     0.200 C  
BRANCH  12  13
HETATM   13  N   UNL     1     -10.994  16.479  68.136  1.00  0.00    -0.351 N  
HETATM   14  H   UNL     1     -11.040  17.427  67.762  1.00  0.00     0.000 HD 
BRANCH  13  15
HETATM   15  C   UNL     1      -9.991  16.117  69.002  1.00  0.00    -0.242 C  
HETATM   16  O   UNL     1     -10.240  15.437  70.000  1.00  0.00    -0.296 OA 
BRANCH  15  17
HETATM   17  N   UNL     1      -8.691  16.523  68.677  1.00  0.00    -0.233 N  
BRANCH  17  18
HETATM   18  C   UNL     1      -7.625  15.908  69.518  1.00  0.00    -0.143 C  
BRANCH  18  19
HETATM   19  C   UNL     1      -7.010  14.616  68.971  1.00  0.00    -0.120 A  
HETATM   20  C   UNL     1      -6.461  12.001  68.176  1.00  0.00    -0.054 A  
HETATM   21  C   UNL     1      -7.130  14.248  67.623  1.00  0.00    -0.200 A  
HETATM   22  C   UNL     1      -6.887  12.929  67.235  1.00  0.00    -0.066 A  
HETATM   23  F   UNL     1      -6.348  10.709  67.828  1.00  0.00    -0.057 F  
HETATM   24  C   UNL     1      -6.190  12.383  69.482  1.00  0.00    -0.126 A  
HETATM   25  C   UNL     1      -6.441  13.697  69.878  1.00  0.00    -0.035 A  
ENDBRANCH  18  19
ENDBRANCH  17  18
BRANCH  17  26
HETATM   26  C   UNL     1      -8.342  17.657  67.743  1.00  0.00    -0.226 C  
HETATM   27  C   UNL     1      -7.591  18.850  68.362  1.00  0.00    -0.339 C  
HETATM   28  C   UNL     1      -7.634  17.267  66.407  1.00  0.00    -0.349 C  
HETATM   29  C   UNL     1      -5.731  19.790  66.278  1.00  0.00    -0.166 C  
HETATM   30  C   UNL     1      -6.085  18.643  68.388  1.00  0.00    -0.212 C  
HETATM   31  N   UNL     1      -5.541  18.553  67.037  1.00  0.00    -0.139 NA 
HETATM   32  C   UNL     1      -6.104  17.382  66.369  1.00  0.00    -0.221 C  
ENDBRANCH  17  26
ENDBRANCH  15  17
ENDBRANCH  13  15
ENDBRANCH  12  13
ENDBRANCH   9  12
ENDBRANCH   5   6
ENDBRANCH   4   5
TORSDOF 9
ENDMDL
MODEL      235
REMARK 921   NORMALIZED FREE ENERGY PREDICTED BY IDOCK:   -4.53 KCAL/MOL
REMARK 922        TOTAL FREE ENERGY PREDICTED BY IDOCK:   -8.39 KCAL/MOL
REMARK 923 INTER-LIGAND FREE ENERGY PREDICTED BY IDOCK:   -6.79 KCAL/MOL
REMARK 924 INTRA-LIGAND FREE ENERGY PREDICTED BY IDOCK:   -1.59 KCAL/MOL
REMARK 927      BINDING AFFINITY PREDICTED BY RF-SCORE:    0.00 PKD
ROOT
HETATM    1  C   UNL     1     -13.050  13.093  72.287  1.00  0.00    -0.458 C  
HETATM    2  C   UNL     1     -13.755  14.430  72.050  1.00  0.00    -0.533 C  
HETATM    3  C   UNL     1     -13.578  15.342  73.262  1.00  0.00    -0.341 C  
HETATM    4  C   UNL     1     -13.304  15.095  70.736  1.00  0.00    -0.341 C  
ENDROOT
BRANCH   4   5
HETATM    5  O   UNL     1     -11.909  15.431  70.728  1.00  0.00    -0.291 OA 
BRANCH   5   6
HETATM    6  C   UNL     1     -11.209  14.972  69.639  1.00  0.00    -0.275 A  
HETATM    7  C   UNL     1     -11.754  14.217  68.596  1.00  0.00    -0.385 A  
HETATM    8  C   UNL     1     -10.915  13.595  67.650  1.00  0.00    -0.283 A  
HETATM    9  C   UNL     1      -9.526  13.750  67.719  1.00  0.00    -0.216 A  
HETATM   10  C   UNL     1      -9.009  14.653  68.664  1.00  0.00    -0.184 A  
HETATM   11  C   UNL     1      -9.844  15.255  69.614  1.00  0.00    -0.224 A  
BRANCH   9  12
HETATM   12  C   UNL     1      -8.592  12.806  66.991  1.00  0.00    -0.177 C  
BRANCH  12  13
HETATM   13  N   UNL     1      -7.698  12.027  67.819  1.00  0.00    -0.129 N  
HETATM   14  H   UNL     1      -7.213  12.456  68.607  1.00  0.00     0.000 HD 
BRANCH  13  15
HETATM   15  C   UNL     1      -7.515  10.699  67.523  1.00  0.00    -0.093 C  
HETATM   16  O   UNL     1      -6.578  10.340  66.805  1.00  0.00    -0.069 OA 
BRANCH  15  17
HETATM   17  N   UNL     1      -8.409   9.787  68.098  1.00  0.00    -0.110 N  
BRANCH  17  18
HETATM   18  C   UNL     1      -9.389   9.198  67.142  1.00  0.00    -0.143 C  
BRANCH  18  19
HETATM   19  C   UNL     1      -9.101   7.761  66.697  1.00  0.00    -0.195 A  
HETATM   20  C   UNL     1      -8.947   5.316  65.367  1.00  0.00    -0.144 A  
HETATM   21  C   UNL     1      -7.952   7.426  65.966  1.00  0.00    -0.115 A  
HETATM   22  C   UNL     1      -7.893   6.214  65.274  1.00  0.00    -0.105 A  
HETATM   23  F   UNL     1      -8.944   4.210  64.605  1.00  0.00    -0.120 F  
HETATM   24  C   UNL     1     -10.024   5.564  66.206  1.00  0.00    -0.174 A  
HETATM   25  C   UNL     1     -10.092   6.777  66.892  1.00  0.00    -0.268 A  
ENDBRANCH  18  19
ENDBRANCH  17  18
BRANCH  17  26
HETATM   26  C   UNL     1      -8.585   9.559  69.581  1.00  0.00    -0.183 C  
HETATM   27  C   UNL     1      -9.975   9.875  70.164  1.00  0.00    -0.291 C  
HETATM   28  C   UNL     1      -8.120   8.175  70.133  1.00  0.00    -0.113 C  
HETATM   29  C   UNL     1     -10.431   7.865  72.270  1.00  0.00    -0.262 C  
HETATM   30  C   UNL     1     -10.936   8.703  70.049  1.00  0.00    -0.203 C  
HETATM   31  N   UNL     1     -10.478   7.565  70.839  1.00  0.00    -0.212 NA 
HETATM   32  C   UNL     1      -9.198   7.098  70.311  1.00  0.00    -0.156 C  
ENDBRANCH  17  26
ENDBRANCH  15  17
ENDBRANCH  13  15
ENDBRANCH  12  13
ENDBRANCH   9  12
ENDBRANCH   5   6
ENDBRANCH   4   5
TORSDOF 9
ENDMDL
MODEL      236
REMARK 921   NORMALIZED FREE ENERGY PREDICTED BY IDOCK:   -4.53 KCAL/MOL
REMARK 922        TOTAL FREE ENERGY PREDICTED BY IDOCK:   -8.38 KCAL/MOL
REMARK 923 INTER-LIGAND FREE ENERGY PREDICTED BY IDOCK:   -6.75 KCAL/MOL
REMARK 924 INTRA-LIGAND FREE ENERGY PREDICTED BY IDOCK:   -1.63 KCAL/MOL
REMARK 927      BINDING AFFINITY PREDICTED BY RF-SCORE:    0.00 PKD
ROOT
HETATM    1  C   UNL     1     -13.047  15.716  73.556  1.00  0.00    -0.638 C  
HETATM    2  C   UNL     1     -12.998  15.875  72.036  1.00  0.00    -0.445 C  
HETATM    3  C   UNL     1     -11.563  16.126  71.577  1.00  0.00    -0.502 C  
HETATM    4  C   UNL     1     -13.653  14.684  71.310  1.00  0.00    -0.384 C  
ENDROOT
BRANCH   4   5
HETATM    5  O   UNL     1     -12.978  13.441  71.553  1.00  0.00    -0.350 OA 
BRANCH   5   6
HETATM    6  C   UNL     1     -12.282  12.941  70.478  1.00  0.00    -0.314 A  
HETATM    7  C   UNL     1     -11.952  13.666  69.329  1.00  0.00    -0.384 A  
HETATM    8  C   UNL     1     -11.450  13.009  68.189  1.00  0.00    -0.356 A  
HETATM    9  C   UNL     1     -11.243  11.625  68.198  1.00  0.00    -0.325 A  
HETATM   10  C   UNL     1     -11.411  10.940  69.414  1.00  0.00    -0.373 A  
HETATM   11  C   UNL     1     -11.928  11.594  70.541  1.00  0.00    -0.413 A  
BRANCH   9  12
HETATM   12  C   UNL     1     -11.091  10.843  66.910  1.00  0.00    -0.167 C  
BRANCH  12  13
HETATM   13  N   UNL     1     -10.412   9.570  67.012  1.00  0.00    -0.247 N  
HETATM   14  H   UNL     1     -10.835   8.795  67.523  1.00  0.00     0.000 HD 
BRANCH  13  15
HETATM   15  C   UNL     1      -9.188   9.424  66.407  1.00  0.00    -0.169 C  
HETATM   16  O   UNL     1      -9.087   9.459  65.178  1.00  0.00    -0.210 OA 
BRANCH  15  17
HETATM   17  N   UNL     1      -8.076   9.272  67.245  1.00  0.00    -0.112 N  
BRANCH  17  18
HETATM   18  C   UNL     1      -6.886  10.074  66.843  1.00  0.00    -0.087 C  
BRANCH  18  19
HETATM   19  C   UNL     1      -6.720  11.419  67.558  1.00  0.00    -0.078 A  
HETATM   20  C   UNL     1      -6.492  14.109  68.251  1.00  0.00    -0.116 A  
HETATM   21  C   UNL     1      -7.806  12.095  68.133  1.00  0.00    -0.147 A  
HETATM   22  C   UNL     1      -7.699  13.451  68.447  1.00  0.00    -0.138 A  
HETATM   23  F   UNL     1      -6.425  15.438  68.436  1.00  0.00    -0.097 F  
HETATM   24  C   UNL     1      -5.364  13.422  67.827  1.00  0.00    -0.073 A  
HETATM   25  C   UNL     1      -5.469  12.068  67.502  1.00  0.00    -0.102 A  
ENDBRANCH  18  19
ENDBRANCH  17  18
BRANCH  17  26
HETATM   26  C   UNL     1      -7.940   8.226  68.326  1.00  0.00    -0.119 C  
HETATM   27  C   UNL     1      -8.696   6.904  68.102  1.00  0.00    -0.126 C  
HETATM   28  C   UNL     1      -6.489   7.892  68.794  1.00  0.00    -0.048 C  
HETATM   29  C   UNL     1      -6.974   4.798  69.234  1.00  0.00    -0.051 C  
HETATM   30  C   UNL     1      -7.895   5.906  67.281  1.00  0.00    -0.102 C  
HETATM   31  N   UNL     1      -6.683   5.497  67.982  1.00  0.00    -0.053 NA 
HETATM   32  C   UNL     1      -5.820   6.662  68.166  1.00  0.00    -0.020 C  
ENDBRANCH  17  26
ENDBRANCH  15  17
ENDBRANCH  13  15
ENDBRANCH  12  13
ENDBRANCH   9  12
ENDBRANCH   5   6
ENDBRANCH   4   5
TORSDOF 9
ENDMDL
MODEL      237
REMARK 921   NORMALIZED FREE ENERGY PREDICTED BY IDOCK:   -4.53 KCAL/MOL
REMARK 922        TOTAL FREE ENERGY PREDICTED BY IDOCK:   -8.37 KCAL/MOL
REMARK 923 INTER-LIGAND FREE ENERGY PREDICTED BY IDOCK:   -7.11 KCAL/MOL
REMARK 924 INTRA-LIGAND FREE ENERGY PREDICTED BY IDOCK:   -1.27 KCAL/MOL
REMARK 927      BINDING AFFINITY PREDICTED BY RF-SCORE:    0.00 PKD
ROOT
HETATM    1  C   UNL     1      -6.526   3.382  64.370  1.00  0.00    -0.034 C  
HETATM    2  C   UNL     1      -7.619   3.849  65.333  1.00  0.00    -0.082 C  
HETATM    3  C   UNL     1      -7.000   4.305  66.653  1.00  0.00    -0.059 C  
HETATM    4  C   UNL     1      -8.526   4.921  64.700  1.00  0.00    -0.143 C  
ENDROOT
BRANCH   4   5
HETATM    5  O   UNL     1      -7.820   6.125  64.365  1.00  0.00    -0.103 OA 
BRANCH   5   6
HETATM    6  C   UNL     1      -8.181   7.231  65.097  1.00  0.00    -0.110 A  
HETATM    7  C   UNL     1      -9.230   7.272  66.021  1.00  0.00    -0.079 A  
HETATM    8  C   UNL     1      -9.673   8.503  66.543  1.00  0.00    -0.330 A  
HETATM    9  C   UNL     1      -9.051   9.700  66.170  1.00  0.00    -0.201 A  
HETATM   10  C   UNL     1      -7.891   9.624  65.381  1.00  0.00    -0.117 A  
HETATM   11  C   UNL     1      -7.463   8.400  64.850  1.00  0.00    -0.091 A  
BRANCH   9  12
HETATM   12  C   UNL     1      -9.728  11.038  66.384  1.00  0.00    -0.201 C  
BRANCH  12  13
HETATM   13  N   UNL     1      -8.913  12.211  66.151  1.00  0.00    -0.399 N  
HETATM   14  H   UNL     1      -8.498  12.381  65.235  1.00  0.00     0.000 HD 
BRANCH  13  15
HETATM   15  C   UNL     1      -8.710  13.090  67.186  1.00  0.00    -0.204 C  
HETATM   16  O   UNL     1      -8.052  12.755  68.173  1.00  0.00    -0.141 OA 
BRANCH  15  17
HETATM   17  N   UNL     1      -9.250  14.374  67.047  1.00  0.00    -0.224 N  
BRANCH  17  18
HETATM   18  C   UNL     1     -10.733  14.407  66.900  1.00  0.00    -0.292 C  
BRANCH  18  19
HETATM   19  C   UNL     1     -11.532  14.355  68.206  1.00  0.00    -0.333 A  
HETATM   20  C   UNL     1     -12.391  14.152  70.850  1.00  0.00    -0.368 A  
HETATM   21  C   UNL     1     -11.827  15.511  68.943  1.00  0.00    -0.357 A  
HETATM   22  C   UNL     1     -12.225  15.406  70.278  1.00  0.00    -0.414 A  
HETATM   23  F   UNL     1     -12.652  14.053  72.163  1.00  0.00    -0.380 F  
HETATM   24  C   UNL     1     -12.252  12.998  70.093  1.00  0.00    -0.342 A  
HETATM   25  C   UNL     1     -11.845  13.097  68.762  1.00  0.00    -0.361 A  
ENDBRANCH  18  19
ENDBRANCH  17  18
BRANCH  17  26
HETATM   26  C   UNL     1      -8.450  15.633  66.813  1.00  0.00    -0.272 C  
HETATM   27  C   UNL     1      -9.143  16.748  66.008  1.00  0.00    -0.226 C  
HETATM   28  C   UNL     1      -7.778  16.276  68.067  1.00  0.00    -0.154 C  
HETATM   29  C   UNL     1      -8.211  19.282  67.187  1.00  0.00    -0.268 C  
HETATM   30  C   UNL     1      -9.989  17.659  66.881  1.00  0.00    -0.323 C  
HETATM   31  N   UNL     1      -9.165  18.386  67.841  1.00  0.00    -0.278 NA 
HETATM   32  C   UNL     1      -8.526  17.432  68.744  1.00  0.00    -0.225 C  
ENDBRANCH  17  26
ENDBRANCH  15  17
ENDBRANCH  13  15
ENDBRANCH  12  13
ENDBRANCH   9  12
ENDBRANCH   5   6
ENDBRANCH   4   5
TORSDOF 9
ENDMDL
MODEL      238
REMARK 921   NORMALIZED FREE ENERGY PREDICTED BY IDOCK:   -4.52 KCAL/MOL
REMARK 922        TOTAL FREE ENERGY PREDICTED BY IDOCK:   -8.36 KCAL/MOL
REMARK 923 INTER-LIGAND FREE ENERGY PREDICTED BY IDOCK:   -6.84 KCAL/MOL
REMARK 924 INTRA-LIGAND FREE ENERGY PREDICTED BY IDOCK:   -1.52 KCAL/MOL
REMARK 927      BINDING AFFINITY PREDICTED BY RF-SCORE:    0.00 PKD
ROOT
HETATM    1  C   UNL     1     -13.010  13.594  72.494  1.00  0.00    -0.396 C  
HETATM    2  C   UNL     1     -13.874  14.821  72.198  1.00  0.00    -0.578 C  
HETATM    3  C   UNL     1     -13.532  15.952  73.166  1.00  0.00    -0.650 C  
HETATM    4  C   UNL     1     -13.776  15.253  70.722  1.00  0.00    -0.189 C  
ENDROOT
BRANCH   4   5
HETATM    5  O   UNL     1     -12.453  15.658  70.344  1.00  0.00    -0.414 OA 
BRANCH   5   6
HETATM    6  C   UNL     1     -11.786  14.772  69.532  1.00  0.00    -0.326 A  
HETATM    7  C   UNL     1     -12.374  13.682  68.883  1.00  0.00    -0.047 A  
HETATM    8  C   UNL     1     -11.572  12.700  68.268  1.00  0.00    -0.377 A  
HETATM    9  C   UNL     1     -10.178  12.815  68.270  1.00  0.00    -0.245 A  
HETATM   10  C   UNL     1      -9.614  14.002  68.770  1.00  0.00    -0.098 A  
HETATM   11  C   UNL     1     -10.413  14.968  69.396  1.00  0.00    -0.254 A  
BRANCH   9  12
HETATM   12  C   UNL     1      -9.289  11.623  67.985  1.00  0.00    -0.178 C  
BRANCH  12  13
HETATM   13  N   UNL     1      -8.602  11.052  69.122  1.00  0.00    -0.361 N  
HETATM   14  H   UNL     1      -8.405  11.617  69.948  1.00  0.00     0.000 HD 
BRANCH  13  15
HETATM   15  C   UNL     1      -8.219   9.734  69.069  1.00  0.00    -0.121 C  
HETATM   16  O   UNL     1      -7.155   9.412  68.533  1.00  0.00    -0.069 OA 
BRANCH  15  17
HETATM   17  N   UNL     1      -9.067   8.798  69.673  1.00  0.00    -0.147 N  
BRANCH  17  18
HETATM   18  C   UNL     1      -8.517   7.414  69.729  1.00  0.00    -0.136 C  
BRANCH  18  19
HETATM   19  C   UNL     1      -8.153   6.900  71.125  1.00  0.00    -0.110 A  
HETATM   20  C   UNL     1      -6.945   5.754  73.360  1.00  0.00    -0.085 A  
HETATM   21  C   UNL     1      -7.504   7.708  72.069  1.00  0.00    -0.075 A  
HETATM   22  C   UNL     1      -6.871   7.127  73.170  1.00  0.00    -0.069 A  
HETATM   23  F   UNL     1      -6.234   5.184  74.347  1.00  0.00    -0.053 F  
HETATM   24  C   UNL     1      -7.710   4.957  72.521  1.00  0.00    -0.093 A  
HETATM   25  C   UNL     1      -8.336   5.531  71.414  1.00  0.00    -0.126 A  
ENDBRANCH  18  19
ENDBRANCH  17  18
BRANCH  17  26
HETATM   26  C   UNL     1     -10.513   9.041  70.034  1.00  0.00    -0.214 C  
HETATM   27  C   UNL     1     -11.529   7.995  69.540  1.00  0.00     0.409 C  
HETATM   28  C   UNL     1     -10.814   9.351  71.534  1.00  0.00    -0.398 C  
HETATM   29  C   UNL     1     -13.565   7.795  71.661  1.00  0.00    -0.357 C  
HETATM   30  C   UNL     1     -11.671   6.822  70.495  1.00  0.00    -0.375 C  
HETATM   31  N   UNL     1     -12.212   7.250  71.781  1.00  0.00    -0.319 NA 
HETATM   32  C   UNL     1     -11.276   8.179  72.410  1.00  0.00    -0.386 C  
ENDBRANCH  17  26
ENDBRANCH  15  17
ENDBRANCH  13  15
ENDBRANCH  12  13
ENDBRANCH   9  12
ENDBRANCH   5   6
ENDBRANCH   4   5
TORSDOF 9
ENDMDL
MODEL      239
REMARK 921   NORMALIZED FREE ENERGY PREDICTED BY IDOCK:   -4.48 KCAL/MOL
REMARK 922        TOTAL FREE ENERGY PREDICTED BY IDOCK:   -8.31 KCAL/MOL
REMARK 923 INTER-LIGAND FREE ENERGY PREDICTED BY IDOCK:   -6.97 KCAL/MOL
REMARK 924 INTRA-LIGAND FREE ENERGY PREDICTED BY IDOCK:   -1.34 KCAL/MOL
REMARK 927      BINDING AFFINITY PREDICTED BY RF-SCORE:    0.00 PKD
ROOT
HETATM    1  C   UNL     1      -8.832   3.999  63.257  1.00  0.00    -0.110 C  
HETATM    2  C   UNL     1      -9.321   3.030  64.335  1.00  0.00    -0.142 C  
HETATM    3  C   UNL     1      -8.267   1.957  64.597  1.00  0.00    -0.078 C  
HETATM    4  C   UNL     1      -9.753   3.765  65.618  1.00  0.00    -0.143 C  
ENDROOT
BRANCH   4   5
HETATM    5  O   UNL     1      -8.674   4.471  66.249  1.00  0.00    -0.113 OA 
BRANCH   5   6
HETATM    6  C   UNL     1      -9.029   5.658  66.843  1.00  0.00    -0.112 A  
HETATM    7  C   UNL     1      -8.199   6.418  67.672  1.00  0.00    -0.118 A  
HETATM    8  C   UNL     1      -8.724   7.490  68.421  1.00  0.00    -0.123 A  
HETATM    9  C   UNL     1     -10.078   7.831  68.322  1.00  0.00    -0.221 A  
HETATM   10  C   UNL     1     -10.856   7.172  67.355  1.00  0.00    -0.346 A  
HETATM   11  C   UNL     1     -10.335   6.096  66.625  1.00  0.00    -0.249 A  
BRANCH   9  12
HETATM   12  C   UNL     1     -10.753   8.687  69.374  1.00  0.00    -0.158 C  
BRANCH  12  13
HETATM   13  N   UNL     1     -11.236   9.977  68.934  1.00  0.00    -0.427 N  
HETATM   14  H   UNL     1     -12.170  10.073  68.534  1.00  0.00     0.000 HD 
BRANCH  13  15
HETATM   15  C   UNL     1     -10.415  11.069  69.063  1.00  0.00    -0.216 C  
HETATM   16  O   UNL     1      -9.263  10.942  69.486  1.00  0.00     0.013 OA 
BRANCH  15  17
HETATM   17  N   UNL     1     -10.933  12.308  68.665  1.00  0.00    -0.228 N  
BRANCH  17  18
HETATM   18  C   UNL     1     -11.831  12.248  67.478  1.00  0.00    -0.261 C  
BRANCH  18  19
HETATM   19  C   UNL     1     -11.134  12.058  66.127  1.00  0.00    -0.367 A  
HETATM   20  C   UNL     1     -10.342  11.266  63.574  1.00  0.00    -0.408 A  
HETATM   21  C   UNL     1     -11.440  12.854  65.014  1.00  0.00    -0.350 A  
HETATM   22  C   UNL     1     -11.071  12.437  63.733  1.00  0.00    -0.506 A  
HETATM   23  F   UNL     1     -10.096  10.802  62.338  1.00  0.00    -0.162 F  
HETATM   24  C   UNL     1      -9.899  10.546  64.674  1.00  0.00    -0.404 A  
HETATM   25  C   UNL     1     -10.274  10.954  65.955  1.00  0.00    -0.311 A  
ENDBRANCH  18  19
ENDBRANCH  17  18
BRANCH  17  26
HETATM   26  C   UNL     1     -10.476  13.649  69.188  1.00  0.00     0.010 C  
HETATM   27  C   UNL     1      -9.179  14.216  68.582  1.00  0.00    -0.146 C  
HETATM   28  C   UNL     1     -11.545  14.787  69.218  1.00  0.00    -0.331 C  
HETATM   29  C   UNL     1      -9.571  17.133  68.443  1.00  0.00    -0.281 C  
HETATM   30  C   UNL     1      -9.425  14.997  67.301  1.00  0.00    -0.208 C  
HETATM   31  N   UNL     1     -10.237  16.183  67.552  1.00  0.00    -0.261 NA 
HETATM   32  C   UNL     1     -11.551  15.769  68.039  1.00  0.00    -0.210 C  
ENDBRANCH  17  26
ENDBRANCH  15  17
ENDBRANCH  13  15
ENDBRANCH  12  13
ENDBRANCH   9  12
ENDBRANCH   5   6
ENDBRANCH   4   5
TORSDOF 9
ENDMDL
MODEL      240
REMARK 921   NORMALIZED FREE ENERGY PREDICTED BY IDOCK:   -4.46 KCAL/MOL
REMARK 922        TOTAL FREE ENERGY PREDICTED BY IDOCK:   -8.28 KCAL/MOL
REMARK 923 INTER-LIGAND FREE ENERGY PREDICTED BY IDOCK:   -6.82 KCAL/MOL
REMARK 924 INTRA-LIGAND FREE ENERGY PREDICTED BY IDOCK:   -1.46 KCAL/MOL
REMARK 927      BINDING AFFINITY PREDICTED BY RF-SCORE:    0.00 PKD
ROOT
HETATM    1  C   UNL     1      -8.848   2.014  65.850  1.00  0.00    -0.119 C  
HETATM    2  C   UNL     1      -7.833   2.837  66.644  1.00  0.00    -0.076 C  
HETATM    3  C   UNL     1      -7.446   4.093  65.866  1.00  0.00    -0.081 C  
HETATM    4  C   UNL     1      -8.332   3.152  68.067  1.00  0.00    -0.079 C  
ENDROOT
BRANCH   4   5
HETATM    5  O   UNL     1      -9.519   3.958  68.078  1.00  0.00    -0.167 OA 
BRANCH   5   6
HETATM    6  C   UNL     1      -9.711   4.690  69.226  1.00  0.00    -0.196 A  
HETATM    7  C   UNL     1     -10.889   5.366  69.557  1.00  0.00    -0.127 A  
HETATM    8  C   UNL     1     -10.911   6.278  70.630  1.00  0.00    -0.370 A  
HETATM    9  C   UNL     1      -9.765   6.497  71.402  1.00  0.00    -0.184 A  
HETATM   10  C   UNL     1      -8.645   5.681  71.168  1.00  0.00    -0.127 A  
HETATM   11  C   UNL     1      -8.620   4.789  70.088  1.00  0.00    -0.102 A  
BRANCH   9  12
HETATM   12  C   UNL     1      -9.631   7.723  72.282  1.00  0.00    -0.176 C  
BRANCH  12  13
HETATM   13  N   UNL     1     -10.067   8.975  71.704  1.00  0.00    -0.338 N  
HETATM   14  H   UNL     1     -10.937   9.412  72.007  1.00  0.00     0.000 HD 
BRANCH  13  15
HETATM   15  C   UNL     1      -9.286   9.563  70.740  1.00  0.00    -0.150 C  
HETATM   16  O   UNL     1      -8.087   9.769  70.942  1.00  0.00    -0.252 OA 
BRANCH  15  17
HETATM   17  N   UNL     1      -9.905   9.879  69.524  1.00  0.00    -0.210 N  
BRANCH  17  18
HETATM   18  C   UNL     1     -11.394   9.812  69.553  1.00  0.00    -0.083 C  
BRANCH  18  19
HETATM   19  C   UNL     1     -12.105  11.061  70.083  1.00  0.00    -0.438 A  
HETATM   20  C   UNL     1     -12.894  13.346  71.471  1.00  0.00    -0.337 A  
HETATM   21  C   UNL     1     -11.882  12.332  69.535  1.00  0.00    -0.380 A  
HETATM   22  C   UNL     1     -12.248  13.475  70.249  1.00  0.00    -0.417 A  
HETATM   23  F   UNL     1     -13.133  14.440  72.213  1.00  0.00    -0.361 F  
HETATM   24  C   UNL     1     -13.259  12.099  71.957  1.00  0.00    -0.496 A  
HETATM   25  C   UNL     1     -12.886  10.953  71.252  1.00  0.00    -0.536 A  
ENDBRANCH  18  19
ENDBRANCH  17  18
BRANCH  17  26
HETATM   26  C   UNL     1      -9.192  10.042  68.202  1.00  0.00    -0.128 C  
HETATM   27  C   UNL     1      -9.782   9.275  67.005  1.00  0.00    -0.241 C  
HETATM   28  C   UNL     1      -8.888  11.505  67.750  1.00  0.00    -0.153 C  
HETATM   29  C   UNL     1      -9.384  11.020  64.664  1.00  0.00    -0.205 C  
HETATM   30  C   UNL     1     -10.887  10.047  66.303  1.00  0.00     0.170 C  
HETATM   31  N   UNL     1     -10.376  11.278  65.708  1.00  0.00    -0.251 NA 
HETATM   32  C   UNL     1      -9.875  12.151  66.768  1.00  0.00    -0.206 C  
ENDBRANCH  17  26
ENDBRANCH  15  17
ENDBRANCH  13  15
ENDBRANCH  12  13
ENDBRANCH   9  12
ENDBRANCH   5   6
ENDBRANCH   4   5
TORSDOF 9
ENDMDL
MODEL      241
REMARK 921   NORMALIZED FREE ENERGY PREDICTED BY IDOCK:   -4.44 KCAL/MOL
REMARK 922        TOTAL FREE ENERGY PREDICTED BY IDOCK:   -8.25 KCAL/MOL
REMARK 923 INTER-LIGAND FREE ENERGY PREDICTED BY IDOCK:   -6.09 KCAL/MOL
REMARK 924 INTRA-LIGAND FREE ENERGY PREDICTED BY IDOCK:   -2.15 KCAL/MOL
REMARK 927      BINDING AFFINITY PREDICTED BY RF-SCORE:    0.00 PKD
ROOT
HETATM    1  C   UNL     1     -10.002  18.375  66.216  1.00  0.00    -0.378 C  
HETATM    2  C   UNL     1      -8.783  17.452  66.245  1.00  0.00    -0.242 C  
HETATM    3  C   UNL     1      -8.080  17.548  67.597  1.00  0.00    -0.211 C  
HETATM    4  C   UNL     1      -9.147  16.004  65.866  1.00  0.00    -0.257 C  
ENDROOT
BRANCH   4   5
HETATM    5  O   UNL     1     -10.064  15.398  66.788  1.00  0.00    -0.252 OA 
BRANCH   5   6
HETATM    6  C   UNL     1      -9.725  14.129  67.192  1.00  0.00    -0.248 A  
HETATM    7  C   UNL     1     -10.565  13.261  67.897  1.00  0.00    -0.246 A  
HETATM    8  C   UNL     1     -10.053  12.081  68.471  1.00  0.00    -0.201 A  
HETATM    9  C   UNL     1      -8.704  11.741  68.318  1.00  0.00    -0.167 A  
HETATM   10  C   UNL     1      -7.918  12.531  67.461  1.00  0.00    -0.175 A  
HETATM   11  C   UNL     1      -8.425  13.713  66.907  1.00  0.00    -0.073 A  
BRANCH   9  12
HETATM   12  C   UNL     1      -8.041  10.725  69.224  1.00  0.00    -0.096 C  
BRANCH  12  13
HETATM   13  N   UNL     1      -8.277   9.335  68.905  1.00  0.00    -0.110 N  
HETATM   14  H   UNL     1      -7.573   8.787  68.411  1.00  0.00     0.000 HD 
BRANCH  13  15
HETATM   15  C   UNL     1      -9.469   8.765  69.281  1.00  0.00    -0.161 C  
HETATM   16  O   UNL     1     -10.081   9.183  70.266  1.00  0.00    -0.181 OA 
BRANCH  15  17
HETATM   17  N   UNL     1      -9.961   7.727  68.479  1.00  0.00    -0.176 N  
BRANCH  17  18
HETATM   18  C   UNL     1     -10.670   8.180  67.250  1.00  0.00    -0.193 C  
BRANCH  18  19
HETATM   19  C   UNL     1      -9.773   8.632  66.093  1.00  0.00    -0.292 A  
HETATM   20  C   UNL     1      -7.831   9.794  64.465  1.00  0.00    -0.137 A  
HETATM   21  C   UNL     1      -8.658   7.887  65.682  1.00  0.00    -0.159 A  
HETATM   22  C   UNL     1      -7.671   8.484  64.894  1.00  0.00    -0.105 A  
HETATM   23  F   UNL     1      -6.828  10.405  63.814  1.00  0.00    -0.135 F  
HETATM   24  C   UNL     1      -8.997  10.496  64.735  1.00  0.00    -0.227 A  
HETATM   25  C   UNL     1      -9.982   9.908  65.530  1.00  0.00    -0.363 A  
ENDBRANCH  18  19
ENDBRANCH  17  18
BRANCH  17  26
HETATM   26  C   UNL     1     -10.020   6.273  68.881  1.00  0.00    -0.153 C  
HETATM   27  C   UNL     1      -8.672   5.581  69.158  1.00  0.00    -0.103 C  
HETATM   28  C   UNL     1     -11.008   5.908  70.034  1.00  0.00    -0.430 C  
HETATM   29  C   UNL     1      -9.181   3.694  71.364  1.00  0.00    -0.127 C  
HETATM   30  C   UNL     1      -8.200   5.775  70.589  1.00  0.00    -0.119 C  
HETATM   31  N   UNL     1      -9.113   5.146  71.538  1.00  0.00    -0.143 NA 
HETATM   32  C   UNL     1     -10.419   5.794  71.447  1.00  0.00    -0.238 C  
ENDBRANCH  17  26
ENDBRANCH  15  17
ENDBRANCH  13  15
ENDBRANCH  12  13
ENDBRANCH   9  12
ENDBRANCH   5   6
ENDBRANCH   4   5
TORSDOF 9
ENDMDL
MODEL      242
REMARK 921   NORMALIZED FREE ENERGY PREDICTED BY IDOCK:   -4.44 KCAL/MOL
REMARK 922        TOTAL FREE ENERGY PREDICTED BY IDOCK:   -8.24 KCAL/MOL
REMARK 923 INTER-LIGAND FREE ENERGY PREDICTED BY IDOCK:   -6.11 KCAL/MOL
REMARK 924 INTRA-LIGAND FREE ENERGY PREDICTED BY IDOCK:   -2.13 KCAL/MOL
REMARK 927      BINDING AFFINITY PREDICTED BY RF-SCORE:    0.00 PKD
ROOT
HETATM    1  C   UNL     1      -7.728   2.236  71.162  1.00  0.00    -0.039 C  
HETATM    2  C   UNL     1      -7.917   2.620  69.694  1.00  0.00    -0.053 C  
HETATM    3  C   UNL     1      -9.389   2.911  69.409  1.00  0.00    -0.196 C  
HETATM    4  C   UNL     1      -6.991   3.779  69.278  1.00  0.00    -0.046 C  
ENDROOT
BRANCH   4   5
HETATM    5  O   UNL     1      -7.259   4.994  69.993  1.00  0.00    -0.055 OA 
BRANCH   5   6
HETATM    6  C   UNL     1      -7.515   6.087  69.201  1.00  0.00    -0.086 A  
HETATM    7  C   UNL     1      -8.514   7.035  69.442  1.00  0.00    -0.133 A  
HETATM    8  C   UNL     1      -8.854   7.982  68.456  1.00  0.00    -0.134 A  
HETATM    9  C   UNL     1      -8.176   8.010  67.232  1.00  0.00    -0.122 A  
HETATM   10  C   UNL     1      -7.061   7.169  67.076  1.00  0.00    -0.090 A  
HETATM   11  C   UNL     1      -6.737   6.217  68.051  1.00  0.00    -0.064 A  
BRANCH   9  12
HETATM   12  C   UNL     1      -8.756   8.721  66.027  1.00  0.00    -0.167 C  
BRANCH  12  13
HETATM   13  N   UNL     1      -9.982   9.456  66.248  1.00  0.00    -0.280 N  
HETATM   14  H   UNL     1     -10.879   8.972  66.283  1.00  0.00     0.000 HD 
BRANCH  13  15
HETATM   15  C   UNL     1      -9.915  10.818  66.409  1.00  0.00    -0.216 C  
HETATM   16  O   UNL     1      -9.709  11.555  65.441  1.00  0.00    -0.224 OA 
BRANCH  15  17
HETATM   17  N   UNL     1     -10.123  11.319  67.700  1.00  0.00    -0.177 N  
BRANCH  17  18
HETATM   18  C   UNL     1     -11.538  11.262  68.163  1.00  0.00    -0.289 C  
BRANCH  18  19
HETATM   19  C   UNL     1     -11.748  10.778  69.602  1.00  0.00    -0.395 A  
HETATM   20  C   UNL     1     -12.712   9.700  71.984  1.00  0.00    -0.385 A  
HETATM   21  C   UNL     1     -11.315   9.515  70.031  1.00  0.00    -0.204 A  
HETATM   22  C   UNL     1     -11.827   8.964  71.208  1.00  0.00    -0.371 A  
HETATM   23  F   UNL     1     -13.297   9.124  73.047  1.00  0.00    -0.454 F  
HETATM   24  C   UNL     1     -13.033  11.009  71.655  1.00  0.00    -0.561 A  
HETATM   25  C   UNL     1     -12.532  11.560  70.475  1.00  0.00    -0.367 A  
ENDBRANCH  18  19
ENDBRANCH  17  18
BRANCH  17  26
HETATM   26  C   UNL     1      -9.105  12.086  68.510  1.00  0.00    -0.106 C  
HETATM   27  C   UNL     1      -7.687  11.488  68.573  1.00  0.00    -0.134 C  
HETATM   28  C   UNL     1      -8.983  13.614  68.210  1.00  0.00    -0.187 C  
HETATM   29  C   UNL     1      -5.850  13.792  68.602  1.00  0.00    -0.087 C  
HETATM   30  C   UNL     1      -6.819  11.918  67.402  1.00  0.00    -0.130 C  
HETATM   31  N   UNL     1      -6.588  13.359  67.415  1.00  0.00    -0.238 NA 
HETATM   32  C   UNL     1      -7.865  14.050  67.254  1.00  0.00    -0.122 C  
ENDBRANCH  17  26
ENDBRANCH  15  17
ENDBRANCH  13  15
ENDBRANCH  12  13
ENDBRANCH   9  12
ENDBRANCH   5   6
ENDBRANCH   4   5
TORSDOF 9
ENDMDL
MODEL      243
REMARK 921   NORMALIZED FREE ENERGY PREDICTED BY IDOCK:   -4.44 KCAL/MOL
REMARK 922        TOTAL FREE ENERGY PREDICTED BY IDOCK:   -8.24 KCAL/MOL
REMARK 923 INTER-LIGAND FREE ENERGY PREDICTED BY IDOCK:   -6.68 KCAL/MOL
REMARK 924 INTRA-LIGAND FREE ENERGY PREDICTED BY IDOCK:   -1.56 KCAL/MOL
REMARK 927      BINDING AFFINITY PREDICTED BY RF-SCORE:    0.00 PKD
ROOT
HETATM    1  C   UNL     1      -5.812   8.534  72.098  1.00  0.00    -0.059 C  
HETATM    2  C   UNL     1      -6.401   8.022  73.414  1.00  0.00    -0.094 C  
HETATM    3  C   UNL     1      -6.276   9.090  74.498  1.00  0.00    -0.088 C  
HETATM    4  C   UNL     1      -7.846   7.517  73.242  1.00  0.00    -0.103 C  
ENDROOT
BRANCH   4   5
HETATM    5  O   UNL     1      -8.754   8.549  72.832  1.00  0.00    -0.337 OA 
BRANCH   5   6
HETATM    6  C   UNL     1      -9.391   8.319  71.636  1.00  0.00    -0.192 A  
HETATM    7  C   UNL     1      -9.235   7.170  70.853  1.00  0.00    -0.152 A  
HETATM    8  C   UNL     1      -9.739   7.128  69.539  1.00  0.00    -0.157 A  
HETATM    9  C   UNL     1     -10.432   8.221  69.006  1.00  0.00    -0.212 A  
HETATM   10  C   UNL     1     -10.733   9.293  69.863  1.00  0.00    -0.253 A  
HETATM   11  C   UNL     1     -10.214   9.340  71.164  1.00  0.00    -0.387 A  
BRANCH   9  12
HETATM   12  C   UNL     1     -10.636   8.372  67.513  1.00  0.00    -0.215 C  
BRANCH  12  13
HETATM   13  N   UNL     1     -10.850   9.718  67.030  1.00  0.00    -0.160 N  
HETATM   14  H   UNL     1     -11.776  10.145  67.075  1.00  0.00     0.000 HD 
BRANCH  13  15
HETATM   15  C   UNL     1      -9.785  10.410  66.510  1.00  0.00    -0.194 C  
HETATM   16  O   UNL     1      -8.997  11.001  67.253  1.00  0.00    -0.138 OA 
BRANCH  15  17
HETATM   17  N   UNL     1      -9.623  10.381  65.119  1.00  0.00    -0.246 N  
BRANCH  17  18
HETATM   18  C   UNL     1     -10.658  11.141  64.362  1.00  0.00    -0.343 C  
BRANCH  18  19
HETATM   19  C   UNL     1     -10.955  12.553  64.876  1.00  0.00    -0.335 A  
HETATM   20  C   UNL     1     -11.239  14.887  66.373  1.00  0.00    -0.331 A  
HETATM   21  C   UNL     1     -10.043  13.607  64.720  1.00  0.00    -0.268 A  
HETATM   22  C   UNL     1     -10.170  14.761  65.497  1.00  0.00    -0.400 A  
HETATM   23  F   UNL     1     -11.291  15.939  67.206  1.00  0.00    -0.281 F  
HETATM   24  C   UNL     1     -12.233  13.922  66.430  1.00  0.00    -0.487 A  
HETATM   25  C   UNL     1     -12.106  12.762  65.663  1.00  0.00    -0.514 A  
ENDBRANCH  18  19
ENDBRANCH  17  18
BRANCH  17  26
HETATM   26  C   UNL     1      -8.662   9.486  64.374  1.00  0.00    -0.208 C  
HETATM   27  C   UNL     1      -7.367  10.144  63.862  1.00  0.00    -0.111 C  
HETATM   28  C   UNL     1      -8.291   8.135  65.063  1.00  0.00    -0.146 C  
HETATM   29  C   UNL     1      -5.272   8.088  64.122  1.00  0.00    -0.040 C  
HETATM   30  C   UNL     1      -6.266  10.158  64.910  1.00  0.00    -0.125 C  
HETATM   31  N   UNL     1      -5.852   8.803  65.260  1.00  0.00    -0.047 NA 
HETATM   32  C   UNL     1      -6.981   8.097  65.862  1.00  0.00    -0.060 C  
ENDBRANCH  17  26
ENDBRANCH  15  17
ENDBRANCH  13  15
ENDBRANCH  12  13
ENDBRANCH   9  12
ENDBRANCH   5   6
ENDBRANCH   4   5
TORSDOF 9
ENDMDL
MODEL      244
REMARK 921   NORMALIZED FREE ENERGY PREDICTED BY IDOCK:   -4.43 KCAL/MOL
REMARK 922        TOTAL FREE ENERGY PREDICTED BY IDOCK:   -8.23 KCAL/MOL
REMARK 923 INTER-LIGAND FREE ENERGY PREDICTED BY IDOCK:   -6.11 KCAL/MOL
REMARK 924 INTRA-LIGAND FREE ENERGY PREDICTED BY IDOCK:   -2.12 KCAL/MOL
REMARK 927      BINDING AFFINITY PREDICTED BY RF-SCORE:    0.00 PKD
ROOT
HETATM    1  C   UNL     1     -10.619  18.436  67.577  1.00  0.00    -0.447 C  
HETATM    2  C   UNL     1     -10.036  17.497  66.519  1.00  0.00    -0.323 C  
HETATM    3  C   UNL     1      -8.527  17.702  66.406  1.00  0.00    -0.279 C  
HETATM    4  C   UNL     1     -10.417  16.027  66.780  1.00  0.00    -0.308 C  
ENDROOT
BRANCH   4   5
HETATM    5  O   UNL     1      -9.895  15.524  68.018  1.00  0.00    -0.211 OA 
BRANCH   5   6
HETATM    6  C   UNL     1      -9.377  14.253  67.953  1.00  0.00    -0.198 A  
HETATM    7  C   UNL     1      -9.890  13.143  68.630  1.00  0.00    -0.089 A  
HETATM    8  C   UNL     1      -9.157  11.941  68.691  1.00  0.00    -0.047 A  
HETATM    9  C   UNL     1      -7.919  11.829  68.049  1.00  0.00    -0.141 A  
HETATM   10  C   UNL     1      -7.502  12.892  67.228  1.00  0.00    -0.092 A  
HETATM   11  C   UNL     1      -8.225  14.091  67.185  1.00  0.00    -0.146 A  
BRANCH   9  12
HETATM   12  C   UNL     1      -6.942  10.730  68.410  1.00  0.00    -0.070 C  
BRANCH  12  13
HETATM   13  N   UNL     1      -6.993   9.536  67.594  1.00  0.00    -0.079 N  
HETATM   14  H   UNL     1      -6.347   9.411  66.815  1.00  0.00     0.000 HD 
BRANCH  13  15
HETATM   15  C   UNL     1      -7.928   8.575  67.889  1.00  0.00    -0.108 C  
HETATM   16  O   UNL     1      -8.312   8.409  69.050  1.00  0.00    -0.117 OA 
BRANCH  15  17
HETATM   17  N   UNL     1      -8.438   7.831  66.818  1.00  0.00    -0.123 N  
BRANCH  17  18
HETATM   18  C   UNL     1      -9.784   8.267  66.350  1.00  0.00    -0.230 C  
BRANCH  18  19
HETATM   19  C   UNL     1      -9.826   9.598  65.593  1.00  0.00    -0.369 A  
HETATM   20  C   UNL     1     -10.418  11.741  63.912  1.00  0.00    -0.390 A  
HETATM   21  C   UNL     1     -10.514  10.714  66.088  1.00  0.00    -0.260 A  
HETATM   22  C   UNL     1     -10.838  11.771  65.235  1.00  0.00    -0.343 A  
HETATM   23  F   UNL     1     -10.835  12.695  63.064  1.00  0.00    -0.407 F  
HETATM   24  C   UNL     1      -9.607  10.718  63.444  1.00  0.00    -0.375 A  
HETATM   25  C   UNL     1      -9.288   9.655  64.290  1.00  0.00    -0.178 A  
ENDBRANCH  18  19
ENDBRANCH  17  18
BRANCH  17  26
HETATM   26  C   UNL     1      -7.848   6.543  66.296  1.00  0.00    -0.105 C  
HETATM   27  C   UNL     1      -7.378   5.526  67.352  1.00  0.00    -0.076 C  
HETATM   28  C   UNL     1      -8.680   5.783  65.215  1.00  0.00    -0.100 C  
HETATM   29  C   UNL     1      -7.973   2.870  66.222  1.00  0.00    -0.082 C  
HETATM   30  C   UNL     1      -8.499   4.615  67.825  1.00  0.00    -0.103 C  
HETATM   31  N   UNL     1      -8.997   3.780  66.738  1.00  0.00    -0.131 NA 
HETATM   32  C   UNL     1      -9.573   4.635  65.702  1.00  0.00    -0.182 C  
ENDBRANCH  17  26
ENDBRANCH  15  17
ENDBRANCH  13  15
ENDBRANCH  12  13
ENDBRANCH   9  12
ENDBRANCH   5   6
ENDBRANCH   4   5
TORSDOF 9
ENDMDL
MODEL      245
REMARK 921   NORMALIZED FREE ENERGY PREDICTED BY IDOCK:   -4.43 KCAL/MOL
REMARK 922        TOTAL FREE ENERGY PREDICTED BY IDOCK:   -8.22 KCAL/MOL
REMARK 923 INTER-LIGAND FREE ENERGY PREDICTED BY IDOCK:   -7.12 KCAL/MOL
REMARK 924 INTRA-LIGAND FREE ENERGY PREDICTED BY IDOCK:   -1.10 KCAL/MOL
REMARK 927      BINDING AFFINITY PREDICTED BY RF-SCORE:    0.00 PKD
ROOT
HETATM    1  C   UNL     1     -13.163  16.085  73.480  1.00  0.00    -0.596 C  
HETATM    2  C   UNL     1     -12.839  15.685  72.039  1.00  0.00    -0.518 C  
HETATM    3  C   UNL     1     -11.352  15.368  71.901  1.00  0.00    -0.466 C  
HETATM    4  C   UNL     1     -13.740  14.538  71.543  1.00  0.00    -0.397 C  
ENDROOT
BRANCH   4   5
HETATM    5  O   UNL     1     -13.563  13.325  72.288  1.00  0.00    -0.536 OA 
BRANCH   5   6
HETATM    6  C   UNL     1     -13.125  12.251  71.551  1.00  0.00    -0.257 A  
HETATM    7  C   UNL     1     -13.174  10.918  71.970  1.00  0.00    -0.456 A  
HETATM    8  C   UNL     1     -12.490   9.918  71.251  1.00  0.00    -0.479 A  
HETATM    9  C   UNL     1     -11.778  10.237  70.089  1.00  0.00    -0.364 A  
HETATM   10  C   UNL     1     -11.886  11.545  69.587  1.00  0.00    -0.421 A  
HETATM   11  C   UNL     1     -12.552  12.541  70.313  1.00  0.00    -0.026 A  
BRANCH   9  12
HETATM   12  C   UNL     1     -10.730   9.299  69.526  1.00  0.00    -0.222 C  
BRANCH  12  13
HETATM   13  N   UNL     1     -10.044   8.459  70.483  1.00  0.00    -0.188 N  
HETATM   14  H   UNL     1      -9.403   8.865  71.165  1.00  0.00     0.000 HD 
BRANCH  13  15
HETATM   15  C   UNL     1     -10.271   7.106  70.456  1.00  0.00    -0.196 C  
HETATM   16  O   UNL     1     -11.411   6.658  70.604  1.00  0.00    -0.299 OA 
BRANCH  15  17
HETATM   17  N   UNL     1      -9.166   6.278  70.221  1.00  0.00    -0.156 N  
BRANCH  17  18
HETATM   18  C   UNL     1      -8.556   6.433  68.870  1.00  0.00    -0.123 C  
BRANCH  18  19
HETATM   19  C   UNL     1      -7.493   7.529  68.744  1.00  0.00    -0.097 A  
HETATM   20  C   UNL     1      -5.983   9.868  68.881  1.00  0.00    -0.037 A  
HETATM   21  C   UNL     1      -6.408   7.618  69.628  1.00  0.00    -0.031 A  
HETATM   22  C   UNL     1      -5.676   8.803  69.719  1.00  0.00    -0.029 A  
HETATM   23  F   UNL     1      -5.362  11.046  69.054  1.00  0.00    -0.042 F  
HETATM   24  C   UNL     1      -6.952   9.745  67.896  1.00  0.00    -0.078 A  
HETATM   25  C   UNL     1      -7.693   8.566  67.809  1.00  0.00    -0.103 A  
ENDBRANCH  18  19
ENDBRANCH  17  18
BRANCH  17  26
HETATM   26  C   UNL     1      -8.729   5.138  71.110  1.00  0.00    -0.130 C  
HETATM   27  C   UNL     1      -7.859   5.509  72.324  1.00  0.00    -0.103 C  
HETATM   28  C   UNL     1      -9.847   4.157  71.585  1.00  0.00    -0.254 C  
HETATM   29  C   UNL     1      -8.667   3.668  74.478  1.00  0.00    -0.090 C  
HETATM   30  C   UNL     1      -8.686   5.905  73.537  1.00  0.00    -0.122 C  
HETATM   31  N   UNL     1      -9.490   4.786  74.016  1.00  0.00    -0.120 NA 
HETATM   32  C   UNL     1     -10.444   4.401  72.977  1.00  0.00    -0.183 C  
ENDBRANCH  17  26
ENDBRANCH  15  17
ENDBRANCH  13  15
ENDBRANCH  12  13
ENDBRANCH   9  12
ENDBRANCH   5   6
ENDBRANCH   4   5
TORSDOF 9
ENDMDL
MODEL      246
REMARK 921   NORMALIZED FREE ENERGY PREDICTED BY IDOCK:   -4.42 KCAL/MOL
REMARK 922        TOTAL FREE ENERGY PREDICTED BY IDOCK:   -8.21 KCAL/MOL
REMARK 923 INTER-LIGAND FREE ENERGY PREDICTED BY IDOCK:   -7.30 KCAL/MOL
REMARK 924 INTRA-LIGAND FREE ENERGY PREDICTED BY IDOCK:   -0.91 KCAL/MOL
REMARK 927      BINDING AFFINITY PREDICTED BY RF-SCORE:    0.00 PKD
ROOT
HETATM    1  C   UNL     1      -9.617   5.507  69.527  1.00  0.00    -0.202 C  
HETATM    2  C   UNL     1      -8.665   4.338  69.270  1.00  0.00    -0.121 C  
HETATM    3  C   UNL     1      -9.429   3.156  68.678  1.00  0.00    -0.195 C  
HETATM    4  C   UNL     1      -7.458   4.756  68.409  1.00  0.00    -0.069 C  
ENDROOT
BRANCH   4   5
HETATM    5  O   UNL     1      -7.832   5.195  67.095  1.00  0.00    -0.095 OA 
BRANCH   5   6
HETATM    6  C   UNL     1      -8.189   6.519  67.008  1.00  0.00    -0.113 A  
HETATM    7  C   UNL     1      -9.303   7.005  66.317  1.00  0.00    -0.146 A  
HETATM    8  C   UNL     1      -9.455   8.386  66.086  1.00  0.00    -0.263 A  
HETATM    9  C   UNL     1      -8.510   9.297  66.571  1.00  0.00    -0.131 A  
HETATM   10  C   UNL     1      -7.494   8.810  67.412  1.00  0.00    -0.089 A  
HETATM   11  C   UNL     1      -7.337   7.434  67.625  1.00  0.00    -0.092 A  
BRANCH   9  12
HETATM   12  C   UNL     1      -8.420  10.705  66.022  1.00  0.00    -0.165 C  
BRANCH  12  13
HETATM   13  N   UNL     1      -9.491  11.605  66.391  1.00  0.00    -0.211 N  
HETATM   14  H   UNL     1     -10.059  12.057  65.675  1.00  0.00     0.000 HD 
BRANCH  13  15
HETATM   15  C   UNL     1      -9.727  11.838  67.723  1.00  0.00    -0.183 C  
HETATM   16  O   UNL     1      -8.815  12.209  68.466  1.00  0.00    -0.160 OA 
BRANCH  15  17
HETATM   17  N   UNL     1     -11.041  11.670  68.177  1.00  0.00    -0.224 N  
BRANCH  17  18
HETATM   18  C   UNL     1     -11.845  12.924  68.217  1.00  0.00    -0.330 C  
BRANCH  18  19
HETATM   19  C   UNL     1     -11.630  13.812  69.447  1.00  0.00    -0.365 A  
HETATM   20  C   UNL     1     -11.649  15.834  71.366  1.00  0.00    -0.445 A  
HETATM   21  C   UNL     1     -12.409  13.679  70.605  1.00  0.00    -0.440 A  
HETATM   22  C   UNL     1     -12.442  14.709  71.548  1.00  0.00    -0.411 A  
HETATM   23  F   UNL     1     -11.774  16.874  72.206  1.00  0.00    -0.533 F  
HETATM   24  C   UNL     1     -10.758  15.916  70.305  1.00  0.00    -0.313 A  
HETATM   25  C   UNL     1     -10.729  14.894  69.355  1.00  0.00    -0.264 A  
ENDBRANCH  18  19
ENDBRANCH  17  18
BRANCH  17  26
HETATM   26  C   UNL     1     -11.586  10.415  68.815  1.00  0.00    -0.119 C  
HETATM   27  C   UNL     1     -10.551   9.361  69.250  1.00  0.00    -0.239 C  
HETATM   28  C   UNL     1     -12.609  10.611  69.977  1.00  0.00    -0.232 C  
HETATM   29  C   UNL     1     -11.620   8.165  71.721  1.00  0.00    -0.291 C  
HETATM   30  C   UNL     1     -10.004   9.620  70.644  1.00  0.00    -0.231 C  
HETATM   31  N   UNL     1     -11.053   9.512  71.652  1.00  0.00    -0.347 NA 
HETATM   32  C   UNL     1     -12.060  10.543  71.409  1.00  0.00    -0.282 C  
ENDBRANCH  17  26
ENDBRANCH  15  17
ENDBRANCH  13  15
ENDBRANCH  12  13
ENDBRANCH   9  12
ENDBRANCH   5   6
ENDBRANCH   4   5
TORSDOF 9
ENDMDL
MODEL      247
REMARK 921   NORMALIZED FREE ENERGY PREDICTED BY IDOCK:   -4.41 KCAL/MOL
REMARK 922        TOTAL FREE ENERGY PREDICTED BY IDOCK:   -8.20 KCAL/MOL
REMARK 923 INTER-LIGAND FREE ENERGY PREDICTED BY IDOCK:   -5.81 KCAL/MOL
REMARK 924 INTRA-LIGAND FREE ENERGY PREDICTED BY IDOCK:   -2.39 KCAL/MOL
REMARK 927      BINDING AFFINITY PREDICTED BY RF-SCORE:    0.00 PKD
ROOT
HETATM    1  C   UNL     1     -11.435  14.367  68.782  1.00  0.00    -0.319 C  
HETATM    2  C   UNL     1     -10.771  15.616  68.200  1.00  0.00    -0.287 C  
HETATM    3  C   UNL     1     -10.784  16.747  69.226  1.00  0.00    -0.324 C  
HETATM    4  C   UNL     1      -9.358  15.320  67.662  1.00  0.00    -0.199 C  
ENDROOT
BRANCH   4   5
HETATM    5  O   UNL     1      -8.449  14.885  68.683  1.00  0.00    -0.152 OA 
BRANCH   5   6
HETATM    6  C   UNL     1      -7.735  13.751  68.378  1.00  0.00    -0.134 A  
HETATM    7  C   UNL     1      -6.487  13.736  67.747  1.00  0.00    -0.178 A  
HETATM    8  C   UNL     1      -5.945  12.529  67.266  1.00  0.00    -0.111 A  
HETATM    9  C   UNL     1      -6.630  11.321  67.439  1.00  0.00    -0.081 A  
HETATM   10  C   UNL     1      -7.793  11.330  68.228  1.00  0.00    -0.130 A  
HETATM   11  C   UNL     1      -8.339  12.534  68.690  1.00  0.00     0.021 A  
BRANCH   9  12
HETATM   12  C   UNL     1      -6.291  10.098  66.613  1.00  0.00    -0.072 C  
BRANCH  12  13
HETATM   13  N   UNL     1      -7.075   8.912  66.876  1.00  0.00    -0.081 N  
HETATM   14  H   UNL     1      -6.856   8.309  67.670  1.00  0.00     0.000 HD 
BRANCH  13  15
HETATM   15  C   UNL     1      -8.119   8.611  66.037  1.00  0.00    -0.109 C  
HETATM   16  O   UNL     1      -8.252   9.204  64.963  1.00  0.00    -0.132 OA 
BRANCH  15  17
HETATM   17  N   UNL     1      -8.989   7.591  66.441  1.00  0.00    -0.161 N  
BRANCH  17  18
HETATM   18  C   UNL     1     -10.375   8.047  66.747  1.00  0.00    -0.290 C  
BRANCH  18  19
HETATM   19  C   UNL     1     -10.521   8.946  67.979  1.00  0.00    -0.263 A  
HETATM   20  C   UNL     1     -11.377  10.290  70.266  1.00  0.00    -0.323 A  
HETATM   21  C   UNL     1     -10.054   8.558  69.243  1.00  0.00    -0.203 A  
HETATM   22  C   UNL     1     -10.511   9.212  70.389  1.00  0.00    -0.268 A  
HETATM   23  F   UNL     1     -11.912  10.838  71.369  1.00  0.00    -0.406 F  
HETATM   24  C   UNL     1     -11.730  10.785  69.018  1.00  0.00    -0.357 A  
HETATM   25  C   UNL     1     -11.283  10.128  67.871  1.00  0.00    -0.234 A  
ENDBRANCH  18  19
ENDBRANCH  17  18
BRANCH  17  26
HETATM   26  C   UNL     1      -8.573   6.183  66.794  1.00  0.00    -0.111 C  
HETATM   27  C   UNL     1      -9.705   5.202  67.154  1.00  0.00    -0.171 C  
HETATM   28  C   UNL     1      -7.603   5.472  65.798  1.00  0.00    -0.083 C  
HETATM   29  C   UNL     1      -8.862   2.586  66.092  1.00  0.00    -0.132 C  
HETATM   30  C   UNL     1     -10.306   4.530  65.931  1.00  0.00    -0.258 C  
HETATM   31  N   UNL     1      -9.324   3.691  65.252  1.00  0.00    -0.151 NA 
HETATM   32  C   UNL     1      -8.233   4.531  64.763  1.00  0.00    -0.108 C  
ENDBRANCH  17  26
ENDBRANCH  15  17
ENDBRANCH  13  15
ENDBRANCH  12  13
ENDBRANCH   9  12
ENDBRANCH   5   6
ENDBRANCH   4   5
TORSDOF 9
ENDMDL
MODEL      248
REMARK 921   NORMALIZED FREE ENERGY PREDICTED BY IDOCK:   -4.40 KCAL/MOL
REMARK 922        TOTAL FREE ENERGY PREDICTED BY IDOCK:   -8.18 KCAL/MOL
REMARK 923 INTER-LIGAND FREE ENERGY PREDICTED BY IDOCK:   -6.00 KCAL/MOL
REMARK 924 INTRA-LIGAND FREE ENERGY PREDICTED BY IDOCK:   -2.19 KCAL/MOL
REMARK 927      BINDING AFFINITY PREDICTED BY RF-SCORE:    0.00 PKD
ROOT
HETATM    1  C   UNL     1     -12.030  13.704  68.525  1.00  0.00    -0.396 C  
HETATM    2  C   UNL     1     -11.922  14.109  67.054  1.00  0.00    -0.471 C  
HETATM    3  C   UNL     1     -11.201  15.449  66.927  1.00  0.00    -0.214 C  
HETATM    4  C   UNL     1     -11.277  13.003  66.197  1.00  0.00    -0.291 C  
ENDROOT
BRANCH   4   5
HETATM    5  O   UNL     1      -9.924  12.717  66.579  1.00  0.00    -0.241 OA 
BRANCH   5   6
HETATM    6  C   UNL     1      -9.393  11.579  66.021  1.00  0.00    -0.223 A  
HETATM    7  C   UNL     1      -9.842  10.981  64.839  1.00  0.00    -0.327 A  
HETATM    8  C   UNL     1      -9.397   9.696  64.474  1.00  0.00    -0.247 A  
HETATM    9  C   UNL     1      -8.473   9.010  65.271  1.00  0.00    -0.181 A  
HETATM   10  C   UNL     1      -7.900   9.695  66.356  1.00  0.00    -0.101 A  
HETATM   11  C   UNL     1      -8.359  10.966  66.726  1.00  0.00    -0.138 A  
BRANCH   9  12
HETATM   12  C   UNL     1      -8.277   7.514  65.138  1.00  0.00    -0.120 C  
BRANCH  12  13
HETATM   13  N   UNL     1      -7.689   6.843  66.276  1.00  0.00    -0.092 N  
HETATM   14  H   UNL     1      -7.004   7.319  66.863  1.00  0.00     0.000 HD 
BRANCH  13  15
HETATM   15  C   UNL     1      -8.070   5.553  66.550  1.00  0.00    -0.105 C  
HETATM   16  O   UNL     1      -7.724   4.626  65.813  1.00  0.00    -0.092 OA 
BRANCH  15  17
HETATM   17  N   UNL     1      -8.830   5.344  67.708  1.00  0.00    -0.106 N  
BRANCH  17  18
HETATM   18  C   UNL     1     -10.259   5.749  67.590  1.00  0.00    -0.193 C  
BRANCH  18  19
HETATM   19  C   UNL     1     -10.724   6.837  68.563  1.00  0.00    -0.280 A  
HETATM   20  C   UNL     1     -11.070   8.593  70.700  1.00  0.00    -0.249 A  
HETATM   21  C   UNL     1     -10.268   8.161  68.471  1.00  0.00    -0.233 A  
HETATM   22  C   UNL     1     -10.413   9.027  69.557  1.00  0.00    -0.223 A  
HETATM   23  F   UNL     1     -11.100   9.382  71.786  1.00  0.00    -0.407 F  
HETATM   24  C   UNL     1     -11.660   7.338  70.752  1.00  0.00    -0.334 A  
HETATM   25  C   UNL     1     -11.509   6.466  69.673  1.00  0.00    -0.446 A  
ENDBRANCH  18  19
ENDBRANCH  17  18
BRANCH  17  26
HETATM   26  C   UNL     1      -8.268   4.979  69.062  1.00  0.00    -0.087 C  
HETATM   27  C   UNL     1      -8.097   3.476  69.351  1.00  0.00    -0.064 C  
HETATM   28  C   UNL     1      -6.964   5.718  69.498  1.00  0.00    -0.063 C  
HETATM   29  C   UNL     1      -5.652   3.251  70.981  1.00  0.00    -0.012 C  
HETATM   30  C   UNL     1      -6.769   2.933  68.850  1.00  0.00    -0.037 C  
HETATM   31  N   UNL     1      -5.647   3.551  69.549  1.00  0.00    -0.016 NA 
HETATM   32  C   UNL     1      -5.636   4.984  69.265  1.00  0.00    -0.008 C  
ENDBRANCH  17  26
ENDBRANCH  15  17
ENDBRANCH  13  15
ENDBRANCH  12  13
ENDBRANCH   9  12
ENDBRANCH   5   6
ENDBRANCH   4   5
TORSDOF 9
ENDMDL
MODEL      249
REMARK 921   NORMALIZED FREE ENERGY PREDICTED BY IDOCK:   -4.39 KCAL/MOL
REMARK 922        TOTAL FREE ENERGY PREDICTED BY IDOCK:   -8.17 KCAL/MOL
REMARK 923 INTER-LIGAND FREE ENERGY PREDICTED BY IDOCK:   -5.91 KCAL/MOL
REMARK 924 INTRA-LIGAND FREE ENERGY PREDICTED BY IDOCK:   -2.27 KCAL/MOL
REMARK 927      BINDING AFFINITY PREDICTED BY RF-SCORE:    0.00 PKD
ROOT
HETATM    1  C   UNL     1     -12.330   8.984  72.175  1.00  0.00    -0.442 C  
HETATM    2  C   UNL     1     -13.017   7.626  72.329  1.00  0.00    -0.024 C  
HETATM    3  C   UNL     1     -14.329   7.607  71.548  1.00  0.00    -0.589 C  
HETATM    4  C   UNL     1     -12.083   6.461  71.948  1.00  0.00    -0.310 C  
ENDROOT
BRANCH   4   5
HETATM    5  O   UNL     1     -11.680   6.493  70.572  1.00  0.00    -0.380 OA 
BRANCH   5   6
HETATM    6  C   UNL     1     -10.532   7.206  70.322  1.00  0.00    -0.217 A  
HETATM    7  C   UNL     1      -9.329   7.060  71.020  1.00  0.00    -0.159 A  
HETATM    8  C   UNL     1      -8.287   7.993  70.852  1.00  0.00    -0.119 A  
HETATM    9  C   UNL     1      -8.426   9.063  69.960  1.00  0.00    -0.149 A  
HETATM   10  C   UNL     1      -9.567   9.094  69.140  1.00  0.00    -0.161 A  
HETATM   11  C   UNL     1     -10.609   8.175  69.322  1.00  0.00    -0.191 A  
BRANCH   9  12
HETATM   12  C   UNL     1      -7.524  10.276  70.041  1.00  0.00    -0.132 C  
BRANCH  12  13
HETATM   13  N   UNL     1      -8.033  11.491  69.444  1.00  0.00    -0.343 N  
HETATM   14  H   UNL     1      -8.905  11.907  69.773  1.00  0.00     0.000 HD 
BRANCH  13  15
HETATM   15  C   UNL     1      -7.321  12.075  68.426  1.00  0.00    -0.096 C  
HETATM   16  O   UNL     1      -6.410  12.869  68.672  1.00  0.00    -0.066 OA 
BRANCH  15  17
HETATM   17  N   UNL     1      -7.655  11.701  67.118  1.00  0.00    -0.145 N  
BRANCH  17  18
HETATM   18  C   UNL     1      -6.603  10.914  66.414  1.00  0.00    -0.134 C  
BRANCH  18  19
HETATM   19  C   UNL     1      -7.019   9.516  65.947  1.00  0.00    -0.091 A  
HETATM   20  C   UNL     1      -8.297   7.081  65.491  1.00  0.00    -0.133 A  
HETATM   21  C   UNL     1      -7.752   9.313  64.769  1.00  0.00    -0.111 A  
HETATM   22  C   UNL     1      -8.418   8.103  64.560  1.00  0.00    -0.013 A  
HETATM   23  F   UNL     1      -9.035   5.968  65.351  1.00  0.00    -0.157 F  
HETATM   24  C   UNL     1      -7.455   7.209  66.586  1.00  0.00    -0.088 A  
HETATM   25  C   UNL     1      -6.795   8.418  66.805  1.00  0.00    -0.069 A  
ENDBRANCH  18  19
ENDBRANCH  17  18
BRANCH  17  26
HETATM   26  C   UNL     1      -8.843  12.218  66.343  1.00  0.00    -0.071 C  
HETATM   27  C   UNL     1     -10.166  11.451  66.523  1.00  0.00    -0.259 C  
HETATM   28  C   UNL     1      -9.139  13.746  66.457  1.00  0.00    -0.149 C  
HETATM   29  C   UNL     1     -12.291  13.490  66.417  1.00  0.00    -0.357 C  
HETATM   30  C   UNL     1     -10.962  11.935  67.724  1.00  0.00    -0.228 C  
HETATM   31  N   UNL     1     -11.385  13.321  67.554  1.00  0.00    -0.281 NA 
HETATM   32  C   UNL     1     -10.203  14.177  67.475  1.00  0.00    -0.241 C  
ENDBRANCH  17  26
ENDBRANCH  15  17
ENDBRANCH  13  15
ENDBRANCH  12  13
ENDBRANCH   9  12
ENDBRANCH   5   6
ENDBRANCH   4   5
TORSDOF 9
ENDMDL
MODEL      250
REMARK 921   NORMALIZED FREE ENERGY PREDICTED BY IDOCK:   -4.36 KCAL/MOL
REMARK 922        TOTAL FREE ENERGY PREDICTED BY IDOCK:   -8.13 KCAL/MOL
REMARK 923 INTER-LIGAND FREE ENERGY PREDICTED BY IDOCK:   -6.90 KCAL/MOL
REMARK 924 INTRA-LIGAND FREE ENERGY PREDICTED BY IDOCK:   -1.23 KCAL/MOL
REMARK 927      BINDING AFFINITY PREDICTED BY RF-SCORE:    0.00 PKD
ROOT
HETATM    1  C   UNL     1      -7.953  19.517  68.643  1.00  0.00    -0.381 C  
HETATM    2  C   UNL     1      -8.046  20.320  67.344  1.00  0.00    -0.377 C  
HETATM    3  C   UNL     1      -6.759  21.108  67.117  1.00  0.00    -0.411 C  
HETATM    4  C   UNL     1      -8.418  19.430  66.142  1.00  0.00    -0.291 C  
ENDROOT
BRANCH   4   5
HETATM    5  O   UNL     1      -7.431  18.428  65.862  1.00  0.00    -0.428 OA 
BRANCH   5   6
HETATM    6  C   UNL     1      -7.753  17.162  66.291  1.00  0.00    -0.315 A  
HETATM    7  C   UNL     1      -9.047  16.633  66.324  1.00  0.00    -0.333 A  
HETATM    8  C   UNL     1      -9.306  15.423  66.997  1.00  0.00    -0.238 A  
HETATM    9  C   UNL     1      -8.269  14.715  67.615  1.00  0.00    -0.182 A  
HETATM   10  C   UNL     1      -6.953  15.168  67.420  1.00  0.00    -0.195 A  
HETATM   11  C   UNL     1      -6.701  16.381  66.766  1.00  0.00    -0.144 A  
BRANCH   9  12
HETATM   12  C   UNL     1      -8.552  13.654  68.658  1.00  0.00    -0.031 C  
BRANCH  12  13
HETATM   13  N   UNL     1      -7.473  12.734  68.943  1.00  0.00    -0.284 N  
HETATM   14  H   UNL     1      -6.880  12.867  69.763  1.00  0.00     0.000 HD 
BRANCH  13  15
HETATM   15  C   UNL     1      -7.261  11.680  68.090  1.00  0.00    -0.085 C  
HETATM   16  O   UNL     1      -6.419  11.759  67.192  1.00  0.00    -0.118 OA 
BRANCH  15  17
HETATM   17  N   UNL     1      -8.013  10.520  68.310  1.00  0.00    -0.109 N  
BRANCH  17  18
HETATM   18  C   UNL     1      -8.081  10.090  69.736  1.00  0.00    -0.177 C  
BRANCH  18  19
HETATM   19  C   UNL     1      -9.450   9.600  70.217  1.00  0.00    -0.300 A  
HETATM   20  C   UNL     1     -11.702   8.865  71.687  1.00  0.00    -0.341 A  
HETATM   21  C   UNL     1     -10.567  10.447  70.270  1.00  0.00    -0.184 A  
HETATM   22  C   UNL     1     -11.680  10.091  71.035  1.00  0.00    -0.479 A  
HETATM   23  F   UNL     1     -12.716   8.578  72.520  1.00  0.00    -0.385 F  
HETATM   24  C   UNL     1     -10.673   7.950  71.523  1.00  0.00    -0.267 A  
HETATM   25  C   UNL     1      -9.554   8.306  70.768  1.00  0.00    -0.196 A  
ENDBRANCH  18  19
ENDBRANCH  17  18
BRANCH  17  26
HETATM   26  C   UNL     1      -8.529   9.600  67.229  1.00  0.00    -0.132 C  
HETATM   27  C   UNL     1      -9.267  10.268  66.054  1.00  0.00    -0.200 C  
HETATM   28  C   UNL     1      -7.513   8.566  66.650  1.00  0.00    -0.082 C  
HETATM   29  C   UNL     1      -8.555   8.694  63.667  1.00  0.00     0.005 C  
HETATM   30  C   UNL     1      -8.321  10.735  64.960  1.00  0.00    -0.046 C  
HETATM   31  N   UNL     1      -7.632   9.608  64.341  1.00  0.00    -0.122 NA 
HETATM   32  C   UNL     1      -6.802   8.943  65.344  1.00  0.00    -0.072 C  
ENDBRANCH  17  26
ENDBRANCH  15  17
ENDBRANCH  13  15
ENDBRANCH  12  13
ENDBRANCH   9  12
ENDBRANCH   5   6
ENDBRANCH   4   5
TORSDOF 9
ENDMDL
MODEL      251
REMARK 921   NORMALIZED FREE ENERGY PREDICTED BY IDOCK:   -4.36 KCAL/MOL
REMARK 922        TOTAL FREE ENERGY PREDICTED BY IDOCK:   -8.13 KCAL/MOL
REMARK 923 INTER-LIGAND FREE ENERGY PREDICTED BY IDOCK:   -6.13 KCAL/MOL
REMARK 924 INTRA-LIGAND FREE ENERGY PREDICTED BY IDOCK:   -2.00 KCAL/MOL
REMARK 927      BINDING AFFINITY PREDICTED BY RF-SCORE:    0.00 PKD
ROOT
HETATM    1  C   UNL     1      -7.505   2.928  65.540  1.00  0.00    -0.072 C  
HETATM    2  C   UNL     1      -8.077   4.347  65.561  1.00  0.00    -0.105 C  
HETATM    3  C   UNL     1      -9.582   4.313  65.306  1.00  0.00    -0.186 C  
HETATM    4  C   UNL     1      -7.710   5.097  66.855  1.00  0.00    -0.092 C  
ENDROOT
BRANCH   4   5
HETATM    5  O   UNL     1      -8.257   4.484  68.032  1.00  0.00    -0.094 OA 
BRANCH   5   6
HETATM    6  C   UNL     1      -8.857   5.353  68.911  1.00  0.00    -0.100 A  
HETATM    7  C   UNL     1     -10.192   5.283  69.321  1.00  0.00    -0.301 A  
HETATM    8  C   UNL     1     -10.777   6.347  70.035  1.00  0.00    -0.316 A  
HETATM    9  C   UNL     1     -10.023   7.477  70.373  1.00  0.00    -0.184 A  
HETATM   10  C   UNL     1      -8.643   7.454  70.109  1.00  0.00    -0.139 A  
HETATM   11  C   UNL     1      -8.069   6.402  69.383  1.00  0.00    -0.118 A  
BRANCH   9  12
HETATM   12  C   UNL     1     -10.690   8.777  70.773  1.00  0.00    -0.228 C  
BRANCH  12  13
HETATM   13  N   UNL     1     -10.201   9.973  70.122  1.00  0.00    -0.342 N  
HETATM   14  H   UNL     1      -9.752  10.712  70.663  1.00  0.00     0.000 HD 
BRANCH  13  15
HETATM   15  C   UNL     1     -10.353  10.093  68.763  1.00  0.00    -0.194 C  
HETATM   16  O   UNL     1     -11.461   9.950  68.240  1.00  0.00    -0.072 OA 
BRANCH  15  17
HETATM   17  N   UNL     1      -9.210  10.416  68.020  1.00  0.00    -0.138 N  
BRANCH  17  18
HETATM   18  C   UNL     1      -8.967  11.878  67.865  1.00  0.00    -0.179 C  
BRANCH  18  19
HETATM   19  C   UNL     1     -10.012  12.642  67.046  1.00  0.00    -0.220 A  
HETATM   20  C   UNL     1     -12.316  13.554  65.767  1.00  0.00    -0.468 A  
HETATM   21  C   UNL     1     -10.742  13.712  67.584  1.00  0.00    -0.253 A  
HETATM   22  C   UNL     1     -11.914  14.144  66.959  1.00  0.00    -0.471 A  
HETATM   23  F   UNL     1     -13.503  13.883  65.234  1.00  0.00    -0.338 F  
HETATM   24  C   UNL     1     -11.527  12.600  65.142  1.00  0.00    -0.363 A  
HETATM   25  C   UNL     1     -10.360  12.158  65.767  1.00  0.00    -0.289 A  
ENDBRANCH  18  19
ENDBRANCH  17  18
BRANCH  17  26
HETATM   26  C   UNL     1      -8.393   9.435  67.213  1.00  0.00    -0.125 C  
HETATM   27  C   UNL     1      -9.167   8.549  66.220  1.00  0.00    -0.262 C  
HETATM   28  C   UNL     1      -7.135  10.007  66.487  1.00  0.00    -0.097 C  
HETATM   29  C   UNL     1      -7.387   8.211  63.897  1.00  0.00    -0.101 C  
HETATM   30  C   UNL     1      -9.367   9.220  64.872  1.00  0.00    -0.073 C  
HETATM   31  N   UNL     1      -8.092   9.456  64.204  1.00  0.00    -0.136 NA 
HETATM   32  C   UNL     1      -7.293  10.380  65.007  1.00  0.00    -0.070 C  
ENDBRANCH  17  26
ENDBRANCH  15  17
ENDBRANCH  13  15
ENDBRANCH  12  13
ENDBRANCH   9  12
ENDBRANCH   5   6
ENDBRANCH   4   5
TORSDOF 9
ENDMDL
MODEL      252
REMARK 921   NORMALIZED FREE ENERGY PREDICTED BY IDOCK:   -4.36 KCAL/MOL
REMARK 922        TOTAL FREE ENERGY PREDICTED BY IDOCK:   -8.12 KCAL/MOL
REMARK 923 INTER-LIGAND FREE ENERGY PREDICTED BY IDOCK:   -6.78 KCAL/MOL
REMARK 924 INTRA-LIGAND FREE ENERGY PREDICTED BY IDOCK:   -1.35 KCAL/MOL
REMARK 927      BINDING AFFINITY PREDICTED BY RF-SCORE:    0.00 PKD
ROOT
HETATM    1  C   UNL     1      -6.840   2.186  72.809  1.00  0.00    -0.023 C  
HETATM    2  C   UNL     1      -6.570   2.808  71.438  1.00  0.00    -0.019 C  
HETATM    3  C   UNL     1      -7.050   1.873  70.330  1.00  0.00    -0.033 C  
HETATM    4  C   UNL     1      -7.165   4.223  71.320  1.00  0.00    -0.040 C  
ENDROOT
BRANCH   4   5
HETATM    5  O   UNL     1      -8.595   4.240  71.434  1.00  0.00    -0.098 OA 
BRANCH   5   6
HETATM    6  C   UNL     1      -9.214   5.291  70.800  1.00  0.00    -0.152 A  
HETATM    7  C   UNL     1     -10.489   5.243  70.228  1.00  0.00    -0.332 A  
HETATM    8  C   UNL     1     -10.940   6.289  69.399  1.00  0.00    -0.440 A  
HETATM    9  C   UNL     1     -10.133   7.407  69.160  1.00  0.00    -0.189 A  
HETATM   10  C   UNL     1      -8.932   7.520  69.881  1.00  0.00    -0.141 A  
HETATM   11  C   UNL     1      -8.478   6.470  70.691  1.00  0.00    -0.134 A  
BRANCH   9  12
HETATM   12  C   UNL     1     -10.401   8.336  67.995  1.00  0.00    -0.213 C  
BRANCH  12  13
HETATM   13  N   UNL     1     -11.222   9.493  68.275  1.00  0.00    -0.505 N  
HETATM   14  H   UNL     1     -12.217   9.491  68.049  1.00  0.00     0.000 HD 
BRANCH  13  15
HETATM   15  C   UNL     1     -10.638  10.593  68.852  1.00  0.00    -0.212 C  
HETATM   16  O   UNL     1     -10.230  10.550  70.015  1.00  0.00    -0.163 OA 
BRANCH  15  17
HETATM   17  N   UNL     1     -10.502  11.736  68.053  1.00  0.00    -0.193 N  
BRANCH  17  18
HETATM   18  C   UNL     1     -11.769  12.489  67.832  1.00  0.00    -0.359 C  
BRANCH  18  19
HETATM   19  C   UNL     1     -11.999  13.687  68.758  1.00  0.00    -0.394 A  
HETATM   20  C   UNL     1     -11.818  15.711  70.667  1.00  0.00    -0.376 A  
HETATM   21  C   UNL     1     -11.683  14.997  68.370  1.00  0.00    -0.341 A  
HETATM   22  C   UNL     1     -11.560  16.001  69.334  1.00  0.00    -0.320 A  
HETATM   23  F   UNL     1     -11.580  16.642  71.605  1.00  0.00    -0.473 F  
HETATM   24  C   UNL     1     -12.280  14.460  71.048  1.00  0.00    -0.422 A  
HETATM   25  C   UNL     1     -12.395  13.451  70.091  1.00  0.00    -0.322 A  
ENDBRANCH  18  19
ENDBRANCH  17  18
BRANCH  17  26
HETATM   26  C   UNL     1      -9.272  12.096  67.255  1.00  0.00    -0.185 C  
HETATM   27  C   UNL     1      -8.178  12.885  67.999  1.00  0.00    -0.168 C  
HETATM   28  C   UNL     1      -8.591  10.937  66.461  1.00  0.00    -0.156 C  
HETATM   29  C   UNL     1      -5.616  11.908  66.919  1.00  0.00    -0.111 C  
HETATM   30  C   UNL     1      -7.212  11.980  68.746  1.00  0.00    -0.108 C  
HETATM   31  N   UNL     1      -6.462  11.132  67.826  1.00  0.00    -0.061 NA 
HETATM   32  C   UNL     1      -7.391  10.248  67.124  1.00  0.00    -0.091 C  
ENDBRANCH  17  26
ENDBRANCH  15  17
ENDBRANCH  13  15
ENDBRANCH  12  13
ENDBRANCH   9  12
ENDBRANCH   5   6
ENDBRANCH   4   5
TORSDOF 9
ENDMDL
MODEL      253
REMARK 921   NORMALIZED FREE ENERGY PREDICTED BY IDOCK:   -4.34 KCAL/MOL
REMARK 922        TOTAL FREE ENERGY PREDICTED BY IDOCK:   -8.09 KCAL/MOL
REMARK 923 INTER-LIGAND FREE ENERGY PREDICTED BY IDOCK:   -6.60 KCAL/MOL
REMARK 924 INTRA-LIGAND FREE ENERGY PREDICTED BY IDOCK:   -1.49 KCAL/MOL
REMARK 927      BINDING AFFINITY PREDICTED BY RF-SCORE:    0.00 PKD
ROOT
HETATM    1  C   UNL     1     -11.411   8.557  70.574  1.00  0.00    -0.235 C  
HETATM    2  C   UNL     1     -11.668   7.548  71.694  1.00  0.00    -0.313 C  
HETATM    3  C   UNL     1     -13.164   7.263  71.814  1.00  0.00    -0.368 C  
HETATM    4  C   UNL     1     -10.831   6.267  71.520  1.00  0.00    -0.254 C  
ENDROOT
BRANCH   4   5
HETATM    5  O   UNL     1     -11.153   5.546  70.322  1.00  0.00    -0.231 OA 
BRANCH   5   6
HETATM    6  C   UNL     1     -10.391   5.874  69.227  1.00  0.00    -0.246 A  
HETATM    7  C   UNL     1      -9.003   6.043  69.238  1.00  0.00    -0.122 A  
HETATM    8  C   UNL     1      -8.342   6.607  68.129  1.00  0.00    -0.117 A  
HETATM    9  C   UNL     1      -9.060   6.978  66.986  1.00  0.00    -0.150 A  
HETATM   10  C   UNL     1     -10.423   6.640  66.923  1.00  0.00    -0.349 A  
HETATM   11  C   UNL     1     -11.079   6.095  68.035  1.00  0.00    -0.316 A  
BRANCH   9  12
HETATM   12  C   UNL     1      -8.473   7.926  65.961  1.00  0.00    -0.138 C  
BRANCH  12  13
HETATM   13  N   UNL     1      -7.663   9.006  66.481  1.00  0.00    -0.095 N  
HETATM   14  H   UNL     1      -6.981   8.835  67.220  1.00  0.00     0.000 HD 
BRANCH  13  15
HETATM   15  C   UNL     1      -7.831  10.266  65.961  1.00  0.00    -0.133 C  
HETATM   16  O   UNL     1      -7.111  10.666  65.042  1.00  0.00    -0.045 OA 
BRANCH  15  17
HETATM   17  N   UNL     1      -8.865  11.044  66.495  1.00  0.00    -0.163 N  
BRANCH  17  18
HETATM   18  C   UNL     1      -8.673  11.430  67.922  1.00  0.00    -0.145 C  
BRANCH  18  19
HETATM   19  C   UNL     1      -7.743  12.622  68.168  1.00  0.00    -0.142 A  
HETATM   20  C   UNL     1      -6.517  14.964  69.052  1.00  0.00    -0.102 A  
HETATM   21  C   UNL     1      -6.683  12.562  69.084  1.00  0.00    -0.089 A  
HETATM   22  C   UNL     1      -6.093  13.739  69.550  1.00  0.00    -0.112 A  
HETATM   23  F   UNL     1      -6.038  16.098  69.590  1.00  0.00    -0.140 F  
HETATM   24  C   UNL     1      -7.458  15.035  68.036  1.00  0.00    -0.130 A  
HETATM   25  C   UNL     1      -8.057  13.863  67.574  1.00  0.00    -0.191 A  
ENDBRANCH  18  19
ENDBRANCH  17  18
BRANCH  17  26
HETATM   26  C   UNL     1     -10.194  11.301  65.826  1.00  0.00    -0.251 C  
HETATM   27  C   UNL     1     -11.370  11.665  66.752  1.00  0.00    -0.354 C  
HETATM   28  C   UNL     1     -10.189  12.294  64.622  1.00  0.00    -0.311 C  
HETATM   29  C   UNL     1     -12.993  13.614  65.252  1.00  0.00    -0.259 C  
HETATM   30  C   UNL     1     -11.435  13.152  67.055  1.00  0.00    -0.336 C  
HETATM   31  N   UNL     1     -11.693  13.928  65.847  1.00  0.00    -0.345 NA 
HETATM   32  C   UNL     1     -10.582  13.748  64.915  1.00  0.00    -0.413 C  
ENDBRANCH  17  26
ENDBRANCH  15  17
ENDBRANCH  13  15
ENDBRANCH  12  13
ENDBRANCH   9  12
ENDBRANCH   5   6
ENDBRANCH   4   5
TORSDOF 9
ENDMDL
MODEL      254
REMARK 921   NORMALIZED FREE ENERGY PREDICTED BY IDOCK:   -4.33 KCAL/MOL
REMARK 922        TOTAL FREE ENERGY PREDICTED BY IDOCK:   -8.07 KCAL/MOL
REMARK 923 INTER-LIGAND FREE ENERGY PREDICTED BY IDOCK:   -6.12 KCAL/MOL
REMARK 924 INTRA-LIGAND FREE ENERGY PREDICTED BY IDOCK:   -1.95 KCAL/MOL
REMARK 927      BINDING AFFINITY PREDICTED BY RF-SCORE:    0.00 PKD
ROOT
HETATM    1  C   UNL     1     -11.672  11.444  67.472  1.00  0.00    -0.220 C  
HETATM    2  C   UNL     1     -11.551  12.339  66.238  1.00  0.00    -0.446 C  
HETATM    3  C   UNL     1     -11.983  13.764  66.573  1.00  0.00    -0.470 C  
HETATM    4  C   UNL     1     -10.142  12.277  65.617  1.00  0.00    -0.252 C  
ENDROOT
BRANCH   4   5
HETATM    5  O   UNL     1      -9.120  12.760  66.499  1.00  0.00    -0.218 OA 
BRANCH   5   6
HETATM    6  C   UNL     1      -8.302  11.789  67.026  1.00  0.00    -0.172 A  
HETATM    7  C   UNL     1      -7.651  10.801  66.282  1.00  0.00    -0.142 A  
HETATM    8  C   UNL     1      -7.030   9.714  66.927  1.00  0.00    -0.085 A  
HETATM    9  C   UNL     1      -7.027   9.622  68.324  1.00  0.00    -0.073 A  
HETATM   10  C   UNL     1      -7.529  10.710  69.058  1.00  0.00    -0.117 A  
HETATM   11  C   UNL     1      -8.162  11.781  68.413  1.00  0.00    -0.154 A  
BRANCH   9  12
HETATM   12  C   UNL     1      -6.734   8.313  69.026  1.00  0.00    -0.048 C  
BRANCH  12  13
HETATM   13  N   UNL     1      -7.432   7.149  68.526  1.00  0.00    -0.103 N  
HETATM   14  H   UNL     1      -6.956   6.474  67.929  1.00  0.00     0.000 HD 
BRANCH  13  15
HETATM   15  C   UNL     1      -8.749   6.972  68.871  1.00  0.00    -0.131 C  
HETATM   16  O   UNL     1      -9.650   7.454  68.179  1.00  0.00    -0.141 OA 
BRANCH  15  17
HETATM   17  N   UNL     1      -9.013   6.200  70.010  1.00  0.00    -0.146 N  
BRANCH  17  18
HETATM   18  C   UNL     1      -9.076   6.977  71.280  1.00  0.00    -0.152 C  
BRANCH  18  19
HETATM   19  C   UNL     1     -10.345   7.809  71.488  1.00  0.00    -0.227 A  
HETATM   20  C   UNL     1     -12.730   9.226  71.217  1.00  0.00    -0.299 A  
HETATM   21  C   UNL     1     -11.561   7.226  71.876  1.00  0.00    -0.313 A  
HETATM   22  C   UNL     1     -12.757   7.927  71.707  1.00  0.00    -0.353 A  
HETATM   23  F   UNL     1     -13.885   9.852  70.940  1.00  0.00    -0.385 F  
HETATM   24  C   UNL     1     -11.527   9.872  70.972  1.00  0.00    -0.466 A  
HETATM   25  C   UNL     1     -10.330   9.173  71.130  1.00  0.00    -0.387 A  
ENDBRANCH  18  19
ENDBRANCH  17  18
BRANCH  17  26
HETATM   26  C   UNL     1      -9.001   4.691  70.058  1.00  0.00    -0.093 C  
HETATM   27  C   UNL     1      -7.630   4.010  69.888  1.00  0.00    -0.052 C  
HETATM   28  C   UNL     1      -9.737   4.026  71.264  1.00  0.00    -0.255 C  
HETATM   29  C   UNL     1      -7.695   1.640  71.639  1.00  0.00    -0.040 C  
HETATM   30  C   UNL     1      -6.875   3.882  71.201  1.00  0.00    -0.032 C  
HETATM   31  N   UNL     1      -7.582   3.012  72.135  1.00  0.00    -0.052 NA 
HETATM   32  C   UNL     1      -8.875   3.609  72.463  1.00  0.00    -0.093 C  
ENDBRANCH  17  26
ENDBRANCH  15  17
ENDBRANCH  13  15
ENDBRANCH  12  13
ENDBRANCH   9  12
ENDBRANCH   5   6
ENDBRANCH   4   5
TORSDOF 9
ENDMDL
MODEL      255
REMARK 921   NORMALIZED FREE ENERGY PREDICTED BY IDOCK:   -4.32 KCAL/MOL
REMARK 922        TOTAL FREE ENERGY PREDICTED BY IDOCK:   -8.06 KCAL/MOL
REMARK 923 INTER-LIGAND FREE ENERGY PREDICTED BY IDOCK:   -7.23 KCAL/MOL
REMARK 924 INTRA-LIGAND FREE ENERGY PREDICTED BY IDOCK:   -0.83 KCAL/MOL
REMARK 927      BINDING AFFINITY PREDICTED BY RF-SCORE:    0.00 PKD
ROOT
HETATM    1  C   UNL     1      -7.749   3.101  70.563  1.00  0.00    -0.043 C  
HETATM    2  C   UNL     1      -9.254   3.035  70.295  1.00  0.00    -0.213 C  
HETATM    3  C   UNL     1      -9.945   2.192  71.364  1.00  0.00    -0.106 C  
HETATM    4  C   UNL     1      -9.876   4.437  70.150  1.00  0.00    -0.217 C  
ENDROOT
BRANCH   4   5
HETATM    5  O   UNL     1      -9.769   5.223  71.346  1.00  0.00    -0.153 OA 
BRANCH   5   6
HETATM    6  C   UNL     1     -10.394   6.446  71.293  1.00  0.00    -0.207 A  
HETATM    7  C   UNL     1     -11.778   6.641  71.323  1.00  0.00    -0.386 A  
HETATM    8  C   UNL     1     -12.328   7.903  71.027  1.00  0.00    -0.180 A  
HETATM    9  C   UNL     1     -11.498   8.990  70.729  1.00  0.00    -0.331 A  
HETATM   10  C   UNL     1     -10.110   8.820  70.876  1.00  0.00    -0.276 A  
HETATM   11  C   UNL     1      -9.566   7.559  71.154  1.00  0.00    -0.164 A  
BRANCH   9  12
HETATM   12  C   UNL     1     -12.035  10.223  70.033  1.00  0.00    -0.197 C  
BRANCH  12  13
HETATM   13  N   UNL     1     -11.083  10.982  69.252  1.00  0.00    -0.235 N  
HETATM   14  H   UNL     1     -10.416  10.508  68.642  1.00  0.00     0.000 HD 
BRANCH  13  15
HETATM   15  C   UNL     1     -11.093  12.351  69.348  1.00  0.00    -0.084 C  
HETATM   16  O   UNL     1     -11.739  12.913  70.236  1.00  0.00    -0.243 OA 
BRANCH  15  17
HETATM   17  N   UNL     1     -10.318  13.061  68.422  1.00  0.00    -0.250 N  
BRANCH  17  18
HETATM   18  C   UNL     1      -9.219  12.269  67.801  1.00  0.00    -0.191 C  
BRANCH  18  19
HETATM   19  C   UNL     1      -9.604  11.464  66.555  1.00  0.00    -0.220 A  
HETATM   20  C   UNL     1      -9.744  10.255  64.048  1.00  0.00    -0.278 A  
HETATM   21  C   UNL     1      -9.243  10.118  66.400  1.00  0.00    -0.190 A  
HETATM   22  C   UNL     1      -9.283   9.525  65.136  1.00  0.00    -0.305 A  
HETATM   23  F   UNL     1      -9.665   9.726  62.816  1.00  0.00    -0.262 F  
HETATM   24  C   UNL     1     -10.247  11.537  64.210  1.00  0.00    -0.361 A  
HETATM   25  C   UNL     1     -10.201  12.137  65.469  1.00  0.00    -0.294 A  
ENDBRANCH  18  19
ENDBRANCH  17  18
BRANCH  17  26
HETATM   26  C   UNL     1     -10.374  14.555  68.206  1.00  0.00    -0.236 C  
HETATM   27  C   UNL     1      -9.042  15.251  67.872  1.00  0.00    -0.175 C  
HETATM   28  C   UNL     1     -11.465  15.076  67.218  1.00  0.00    -0.312 C  
HETATM   29  C   UNL     1      -9.719  17.402  65.976  1.00  0.00    -0.152 C  
HETATM   30  C   UNL     1      -8.727  15.225  66.385  1.00  0.00    -0.230 C  
HETATM   31  N   UNL     1      -9.714  15.982  65.622  1.00  0.00    -0.432 NA 
HETATM   32  C   UNL     1     -11.023  15.351  65.775  1.00  0.00    -0.309 C  
ENDBRANCH  17  26
ENDBRANCH  15  17
ENDBRANCH  13  15
ENDBRANCH  12  13
ENDBRANCH   9  12
ENDBRANCH   5   6
ENDBRANCH   4   5
TORSDOF 9
ENDMDL
MODEL      256
REMARK 921   NORMALIZED FREE ENERGY PREDICTED BY IDOCK:   -4.32 KCAL/MOL
REMARK 922        TOTAL FREE ENERGY PREDICTED BY IDOCK:   -8.06 KCAL/MOL
REMARK 923 INTER-LIGAND FREE ENERGY PREDICTED BY IDOCK:   -7.02 KCAL/MOL
REMARK 924 INTRA-LIGAND FREE ENERGY PREDICTED BY IDOCK:   -1.04 KCAL/MOL
REMARK 927      BINDING AFFINITY PREDICTED BY RF-SCORE:    0.00 PKD
ROOT
HETATM    1  C   UNL     1     -10.519  17.317  67.409  1.00  0.00    -0.338 C  
HETATM    2  C   UNL     1     -10.283  16.429  66.186  1.00  0.00    -0.363 C  
HETATM    3  C   UNL     1      -8.830  15.963  66.144  1.00  0.00    -0.363 C  
HETATM    4  C   UNL     1     -11.284  15.259  66.121  1.00  0.00    -0.225 C  
ENDROOT
BRANCH   4   5
HETATM    5  O   UNL     1     -11.166  14.359  67.232  1.00  0.00    -0.300 OA 
BRANCH   5   6
HETATM    6  C   UNL     1     -11.019  13.036  66.893  1.00  0.00    -0.265 A  
HETATM    7  C   UNL     1     -11.544  11.960  67.616  1.00  0.00    -0.382 A  
HETATM    8  C   UNL     1     -11.145  10.641  67.325  1.00  0.00    -0.313 A  
HETATM    9  C   UNL     1     -10.242  10.383  66.287  1.00  0.00    -0.286 A  
HETATM   10  C   UNL     1      -9.863  11.454  65.460  1.00  0.00    -0.271 A  
HETATM   11  C   UNL     1     -10.248  12.767  65.763  1.00  0.00    -0.302 A  
BRANCH   9  12
HETATM   12  C   UNL     1      -9.498   9.066  66.200  1.00  0.00    -0.253 C  
BRANCH  12  13
HETATM   13  N   UNL     1      -9.401   8.306  67.426  1.00  0.00    -0.139 N  
HETATM   14  H   UNL     1      -8.786   8.612  68.181  1.00  0.00     0.000 HD 
BRANCH  13  15
HETATM   15  C   UNL     1     -10.152   7.163  67.555  1.00  0.00    -0.188 C  
HETATM   16  O   UNL     1     -11.256   7.074  67.014  1.00  0.00    -0.328 OA 
BRANCH  15  17
HETATM   17  N   UNL     1      -9.592   6.111  68.291  1.00  0.00    -0.120 N  
BRANCH  17  18
HETATM   18  C   UNL     1     -10.565   5.362  69.135  1.00  0.00    -0.171 C  
BRANCH  18  19
HETATM   19  C   UNL     1     -10.746   5.884  70.563  1.00  0.00    -0.363 A  
HETATM   20  C   UNL     1     -10.433   6.972  73.111  1.00  0.00    -0.303 A  
HETATM   21  C   UNL     1     -11.165   7.196  70.827  1.00  0.00    -0.309 A  
HETATM   22  C   UNL     1     -10.975   7.749  72.096  1.00  0.00    -0.318 A  
HETATM   23  F   UNL     1     -10.137   7.538  74.292  1.00  0.00    -0.237 F  
HETATM   24  C   UNL     1     -10.154   5.628  72.909  1.00  0.00    -0.199 A  
HETATM   25  C   UNL     1     -10.333   5.074  71.641  1.00  0.00    -0.262 A  
ENDBRANCH  18  19
ENDBRANCH  17  18
BRANCH  17  26
HETATM   26  C   UNL     1      -8.112   5.857  68.456  1.00  0.00    -0.106 C  
HETATM   27  C   UNL     1      -7.712   4.492  69.046  1.00  0.00    -0.070 C  
HETATM   28  C   UNL     1      -7.213   6.139  67.211  1.00  0.00    -0.075 C  
HETATM   29  C   UNL     1      -5.216   3.732  67.677  1.00  0.00    -0.008 C  
HETATM   30  C   UNL     1      -7.601   3.408  67.987  1.00  0.00    -0.060 C  
HETATM   31  N   UNL     1      -6.532   3.702  67.039  1.00  0.00    -0.037 NA 
HETATM   32  C   UNL     1      -6.849   4.938  66.327  1.00  0.00    -0.065 C  
ENDBRANCH  17  26
ENDBRANCH  15  17
ENDBRANCH  13  15
ENDBRANCH  12  13
ENDBRANCH   9  12
ENDBRANCH   5   6
ENDBRANCH   4   5
TORSDOF 9
ENDMDL
MODEL      257
REMARK 921   NORMALIZED FREE ENERGY PREDICTED BY IDOCK:   -4.29 KCAL/MOL
REMARK 922        TOTAL FREE ENERGY PREDICTED BY IDOCK:   -8.02 KCAL/MOL
REMARK 923 INTER-LIGAND FREE ENERGY PREDICTED BY IDOCK:   -7.02 KCAL/MOL
REMARK 924 INTRA-LIGAND FREE ENERGY PREDICTED BY IDOCK:   -1.00 KCAL/MOL
REMARK 927      BINDING AFFINITY PREDICTED BY RF-SCORE:    0.00 PKD
ROOT
HETATM    1  C   UNL     1      -8.976   2.856  71.400  1.00  0.00    -0.157 C  
HETATM    2  C   UNL     1      -9.115   2.555  72.893  1.00  0.00    -0.100 C  
HETATM    3  C   UNL     1      -7.736   2.448  73.541  1.00  0.00    -0.046 C  
HETATM    4  C   UNL     1     -10.026   3.574  73.604  1.00  0.00    -0.117 C  
ENDROOT
BRANCH   4   5
HETATM    5  O   UNL     1      -9.508   4.911  73.565  1.00  0.00    -0.131 OA 
BRANCH   5   6
HETATM    6  C   UNL     1     -10.398   5.864  73.128  1.00  0.00    -0.211 A  
HETATM    7  C   UNL     1     -11.615   5.593  72.494  1.00  0.00    -0.303 A  
HETATM    8  C   UNL     1     -12.343   6.627  71.874  1.00  0.00    -0.364 A  
HETATM    9  C   UNL     1     -11.877   7.947  71.909  1.00  0.00    -0.345 A  
HETATM   10  C   UNL     1     -10.748   8.227  72.698  1.00  0.00    -0.384 A  
HETATM   11  C   UNL     1     -10.016   7.194  73.299  1.00  0.00    -0.296 A  
BRANCH   9  12
HETATM   12  C   UNL     1     -12.399   8.992  70.946  1.00  0.00    -0.113 C  
BRANCH  12  13
HETATM   13  N   UNL     1     -11.551   9.299  69.815  1.00  0.00    -0.432 N  
HETATM   14  H   UNL     1     -11.176   8.553  69.229  1.00  0.00     0.000 HD 
BRANCH  13  15
HETATM   15  C   UNL     1     -11.260  10.613  69.546  1.00  0.00    -0.272 C  
HETATM   16  O   UNL     1     -11.567  11.500  70.347  1.00  0.00    -0.281 OA 
BRANCH  15  17
HETATM   17  N   UNL     1     -10.579  10.885  68.353  1.00  0.00    -0.182 N  
BRANCH  17  18
HETATM   18  C   UNL     1     -11.374  11.647  67.349  1.00  0.00    -0.300 C  
BRANCH  18  19
HETATM   19  C   UNL     1     -10.875  13.063  67.042  1.00  0.00    -0.278 A  
HETATM   20  C   UNL     1     -10.521  15.672  66.128  1.00  0.00    -0.317 A  
HETATM   21  C   UNL     1     -11.161  14.150  67.881  1.00  0.00    -0.299 A  
HETATM   22  C   UNL     1     -11.015  15.455  67.408  1.00  0.00    -0.312 A  
HETATM   23  F   UNL     1     -10.498  16.919  65.630  1.00  0.00    -0.338 F  
HETATM   24  C   UNL     1     -10.090  14.615  65.341  1.00  0.00    -0.403 A  
HETATM   25  C   UNL     1     -10.243  13.308  65.805  1.00  0.00    -0.296 A  
ENDBRANCH  18  19
ENDBRANCH  17  18
BRANCH  17  26
HETATM   26  C   UNL     1      -9.253  10.284  67.953  1.00  0.00    -0.138 C  
HETATM   27  C   UNL     1      -8.136  11.275  67.576  1.00  0.00    -0.124 C  
HETATM   28  C   UNL     1      -8.655   9.210  68.916  1.00  0.00    -0.131 C  
HETATM   29  C   UNL     1      -5.632  10.063  68.548  1.00  0.00    -0.038 C  
HETATM   30  C   UNL     1      -7.352  11.759  68.785  1.00  0.00    -0.114 C  
HETATM   31  N   UNL     1      -6.638  10.660  69.427  1.00  0.00    -0.064 NA 
HETATM   32  C   UNL     1      -7.606   9.688  69.929  1.00  0.00    -0.138 C  
ENDBRANCH  17  26
ENDBRANCH  15  17
ENDBRANCH  13  15
ENDBRANCH  12  13
ENDBRANCH   9  12
ENDBRANCH   5   6
ENDBRANCH   4   5
TORSDOF 9
ENDMDL
MODEL      258
REMARK 921   NORMALIZED FREE ENERGY PREDICTED BY IDOCK:   -4.28 KCAL/MOL
REMARK 922        TOTAL FREE ENERGY PREDICTED BY IDOCK:   -8.00 KCAL/MOL
REMARK 923 INTER-LIGAND FREE ENERGY PREDICTED BY IDOCK:   -6.69 KCAL/MOL
REMARK 924 INTRA-LIGAND FREE ENERGY PREDICTED BY IDOCK:   -1.31 KCAL/MOL
REMARK 927      BINDING AFFINITY PREDICTED BY RF-SCORE:    0.00 PKD
ROOT
HETATM    1  C   UNL     1      -9.193  18.363  68.234  1.00  0.00    -0.333 C  
HETATM    2  C   UNL     1      -9.608  19.076  66.946  1.00  0.00    -0.364 C  
HETATM    3  C   UNL     1      -8.395  19.731  66.291  1.00  0.00    -0.383 C  
HETATM    4  C   UNL     1     -10.367  18.140  65.987  1.00  0.00    -0.353 C  
ENDROOT
BRANCH   4   5
HETATM    5  O   UNL     1      -9.569  17.037  65.533  1.00  0.00    -0.522 OA 
BRANCH   5   6
HETATM    6  C   UNL     1      -9.960  15.807  66.004  1.00  0.00    -0.332 A  
HETATM    7  C   UNL     1     -11.282  15.354  66.063  1.00  0.00    -0.168 A  
HETATM    8  C   UNL     1     -11.605  14.182  66.776  1.00  0.00    -0.409 A  
HETATM    9  C   UNL     1     -10.604  13.436  67.409  1.00  0.00    -0.254 A  
HETATM   10  C   UNL     1      -9.266  13.806  67.191  1.00  0.00    -0.245 A  
HETATM   11  C   UNL     1      -8.950  14.982  66.497  1.00  0.00    -0.310 A  
BRANCH   9  12
HETATM   12  C   UNL     1     -10.939  12.426  68.487  1.00  0.00    -0.245 C  
BRANCH  12  13
HETATM   13  N   UNL     1      -9.929  11.430  68.765  1.00  0.00    -0.289 N  
HETATM   14  H   UNL     1      -9.104  11.666  69.316  1.00  0.00     0.000 HD 
BRANCH  13  15
HETATM   15  C   UNL     1     -10.102  10.160  68.273  1.00  0.00    -0.156 C  
HETATM   16  O   UNL     1     -11.006   9.915  67.471  1.00  0.00    -0.282 OA 
BRANCH  15  17
HETATM   17  N   UNL     1      -9.193   9.182  68.697  1.00  0.00    -0.136 N  
BRANCH  17  18
HETATM   18  C   UNL     1      -7.852   9.266  68.052  1.00  0.00    -0.092 C  
BRANCH  18  19
HETATM   19  C   UNL     1      -7.074  10.561  68.304  1.00  0.00    -0.081 A  
HETATM   20  C   UNL     1      -6.218  13.202  68.559  1.00  0.00    -0.079 A  
HETATM   21  C   UNL     1      -7.037  11.173  69.565  1.00  0.00    -0.088 A  
HETATM   22  C   UNL     1      -6.640  12.506  69.684  1.00  0.00     0.002 A  
HETATM   23  F   UNL     1      -5.955  14.515  68.652  1.00  0.00    -0.080 F  
HETATM   24  C   UNL     1      -6.103  12.568  67.330  1.00  0.00    -0.119 A  
HETATM   25  C   UNL     1      -6.508  11.239  67.204  1.00  0.00    -0.099 A  
ENDBRANCH  18  19
ENDBRANCH  17  18
BRANCH  17  26
HETATM   26  C   UNL     1      -9.542   7.977  69.538  1.00  0.00    -0.164 C  
HETATM   27  C   UNL     1      -8.378   7.304  70.289  1.00  0.00    -0.135 C  
HETATM   28  C   UNL     1     -10.739   8.140  70.527  1.00  0.00    -0.233 C  
HETATM   29  C   UNL     1      -9.509   6.379  72.848  1.00  0.00    -0.145 C  
HETATM   30  C   UNL     1      -8.105   7.947  71.639  1.00  0.00    -0.106 C  
HETATM   31  N   UNL     1      -9.240   7.784  72.541  1.00  0.00    -0.156 NA 
HETATM   32  C   UNL     1     -10.399   8.478  71.984  1.00  0.00    -0.338 C  
ENDBRANCH  17  26
ENDBRANCH  15  17
ENDBRANCH  13  15
ENDBRANCH  12  13
ENDBRANCH   9  12
ENDBRANCH   5   6
ENDBRANCH   4   5
TORSDOF 9
ENDMDL
MODEL      259
REMARK 921   NORMALIZED FREE ENERGY PREDICTED BY IDOCK:   -4.28 KCAL/MOL
REMARK 922        TOTAL FREE ENERGY PREDICTED BY IDOCK:   -8.00 KCAL/MOL
REMARK 923 INTER-LIGAND FREE ENERGY PREDICTED BY IDOCK:   -6.37 KCAL/MOL
REMARK 924 INTRA-LIGAND FREE ENERGY PREDICTED BY IDOCK:   -1.63 KCAL/MOL
REMARK 927      BINDING AFFINITY PREDICTED BY RF-SCORE:    0.00 PKD
ROOT
HETATM    1  C   UNL     1     -12.023  15.340  72.558  1.00  0.00    -0.525 C  
HETATM    2  C   UNL     1     -13.113  14.325  72.213  1.00  0.00    -0.493 C  
HETATM    3  C   UNL     1     -14.401  15.045  71.821  1.00  0.00    -0.674 C  
HETATM    4  C   UNL     1     -12.647  13.318  71.144  1.00  0.00    -0.325 C  
ENDROOT
BRANCH   4   5
HETATM    5  O   UNL     1     -12.339  13.939  69.888  1.00  0.00    -0.332 OA 
BRANCH   5   6
HETATM    6  C   UNL     1     -11.564  13.182  69.042  1.00  0.00    -0.312 A  
HETATM    7  C   UNL     1     -10.644  13.695  68.123  1.00  0.00    -0.255 A  
HETATM    8  C   UNL     1     -10.073  12.862  67.142  1.00  0.00    -0.243 A  
HETATM    9  C   UNL     1     -10.393  11.500  67.090  1.00  0.00    -0.248 A  
HETATM   10  C   UNL     1     -11.179  10.967  68.126  1.00  0.00    -0.363 A  
HETATM   11  C   UNL     1     -11.759  11.802  69.090  1.00  0.00    -0.388 A  
BRANCH   9  12
HETATM   12  C   UNL     1     -10.127  10.675  65.848  1.00  0.00    -0.261 C  
BRANCH  12  13
HETATM   13  N   UNL     1     -10.196   9.240  66.007  1.00  0.00    -0.300 N  
HETATM   14  H   UNL     1     -11.088   8.751  65.931  1.00  0.00     0.000 HD 
BRANCH  13  15
HETATM   15  C   UNL     1      -9.039   8.547  66.264  1.00  0.00    -0.185 C  
HETATM   16  O   UNL     1      -7.975   8.887  65.740  1.00  0.00    -0.096 OA 
BRANCH  15  17
HETATM   17  N   UNL     1      -9.122   7.476  67.162  1.00  0.00    -0.124 N  
BRANCH  17  18
HETATM   18  C   UNL     1      -9.256   7.878  68.591  1.00  0.00    -0.142 C  
BRANCH  18  19
HETATM   19  C   UNL     1      -8.014   8.516  69.221  1.00  0.00    -0.111 A  
HETATM   20  C   UNL     1      -6.192   9.917  70.798  1.00  0.00    -0.093 A  
HETATM   21  C   UNL     1      -7.224   7.837  70.159  1.00  0.00    -0.062 A  
HETATM   22  C   UNL     1      -6.337   8.547  70.971  1.00  0.00    -0.043 A  
HETATM   23  F   UNL     1      -5.434  10.617  71.658  1.00  0.00    -0.074 F  
HETATM   24  C   UNL     1      -6.852  10.581  69.774  1.00  0.00    -0.138 A  
HETATM   25  C   UNL     1      -7.747   9.878  68.967  1.00  0.00    -0.089 A  
ENDBRANCH  18  19
ENDBRANCH  17  18
BRANCH  17  26
HETATM   26  C   UNL     1      -8.860   6.030  66.816  1.00  0.00    -0.120 C  
HETATM   27  C   UNL     1      -7.952   5.768  65.600  1.00  0.00    -0.116 C  
HETATM   28  C   UNL     1      -8.397   5.106  67.986  1.00  0.00    -0.097 C  
HETATM   29  C   UNL     1      -6.394   3.359  66.272  1.00  0.00    -0.032 C  
HETATM   30  C   UNL     1      -6.476   5.765  65.964  1.00  0.00    -0.040 C  
HETATM   31  N   UNL     1      -6.158   4.671  66.875  1.00  0.00    -0.030 NA 
HETATM   32  C   UNL     1      -6.888   4.862  68.127  1.00  0.00    -0.056 C  
ENDBRANCH  17  26
ENDBRANCH  15  17
ENDBRANCH  13  15
ENDBRANCH  12  13
ENDBRANCH   9  12
ENDBRANCH   5   6
ENDBRANCH   4   5
TORSDOF 9
ENDMDL
MODEL      260
REMARK 921   NORMALIZED FREE ENERGY PREDICTED BY IDOCK:   -4.27 KCAL/MOL
REMARK 922        TOTAL FREE ENERGY PREDICTED BY IDOCK:   -7.98 KCAL/MOL
REMARK 923 INTER-LIGAND FREE ENERGY PREDICTED BY IDOCK:   -7.52 KCAL/MOL
REMARK 924 INTRA-LIGAND FREE ENERGY PREDICTED BY IDOCK:   -0.46 KCAL/MOL
REMARK 927      BINDING AFFINITY PREDICTED BY RF-SCORE:    0.00 PKD
ROOT
HETATM    1  C   UNL     1      -7.597   3.895  65.703  1.00  0.00    -0.082 C  
HETATM    2  C   UNL     1      -7.084   4.760  66.855  1.00  0.00    -0.075 C  
HETATM    3  C   UNL     1      -6.735   6.159  66.351  1.00  0.00    -0.060 C  
HETATM    4  C   UNL     1      -8.069   4.785  68.040  1.00  0.00    -0.089 C  
ENDROOT
BRANCH   4   5
HETATM    5  O   UNL     1      -9.335   5.369  67.703  1.00  0.00    -0.112 OA 
BRANCH   5   6
HETATM    6  C   UNL     1      -9.901   6.137  68.693  1.00  0.00    -0.138 A  
HETATM    7  C   UNL     1     -11.129   5.875  69.307  1.00  0.00    -0.352 A  
HETATM    8  C   UNL     1     -11.734   6.840  70.136  1.00  0.00    -0.370 A  
HETATM    9  C   UNL     1     -11.100   8.063  70.384  1.00  0.00    -0.238 A  
HETATM   10  C   UNL     1      -9.791   8.238  69.903  1.00  0.00    -0.186 A  
HETATM   11  C   UNL     1      -9.200   7.283  69.065  1.00  0.00    -0.139 A  
BRANCH   9  12
HETATM   12  C   UNL     1     -11.868   9.252  70.923  1.00  0.00    -0.282 C  
BRANCH  12  13
HETATM   13  N   UNL     1     -11.475  10.549  70.417  1.00  0.00    -0.323 N  
HETATM   14  H   UNL     1     -10.676  10.642  69.790  1.00  0.00     0.000 HD 
BRANCH  13  15
HETATM   15  C   UNL     1     -12.198  11.652  70.799  1.00  0.00    -0.344 C  
HETATM   16  O   UNL     1     -12.928  11.611  71.792  1.00  0.00    -0.435 OA 
BRANCH  15  17
HETATM   17  N   UNL     1     -12.037  12.815  70.035  1.00  0.00    -0.318 N  
BRANCH  17  18
HETATM   18  C   UNL     1     -11.354  12.605  68.727  1.00  0.00    -0.289 C  
BRANCH  18  19
HETATM   19  C   UNL     1     -11.537  13.723  67.695  1.00  0.00    -0.381 A  
HETATM   20  C   UNL     1     -11.333  15.486  65.546  1.00  0.00    -0.095 A  
HETATM   21  C   UNL     1     -12.372  13.574  66.578  1.00  0.00    -0.382 A  
HETATM   22  C   UNL     1     -12.243  14.439  65.489  1.00  0.00    -0.352 A  
HETATM   23  F   UNL     1     -11.122  16.239  64.454  1.00  0.00    -0.479 F  
HETATM   24  C   UNL     1     -10.608  15.740  66.701  1.00  0.00    -0.307 A  
HETATM   25  C   UNL     1     -10.726  14.873  67.788  1.00  0.00    -0.271 A  
ENDBRANCH  18  19
ENDBRANCH  17  18
BRANCH  17  26
HETATM   26  C   UNL     1     -12.285  14.221  70.529  1.00  0.00    -0.356 C  
HETATM   27  C   UNL     1     -13.727  14.556  70.950  1.00  0.00    -0.123 C  
HETATM   28  C   UNL     1     -11.313  14.754  71.629  1.00  0.00    -0.045 C  
HETATM   29  C   UNL     1     -13.483  16.400  73.236  1.00  0.00     0.045 C  
HETATM   30  C   UNL     1     -14.015  14.186  72.396  1.00  0.00    -0.512 C  
HETATM   31  N   UNL     1     -13.195  14.968  73.315  1.00  0.00    -0.504 NA 
HETATM   32  C   UNL     1     -11.786  14.656  73.085  1.00  0.00     0.074 C  
ENDBRANCH  17  26
ENDBRANCH  15  17
ENDBRANCH  13  15
ENDBRANCH  12  13
ENDBRANCH   9  12
ENDBRANCH   5   6
ENDBRANCH   4   5
TORSDOF 9
ENDMDL
MODEL      261
REMARK 921   NORMALIZED FREE ENERGY PREDICTED BY IDOCK:   -4.26 KCAL/MOL
REMARK 922        TOTAL FREE ENERGY PREDICTED BY IDOCK:   -7.97 KCAL/MOL
REMARK 923 INTER-LIGAND FREE ENERGY PREDICTED BY IDOCK:   -7.58 KCAL/MOL
REMARK 924 INTRA-LIGAND FREE ENERGY PREDICTED BY IDOCK:   -0.40 KCAL/MOL
REMARK 927      BINDING AFFINITY PREDICTED BY RF-SCORE:    0.00 PKD
ROOT
HETATM    1  C   UNL     1     -13.260  15.960  73.446  1.00  0.00    -0.668 C  
HETATM    2  C   UNL     1     -13.188  15.583  71.965  1.00  0.00    -0.549 C  
HETATM    3  C   UNL     1     -11.744  15.656  71.472  1.00  0.00    -0.504 C  
HETATM    4  C   UNL     1     -13.843  14.217  71.685  1.00  0.00    -0.393 C  
ENDROOT
BRANCH   4   5
HETATM    5  O   UNL     1     -13.183  13.133  72.354  1.00  0.00    -0.483 OA 
BRANCH   5   6
HETATM    6  C   UNL     1     -12.788  12.102  71.535  1.00  0.00    -0.289 A  
HETATM    7  C   UNL     1     -13.084  10.752  71.745  1.00  0.00    -0.573 A  
HETATM    8  C   UNL     1     -12.441   9.753  70.989  1.00  0.00    -0.414 A  
HETATM    9  C   UNL     1     -11.520  10.096  69.992  1.00  0.00    -0.344 A  
HETATM   10  C   UNL     1     -11.368  11.457  69.675  1.00  0.00    -0.347 A  
HETATM   11  C   UNL     1     -11.995  12.448  70.441  1.00  0.00    -0.342 A  
BRANCH   9  12
HETATM   12  C   UNL     1     -10.537   9.082  69.446  1.00  0.00    -0.221 C  
BRANCH  12  13
HETATM   13  N   UNL     1     -10.233   7.960  70.307  1.00  0.00    -0.197 N  
HETATM   14  H   UNL     1      -9.757   8.102  71.197  1.00  0.00     0.000 HD 
BRANCH  13  15
HETATM   15  C   UNL     1     -10.596   6.700  69.901  1.00  0.00    -0.226 C  
HETATM   16  O   UNL     1     -11.786   6.376  69.850  1.00  0.00    -0.426 OA 
BRANCH  15  17
HETATM   17  N   UNL     1      -9.567   5.829  69.523  1.00  0.00    -0.137 N  
BRANCH  17  18
HETATM   18  C   UNL     1      -8.201   6.285  69.909  1.00  0.00    -0.121 C  
BRANCH  18  19
HETATM   19  C   UNL     1      -7.390   6.964  68.801  1.00  0.00    -0.094 A  
HETATM   20  C   UNL     1      -5.899   8.702  67.212  1.00  0.00    -0.043 A  
HETATM   21  C   UNL     1      -6.000   6.807  68.695  1.00  0.00    -0.025 A  
HETATM   22  C   UNL     1      -5.253   7.701  67.925  1.00  0.00    -0.030 A  
HETATM   23  F   UNL     1      -5.172   9.634  66.574  1.00  0.00    -0.040 F  
HETATM   24  C   UNL     1      -7.284   8.779  67.183  1.00  0.00    -0.080 A  
HETATM   25  C   UNL     1      -8.034   7.894  67.959  1.00  0.00    -0.128 A  
ENDBRANCH  18  19
ENDBRANCH  17  18
BRANCH  17  26
HETATM   26  C   UNL     1      -9.724   4.648  68.595  1.00  0.00    -0.149 C  
HETATM   27  C   UNL     1     -10.377   4.930  67.229  1.00  0.00    -0.154 C  
HETATM   28  C   UNL     1      -8.455   3.769  68.364  1.00  0.00    -0.108 C  
HETATM   29  C   UNL     1      -9.015   3.154  65.312  1.00  0.00    -0.144 C  
HETATM   30  C   UNL     1      -9.373   5.390  66.186  1.00  0.00    -0.157 C  
HETATM   31  N   UNL     1      -8.396   4.346  65.894  1.00  0.00    -0.113 NA 
HETATM   32  C   UNL     1      -7.628   4.057  67.103  1.00  0.00    -0.076 C  
ENDBRANCH  17  26
ENDBRANCH  15  17
ENDBRANCH  13  15
ENDBRANCH  12  13
ENDBRANCH   9  12
ENDBRANCH   5   6
ENDBRANCH   4   5
TORSDOF 9
ENDMDL
MODEL      262
REMARK 921   NORMALIZED FREE ENERGY PREDICTED BY IDOCK:   -4.23 KCAL/MOL
REMARK 922        TOTAL FREE ENERGY PREDICTED BY IDOCK:   -7.93 KCAL/MOL
REMARK 923 INTER-LIGAND FREE ENERGY PREDICTED BY IDOCK:   -6.57 KCAL/MOL
REMARK 924 INTRA-LIGAND FREE ENERGY PREDICTED BY IDOCK:   -1.36 KCAL/MOL
REMARK 927      BINDING AFFINITY PREDICTED BY RF-SCORE:    0.00 PKD
ROOT
HETATM    1  C   UNL     1     -13.354  15.890  73.528  1.00  0.00    -0.516 C  
HETATM    2  C   UNL     1     -12.995  15.449  72.108  1.00  0.00    -0.480 C  
HETATM    3  C   UNL     1     -11.491  15.207  71.995  1.00  0.00    -0.450 C  
HETATM    4  C   UNL     1     -13.827  14.235  71.652  1.00  0.00    -0.393 C  
ENDROOT
BRANCH   4   5
HETATM    5  O   UNL     1     -13.593  13.065  72.450  1.00  0.00    -0.578 OA 
BRANCH   5   6
HETATM    6  C   UNL     1     -12.872  12.075  71.827  1.00  0.00    -0.272 A  
HETATM    7  C   UNL     1     -12.019  12.269  70.737  1.00  0.00    -0.101 A  
HETATM    8  C   UNL     1     -11.511  11.167  70.021  1.00  0.00    -0.376 A  
HETATM    9  C   UNL     1     -11.826   9.860  70.409  1.00  0.00    -0.310 A  
HETATM   10  C   UNL     1     -12.538   9.680  71.608  1.00  0.00    -0.493 A  
HETATM   11  C   UNL     1     -13.056  10.778  72.307  1.00  0.00    -0.152 A  
BRANCH   9  12
HETATM   12  C   UNL     1     -11.640   8.692  69.464  1.00  0.00     0.586 C  
BRANCH  12  13
HETATM   13  N   UNL     1     -11.765   7.373  70.045  1.00  0.00    -0.507 N  
HETATM   14  H   UNL     1     -12.557   7.143  70.645  1.00  0.00     0.000 HD 
BRANCH  13  15
HETATM   15  C   UNL     1     -10.799   6.437  69.772  1.00  0.00    -0.314 C  
HETATM   16  O   UNL     1     -11.030   5.503  69.001  1.00  0.00    -0.186 OA 
BRANCH  15  17
HETATM   17  N   UNL     1      -9.549   6.615  70.378  1.00  0.00    -0.166 N  
BRANCH  17  18
HETATM   18  C   UNL     1      -8.441   6.922  69.430  1.00  0.00    -0.133 C  
BRANCH  18  19
HETATM   19  C   UNL     1      -8.564   8.247  68.672  1.00  0.00    -0.133 A  
HETATM   20  C   UNL     1      -8.130  10.608  67.253  1.00  0.00    -0.116 A  
HETATM   21  C   UNL     1      -8.799   8.294  67.290  1.00  0.00    -0.137 A  
HETATM   22  C   UNL     1      -8.549   9.469  66.578  1.00  0.00    -0.142 A  
HETATM   23  F   UNL     1      -7.771  11.697  66.555  1.00  0.00    -0.148 F  
HETATM   24  C   UNL     1      -8.039  10.623  68.637  1.00  0.00    -0.132 A  
HETATM   25  C   UNL     1      -8.278   9.449  69.353  1.00  0.00    -0.119 A  
ENDBRANCH  18  19
ENDBRANCH  17  18
BRANCH  17  26
HETATM   26  C   UNL     1      -9.229   6.300  71.820  1.00  0.00    -0.144 C  
HETATM   27  C   UNL     1      -9.870   5.026  72.403  1.00  0.00    -0.214 C  
HETATM   28  C   UNL     1      -7.721   6.322  72.221  1.00  0.00    -0.103 C  
HETATM   29  C   UNL     1      -7.870   3.903  74.253  1.00  0.00    -0.082 C  
HETATM   30  C   UNL     1      -9.042   3.781  72.131  1.00  0.00    -0.115 C  
HETATM   31  N   UNL     1      -7.746   3.852  72.796  1.00  0.00    -0.072 NA 
HETATM   32  C   UNL     1      -6.987   4.974  72.249  1.00  0.00    -0.071 C  
ENDBRANCH  17  26
ENDBRANCH  15  17
ENDBRANCH  13  15
ENDBRANCH  12  13
ENDBRANCH   9  12
ENDBRANCH   5   6
ENDBRANCH   4   5
TORSDOF 9
ENDMDL
MODEL      263
REMARK 921   NORMALIZED FREE ENERGY PREDICTED BY IDOCK:   -4.22 KCAL/MOL
REMARK 922        TOTAL FREE ENERGY PREDICTED BY IDOCK:   -7.91 KCAL/MOL
REMARK 923 INTER-LIGAND FREE ENERGY PREDICTED BY IDOCK:   -6.34 KCAL/MOL
REMARK 924 INTRA-LIGAND FREE ENERGY PREDICTED BY IDOCK:   -1.57 KCAL/MOL
REMARK 927      BINDING AFFINITY PREDICTED BY RF-SCORE:    0.00 PKD
ROOT
HETATM    1  C   UNL     1     -10.869  16.839  68.233  1.00  0.00    -0.366 C  
HETATM    2  C   UNL     1     -10.638  16.121  66.903  1.00  0.00    -0.283 C  
HETATM    3  C   UNL     1      -9.149  15.857  66.696  1.00  0.00    -0.290 C  
HETATM    4  C   UNL     1     -11.490  14.843  66.782  1.00  0.00    -0.301 C  
ENDROOT
BRANCH   4   5
HETATM    5  O   UNL     1     -11.163  13.857  67.772  1.00  0.00    -0.273 OA 
BRANCH   5   6
HETATM    6  C   UNL     1     -11.049  12.573  67.294  1.00  0.00    -0.274 A  
HETATM    7  C   UNL     1     -11.345  11.417  68.023  1.00  0.00    -0.372 A  
HETATM    8  C   UNL     1     -10.975  10.149  67.535  1.00  0.00    -0.319 A  
HETATM    9  C   UNL     1     -10.332  10.023  66.297  1.00  0.00    -0.235 A  
HETATM   10  C   UNL     1     -10.202  11.173  65.501  1.00  0.00    -0.319 A  
HETATM   11  C   UNL     1     -10.555  12.435  65.997  1.00  0.00    -0.286 A  
BRANCH   9  12
HETATM   12  C   UNL     1      -9.579   8.762  65.927  1.00  0.00    -0.184 C  
BRANCH  12  13
HETATM   13  N   UNL     1      -9.344   7.820  66.999  1.00  0.00    -0.149 N  
HETATM   14  H   UNL     1     -10.032   7.099  67.218  1.00  0.00     0.000 HD 
BRANCH  13  15
HETATM   15  C   UNL     1      -8.178   7.915  67.717  1.00  0.00    -0.129 C  
HETATM   16  O   UNL     1      -7.161   8.388  67.203  1.00  0.00    -0.081 OA 
BRANCH  15  17
HETATM   17  N   UNL     1      -8.213   7.487  69.050  1.00  0.00    -0.126 N  
BRANCH  17  18
HETATM   18  C   UNL     1      -7.519   6.192  69.301  1.00  0.00    -0.089 C  
BRANCH  18  19
HETATM   19  C   UNL     1      -7.923   5.034  68.384  1.00  0.00    -0.086 A  
HETATM   20  C   UNL     1      -8.914   3.410  66.346  1.00  0.00    -0.148 A  
HETATM   21  C   UNL     1      -7.059   4.526  67.402  1.00  0.00    -0.065 A  
HETATM   22  C   UNL     1      -7.566   3.741  66.364  1.00  0.00    -0.084 A  
HETATM   23  F   UNL     1      -9.422   2.762  65.285  1.00  0.00    -0.153 F  
HETATM   24  C   UNL     1      -9.753   3.776  67.388  1.00  0.00    -0.143 A  
HETATM   25  C   UNL     1      -9.254   4.569  68.423  1.00  0.00    -0.178 A  
ENDBRANCH  18  19
ENDBRANCH  17  18
BRANCH  17  26
HETATM   26  C   UNL     1      -9.062   8.100  70.138  1.00  0.00    -0.147 C  
HETATM   27  C   UNL     1     -10.498   7.561  70.273  1.00  0.00    -0.227 C  
HETATM   28  C   UNL     1      -8.427   8.173  71.562  1.00  0.00    -0.160 C  
HETATM   29  C   UNL     1     -11.093   7.588  73.159  1.00  0.00    -0.326 C  
HETATM   30  C   UNL     1     -10.577   6.324  71.153  1.00  0.00    -0.239 C  
HETATM   31  N   UNL     1     -10.190   6.626  72.527  1.00  0.00    -0.180 NA 
HETATM   32  C   UNL     1      -8.793   7.056  72.548  1.00  0.00    -0.124 C  
ENDBRANCH  17  26
ENDBRANCH  15  17
ENDBRANCH  13  15
ENDBRANCH  12  13
ENDBRANCH   9  12
ENDBRANCH   5   6
ENDBRANCH   4   5
TORSDOF 9
ENDMDL
MODEL      264
REMARK 921   NORMALIZED FREE ENERGY PREDICTED BY IDOCK:   -4.20 KCAL/MOL
REMARK 922        TOTAL FREE ENERGY PREDICTED BY IDOCK:   -7.88 KCAL/MOL
REMARK 923 INTER-LIGAND FREE ENERGY PREDICTED BY IDOCK:   -6.49 KCAL/MOL
REMARK 924 INTRA-LIGAND FREE ENERGY PREDICTED BY IDOCK:   -1.40 KCAL/MOL
REMARK 927      BINDING AFFINITY PREDICTED BY RF-SCORE:    0.00 PKD
ROOT
HETATM    1  C   UNL     1     -11.987  13.267  68.700  1.00  0.00    -0.345 C  
HETATM    2  C   UNL     1     -11.780  13.867  67.309  1.00  0.00    -0.418 C  
HETATM    3  C   UNL     1     -11.194  15.273  67.422  1.00  0.00    -0.311 C  
HETATM    4  C   UNL     1     -10.941  12.946  66.402  1.00  0.00    -0.285 C  
ENDROOT
BRANCH   4   5
HETATM    5  O   UNL     1      -9.610  12.738  66.894  1.00  0.00    -0.221 OA 
BRANCH   5   6
HETATM    6  C   UNL     1      -9.069  11.509  66.601  1.00  0.00    -0.190 A  
HETATM    7  C   UNL     1      -9.473  10.688  65.544  1.00  0.00    -0.261 A  
HETATM    8  C   UNL     1      -9.028   9.353  65.466  1.00  0.00    -0.248 A  
HETATM    9  C   UNL     1      -8.150   8.838  66.426  1.00  0.00    -0.103 A  
HETATM   10  C   UNL     1      -7.618   9.725  67.377  1.00  0.00    -0.091 A  
HETATM   11  C   UNL     1      -8.076  11.046  67.463  1.00  0.00    -0.117 A  
BRANCH   9  12
HETATM   12  C   UNL     1      -7.968   7.345  66.605  1.00  0.00    -0.121 C  
BRANCH  12  13
HETATM   13  N   UNL     1      -7.989   6.858  67.967  1.00  0.00    -0.113 N  
HETATM   14  H   UNL     1      -7.690   7.455  68.737  1.00  0.00     0.000 HD 
BRANCH  13  15
HETATM   15  C   UNL     1      -8.420   5.576  68.202  1.00  0.00    -0.098 C  
HETATM   16  O   UNL     1      -8.115   4.660  67.433  1.00  0.00    -0.100 OA 
BRANCH  15  17
HETATM   17  N   UNL     1      -9.181   5.360  69.358  1.00  0.00    -0.114 N  
BRANCH  17  18
HETATM   18  C   UNL     1     -10.645   5.569  69.180  1.00  0.00    -0.230 C  
BRANCH  18  19
HETATM   19  C   UNL     1     -11.190   6.911  69.680  1.00  0.00    -0.289 A  
HETATM   20  C   UNL     1     -11.764   9.246  71.090  1.00  0.00    -0.325 A  
HETATM   21  C   UNL     1     -10.639   8.135  69.274  1.00  0.00    -0.191 A  
HETATM   22  C   UNL     1     -10.902   9.296  70.003  1.00  0.00    -0.264 A  
HETATM   23  F   UNL     1     -11.919  10.334  71.863  1.00  0.00    -0.406 F  
HETATM   24  C   UNL     1     -12.437   8.077  71.414  1.00  0.00    -0.320 A  
HETATM   25  C   UNL     1     -12.170   6.912  70.695  1.00  0.00    -0.311 A  
ENDBRANCH  18  19
ENDBRANCH  17  18
BRANCH  17  26
HETATM   26  C   UNL     1      -8.617   5.172  70.746  1.00  0.00    -0.125 C  
HETATM   27  C   UNL     1      -7.864   6.372  71.350  1.00  0.00    -0.104 C  
HETATM   28  C   UNL     1      -9.595   4.610  71.825  1.00  0.00    -0.216 C  
HETATM   29  C   UNL     1      -8.481   6.334  74.231  1.00  0.00    -0.122 C  
HETATM   30  C   UNL     1      -8.793   7.351  72.050  1.00  0.00    -0.124 C  
HETATM   31  N   UNL     1      -9.441   6.734  73.202  1.00  0.00    -0.142 NA 
HETATM   32  C   UNL     1     -10.281   5.629  72.745  1.00  0.00    -0.185 C  
ENDBRANCH  17  26
ENDBRANCH  15  17
ENDBRANCH  13  15
ENDBRANCH  12  13
ENDBRANCH   9  12
ENDBRANCH   5   6
ENDBRANCH   4   5
TORSDOF 9
ENDMDL
MODEL      265
REMARK 921   NORMALIZED FREE ENERGY PREDICTED BY IDOCK:   -4.20 KCAL/MOL
REMARK 922        TOTAL FREE ENERGY PREDICTED BY IDOCK:   -7.88 KCAL/MOL
REMARK 923 INTER-LIGAND FREE ENERGY PREDICTED BY IDOCK:   -5.93 KCAL/MOL
REMARK 924 INTRA-LIGAND FREE ENERGY PREDICTED BY IDOCK:   -1.95 KCAL/MOL
REMARK 927      BINDING AFFINITY PREDICTED BY RF-SCORE:    0.00 PKD
ROOT
HETATM    1  C   UNL     1      -9.179   3.917  69.492  1.00  0.00    -0.226 C  
HETATM    2  C   UNL     1      -8.235   3.116  68.594  1.00  0.00    -0.079 C  
HETATM    3  C   UNL     1      -8.909   1.825  68.137  1.00  0.00    -0.144 C  
HETATM    4  C   UNL     1      -7.706   3.958  67.418  1.00  0.00    -0.079 C  
ENDROOT
BRANCH   4   5
HETATM    5  O   UNL     1      -8.745   4.394  66.530  1.00  0.00    -0.112 OA 
BRANCH   5   6
HETATM    6  C   UNL     1      -8.916   5.756  66.464  1.00  0.00    -0.128 A  
HETATM    7  C   UNL     1     -10.105   6.429  66.762  1.00  0.00    -0.239 A  
HETATM    8  C   UNL     1     -10.254   7.792  66.439  1.00  0.00    -0.053 A  
HETATM    9  C   UNL     1      -9.205   8.503  65.846  1.00  0.00    -0.245 A  
HETATM   10  C   UNL     1      -7.962   7.859  65.717  1.00  0.00    -0.109 A  
HETATM   11  C   UNL     1      -7.822   6.499  66.022  1.00  0.00    -0.103 A  
BRANCH   9  12
HETATM   12  C   UNL     1      -9.447   9.819  65.137  1.00  0.00    -0.273 C  
BRANCH  12  13
HETATM   13  N   UNL     1     -10.159  10.828  65.890  1.00  0.00    -0.247 N  
HETATM   14  H   UNL     1     -11.091  11.129  65.604  1.00  0.00     0.000 HD 
BRANCH  13  15
HETATM   15  C   UNL     1      -9.557  11.374  66.996  1.00  0.00    -0.176 C  
HETATM   16  O   UNL     1      -8.710  12.263  66.875  1.00  0.00    -0.196 OA 
BRANCH  15  17
HETATM   17  N   UNL     1      -9.972  10.902  68.248  1.00  0.00    -0.170 N  
BRANCH  17  18
HETATM   18  C   UNL     1     -11.447  10.925  68.457  1.00  0.00    -0.310 C  
BRANCH  18  19
HETATM   19  C   UNL     1     -12.001  12.173  69.151  1.00  0.00    -0.311 A  
HETATM   20  C   UNL     1     -12.388  14.503  70.632  1.00  0.00    -0.339 A  
HETATM   21  C   UNL     1     -12.061  13.417  68.507  1.00  0.00    -0.283 A  
HETATM   22  C   UNL     1     -12.221  14.585  69.256  1.00  0.00    -0.264 A  
HETATM   23  F   UNL     1     -12.417  15.629  71.363  1.00  0.00    -0.348 F  
HETATM   24  C   UNL     1     -12.484  13.273  71.267  1.00  0.00    -0.351 A  
HETATM   25  C   UNL     1     -12.314  12.104  70.525  1.00  0.00    -0.358 A  
ENDBRANCH  18  19
ENDBRANCH  17  18
BRANCH  17  26
HETATM   26  C   UNL     1      -9.058  10.614  69.414  1.00  0.00    -0.043 C  
HETATM   27  C   UNL     1      -9.444   9.423  70.311  1.00  0.00    -0.294 C  
HETATM   28  C   UNL     1      -7.532  10.519  69.098  1.00  0.00    -0.114 C  
HETATM   29  C   UNL     1      -6.899   8.199  71.152  1.00  0.00    -0.045 C  
HETATM   30  C   UNL     1      -8.905   8.101  69.790  1.00  0.00    -0.143 C  
HETATM   31  N   UNL     1      -7.446   8.083  69.800  1.00  0.00    -0.087 NA 
HETATM   32  C   UNL     1      -6.948   9.115  68.893  1.00  0.00    -0.064 C  
ENDBRANCH  17  26
ENDBRANCH  15  17
ENDBRANCH  13  15
ENDBRANCH  12  13
ENDBRANCH   9  12
ENDBRANCH   5   6
ENDBRANCH   4   5
TORSDOF 9
ENDMDL
MODEL      266
REMARK 921   NORMALIZED FREE ENERGY PREDICTED BY IDOCK:   -4.17 KCAL/MOL
REMARK 922        TOTAL FREE ENERGY PREDICTED BY IDOCK:   -7.83 KCAL/MOL
REMARK 923 INTER-LIGAND FREE ENERGY PREDICTED BY IDOCK:   -7.22 KCAL/MOL
REMARK 924 INTRA-LIGAND FREE ENERGY PREDICTED BY IDOCK:   -0.61 KCAL/MOL
REMARK 927      BINDING AFFINITY PREDICTED BY RF-SCORE:    0.00 PKD
ROOT
HETATM    1  C   UNL     1      -9.895  20.772  67.029  1.00  0.00    -0.339 C  
HETATM    2  C   UNL     1     -10.459  19.406  67.422  1.00  0.00    -0.581 C  
HETATM    3  C   UNL     1     -10.447  18.464  66.221  1.00  0.00    -0.421 C  
HETATM    4  C   UNL     1      -9.737  18.815  68.648  1.00  0.00    -0.390 C  
ENDROOT
BRANCH   4   5
HETATM    5  O   UNL     1      -8.345  18.560  68.409  1.00  0.00    -0.314 OA 
BRANCH   5   6
HETATM    6  C   UNL     1      -7.903  17.326  68.820  1.00  0.00    -0.254 A  
HETATM    7  C   UNL     1      -6.561  16.970  68.986  1.00  0.00    -0.216 A  
HETATM    8  C   UNL     1      -6.199  15.622  69.180  1.00  0.00    -0.119 A  
HETATM    9  C   UNL     1      -7.177  14.623  69.242  1.00  0.00    -0.156 A  
HETATM   10  C   UNL     1      -8.525  15.020  69.251  1.00  0.00    -0.167 A  
HETATM   11  C   UNL     1      -8.882  16.358  69.040  1.00  0.00    -0.240 A  
BRANCH   9  12
HETATM   12  C   UNL     1      -6.824  13.163  69.052  1.00  0.00    -0.090 C  
BRANCH  12  13
HETATM   13  N   UNL     1      -7.930  12.231  69.062  1.00  0.00    -0.339 N  
HETATM   14  H   UNL     1      -8.883  12.555  68.900  1.00  0.00     0.000 HD 
BRANCH  13  15
HETATM   15  C   UNL     1      -7.672  10.903  69.296  1.00  0.00    -0.099 C  
HETATM   16  O   UNL     1      -6.773  10.565  70.071  1.00  0.00    -0.124 OA 
BRANCH  15  17
HETATM   17  N   UNL     1      -8.490   9.971  68.647  1.00  0.00    -0.113 N  
BRANCH  17  18
HETATM   18  C   UNL     1      -9.928  10.036  69.035  1.00  0.00    -0.196 C  
BRANCH  18  19
HETATM   19  C   UNL     1     -10.259   9.533  70.443  1.00  0.00    -0.337 A  
HETATM   20  C   UNL     1     -10.945   8.041  72.696  1.00  0.00    -0.382 A  
HETATM   21  C   UNL     1      -9.264   9.092  71.328  1.00  0.00    -0.314 A  
HETATM   22  C   UNL     1      -9.609   8.316  72.437  1.00  0.00    -0.364 A  
HETATM   23  F   UNL     1     -11.266   7.195  73.688  1.00  0.00    -0.291 F  
HETATM   24  C   UNL     1     -11.952   8.596  71.919  1.00  0.00    -0.424 A  
HETATM   25  C   UNL     1     -11.612   9.363  70.804  1.00  0.00    -0.364 A  
ENDBRANCH  18  19
ENDBRANCH  17  18
BRANCH  17  26
HETATM   26  C   UNL     1      -7.996   8.816  67.807  1.00  0.00    -0.106 C  
HETATM   27  C   UNL     1      -8.639   8.653  66.418  1.00  0.00    -0.130 C  
HETATM   28  C   UNL     1      -6.449   8.677  67.655  1.00  0.00    -0.061 C  
HETATM   29  C   UNL     1      -6.487   7.686  64.652  1.00  0.00    -0.044 C  
HETATM   30  C   UNL     1      -7.949   9.492  65.354  1.00  0.00    -0.113 C  
HETATM   31  N   UNL     1      -6.571   9.060  65.151  1.00  0.00    -0.071 NA 
HETATM   32  C   UNL     1      -5.817   9.265  66.386  1.00  0.00    -0.058 C  
ENDBRANCH  17  26
ENDBRANCH  15  17
ENDBRANCH  13  15
ENDBRANCH  12  13
ENDBRANCH   9  12
ENDBRANCH   5   6
ENDBRANCH   4   5
TORSDOF 9
ENDMDL
MODEL      267
REMARK 921   NORMALIZED FREE ENERGY PREDICTED BY IDOCK:   -4.14 KCAL/MOL
REMARK 922        TOTAL FREE ENERGY PREDICTED BY IDOCK:   -7.79 KCAL/MOL
REMARK 923 INTER-LIGAND FREE ENERGY PREDICTED BY IDOCK:   -6.73 KCAL/MOL
REMARK 924 INTRA-LIGAND FREE ENERGY PREDICTED BY IDOCK:   -1.06 KCAL/MOL
REMARK 927      BINDING AFFINITY PREDICTED BY RF-SCORE:    0.00 PKD
ROOT
HETATM    1  C   UNL     1      -8.401   5.684  71.659  1.00  0.00    -0.124 C  
HETATM    2  C   UNL     1      -7.240   4.722  71.400  1.00  0.00    -0.060 C  
HETATM    3  C   UNL     1      -7.761   3.295  71.246  1.00  0.00    -0.048 C  
HETATM    4  C   UNL     1      -6.376   5.171  70.206  1.00  0.00    -0.026 C  
ENDROOT
BRANCH   4   5
HETATM    5  O   UNL     1      -7.098   5.187  68.967  1.00  0.00    -0.054 OA 
BRANCH   5   6
HETATM    6  C   UNL     1      -7.850   6.316  68.750  1.00  0.00    -0.101 A  
HETATM    7  C   UNL     1      -9.201   6.323  68.392  1.00  0.00    -0.112 A  
HETATM    8  C   UNL     1      -9.821   7.512  67.962  1.00  0.00    -0.177 A  
HETATM    9  C   UNL     1      -9.104   8.713  67.917  1.00  0.00    -0.145 A  
HETATM   10  C   UNL     1      -7.802   8.724  68.446  1.00  0.00    -0.104 A  
HETATM   11  C   UNL     1      -7.183   7.536  68.856  1.00  0.00    -0.082 A  
BRANCH   9  12
HETATM   12  C   UNL     1      -9.597   9.894  67.107  1.00  0.00    -0.162 C  
BRANCH  12  13
HETATM   13  N   UNL     1      -9.886  11.101  67.850  1.00  0.00    -0.170 N  
HETATM   14  H   UNL     1      -9.130  11.676  68.222  1.00  0.00     0.000 HD 
BRANCH  13  15
HETATM   15  C   UNL     1     -11.197  11.458  68.044  1.00  0.00    -0.281 C  
HETATM   16  O   UNL     1     -12.105  10.844  67.478  1.00  0.00    -0.202 OA 
BRANCH  15  17
HETATM   17  N   UNL     1     -11.447  12.514  68.930  1.00  0.00    -0.285 N  
BRANCH  17  18
HETATM   18  C   UNL     1     -12.092  12.106  70.210  1.00  0.00    -0.302 C  
BRANCH  18  19
HETATM   19  C   UNL     1     -11.961  10.624  70.576  1.00  0.00    -0.446 A  
HETATM   20  C   UNL     1     -11.649   8.166  71.854  1.00  0.00    -0.306 A  
HETATM   21  C   UNL     1     -13.080   9.826  70.856  1.00  0.00    -0.285 A  
HETATM   22  C   UNL     1     -12.922   8.611  71.526  1.00  0.00    -0.344 A  
HETATM   23  F   UNL     1     -11.506   7.063  72.606  1.00  0.00    -0.276 F  
HETATM   24  C   UNL     1     -10.522   8.868  71.452  1.00  0.00    -0.375 A  
HETATM   25  C   UNL     1     -10.675  10.088  70.790  1.00  0.00    -0.272 A  
ENDBRANCH  18  19
ENDBRANCH  17  18
BRANCH  17  26
HETATM   26  C   UNL     1     -11.328  13.980  68.589  1.00  0.00    -0.276 C  
HETATM   27  C   UNL     1      -9.919  14.594  68.680  1.00  0.00    -0.234 C  
HETATM   28  C   UNL     1     -11.982  14.440  67.248  1.00  0.00    -0.409 C  
HETATM   29  C   UNL     1      -9.769  16.573  66.501  1.00  0.00    -0.272 C  
HETATM   30  C   UNL     1      -9.120  14.413  67.399  1.00  0.00    -0.198 C  
HETATM   31  N   UNL     1      -9.738  15.125  66.285  1.00  0.00    -0.270 NA 
HETATM   32  C   UNL     1     -11.060  14.558  66.028  1.00  0.00    -0.329 C  
ENDBRANCH  17  26
ENDBRANCH  15  17
ENDBRANCH  13  15
ENDBRANCH  12  13
ENDBRANCH   9  12
ENDBRANCH   5   6
ENDBRANCH   4   5
TORSDOF 9
ENDMDL
MODEL      268
REMARK 921   NORMALIZED FREE ENERGY PREDICTED BY IDOCK:   -4.14 KCAL/MOL
REMARK 922        TOTAL FREE ENERGY PREDICTED BY IDOCK:   -7.78 KCAL/MOL
REMARK 923 INTER-LIGAND FREE ENERGY PREDICTED BY IDOCK:   -5.68 KCAL/MOL
REMARK 924 INTRA-LIGAND FREE ENERGY PREDICTED BY IDOCK:   -2.10 KCAL/MOL
REMARK 927      BINDING AFFINITY PREDICTED BY RF-SCORE:    0.00 PKD
ROOT
HETATM    1  C   UNL     1     -11.647  13.275  68.129  1.00  0.00    -0.373 C  
HETATM    2  C   UNL     1     -11.585  12.961  66.633  1.00  0.00    -0.428 C  
HETATM    3  C   UNL     1     -11.704  14.246  65.818  1.00  0.00    -0.359 C  
HETATM    4  C   UNL     1     -10.333  12.140  66.268  1.00  0.00    -0.221 C  
ENDROOT
BRANCH   4   5
HETATM    5  O   UNL     1      -9.109  12.841  66.527  1.00  0.00    -0.218 OA 
BRANCH   5   6
HETATM    6  C   UNL     1      -8.114  12.079  67.090  1.00  0.00    -0.177 A  
HETATM    7  C   UNL     1      -7.514  10.970  66.486  1.00  0.00    -0.145 A  
HETATM    8  C   UNL     1      -6.677  10.116  67.231  1.00  0.00    -0.073 A  
HETATM    9  C   UNL     1      -6.406  10.382  68.578  1.00  0.00    -0.051 A  
HETATM   10  C   UNL     1      -6.872  11.592  69.119  1.00  0.00    -0.111 A  
HETATM   11  C   UNL     1      -7.719  12.430  68.381  1.00  0.00    -0.144 A  
BRANCH   9  12
HETATM   12  C   UNL     1      -5.857   9.310  69.496  1.00  0.00    -0.033 C  
BRANCH  12  13
HETATM   13  N   UNL     1      -6.093   7.941  69.094  1.00  0.00    -0.034 N  
HETATM   14  H   UNL     1      -5.733   7.590  68.206  1.00  0.00     0.000 HD 
BRANCH  13  15
HETATM   15  C   UNL     1      -6.813   7.123  69.928  1.00  0.00    -0.056 C  
HETATM   16  O   UNL     1      -6.478   6.977  71.106  1.00  0.00    -0.040 OA 
BRANCH  15  17
HETATM   17  N   UNL     1      -7.947   6.501  69.391  1.00  0.00    -0.112 N  
BRANCH  17  18
HETATM   18  C   UNL     1      -8.992   7.443  68.898  1.00  0.00    -0.130 C  
BRANCH  18  19
HETATM   19  C   UNL     1      -9.785   8.181  69.980  1.00  0.00    -0.172 A  
HETATM   20  C   UNL     1     -11.742   9.216  71.675  1.00  0.00    -0.378 A  
HETATM   21  C   UNL     1      -9.956   7.652  71.268  1.00  0.00    -0.195 A  
HETATM   22  C   UNL     1     -10.960   8.150  72.101  1.00  0.00    -0.372 A  
HETATM   23  F   UNL     1     -12.785   9.612  72.423  1.00  0.00    -0.425 F  
HETATM   24  C   UNL     1     -11.488   9.850  70.468  1.00  0.00    -0.391 A  
HETATM   25  C   UNL     1     -10.492   9.350  69.628  1.00  0.00    -0.236 A  
ENDBRANCH  18  19
ENDBRANCH  17  18
BRANCH  17  26
HETATM   26  C   UNL     1      -8.261   5.027  69.492  1.00  0.00    -0.085 C  
HETATM   27  C   UNL     1      -9.546   4.549  68.791  1.00  0.00    -0.227 C  
HETATM   28  C   UNL     1      -7.106   4.042  69.130  1.00  0.00    -0.047 C  
HETATM   29  C   UNL     1      -8.933   1.863  67.747  1.00  0.00    -0.140 C  
HETATM   30  C   UNL     1      -9.324   4.221  67.324  1.00  0.00    -0.164 C  
HETATM   31  N   UNL     1      -8.405   3.099  67.167  1.00  0.00    -0.087 NA 
HETATM   32  C   UNL     1      -7.098   3.469  67.706  1.00  0.00    -0.051 C  
ENDBRANCH  17  26
ENDBRANCH  15  17
ENDBRANCH  13  15
ENDBRANCH  12  13
ENDBRANCH   9  12
ENDBRANCH   5   6
ENDBRANCH   4   5
TORSDOF 9
ENDMDL
MODEL      269
REMARK 921   NORMALIZED FREE ENERGY PREDICTED BY IDOCK:   -4.13 KCAL/MOL
REMARK 922        TOTAL FREE ENERGY PREDICTED BY IDOCK:   -7.77 KCAL/MOL
REMARK 923 INTER-LIGAND FREE ENERGY PREDICTED BY IDOCK:   -6.58 KCAL/MOL
REMARK 924 INTRA-LIGAND FREE ENERGY PREDICTED BY IDOCK:   -1.18 KCAL/MOL
REMARK 927      BINDING AFFINITY PREDICTED BY RF-SCORE:    0.00 PKD
ROOT
HETATM    1  C   UNL     1      -6.775  19.201  69.244  1.00  0.00    -0.340 C  
HETATM    2  C   UNL     1      -7.479  18.414  68.137  1.00  0.00    -0.279 C  
HETATM    3  C   UNL     1      -6.479  18.018  67.053  1.00  0.00    -0.198 C  
HETATM    4  C   UNL     1      -8.260  17.208  68.693  1.00  0.00    -0.255 C  
ENDROOT
BRANCH   4   5
HETATM    5  O   UNL     1      -7.414  16.237  69.326  1.00  0.00    -0.230 OA 
BRANCH   5   6
HETATM    6  C   UNL     1      -7.294  15.046  68.652  1.00  0.00    -0.118 A  
HETATM    7  C   UNL     1      -8.241  14.531  67.761  1.00  0.00    -0.171 A  
HETATM    8  C   UNL     1      -8.142  13.202  67.304  1.00  0.00    -0.151 A  
HETATM    9  C   UNL     1      -7.079  12.387  67.707  1.00  0.00    -0.120 A  
HETATM   10  C   UNL     1      -6.046  12.974  68.458  1.00  0.00    -0.076 A  
HETATM   11  C   UNL     1      -6.156  14.290  68.926  1.00  0.00    -0.087 A  
BRANCH   9  12
HETATM   12  C   UNL     1      -7.145  10.880  67.568  1.00  0.00    -0.090 C  
BRANCH  12  13
HETATM   13  N   UNL     1      -8.221  10.220  68.275  1.00  0.00    -0.113 N  
HETATM   14  H   UNL     1      -8.573  10.598  69.155  1.00  0.00     0.000 HD 
BRANCH  13  15
HETATM   15  C   UNL     1      -8.758   9.076  67.740  1.00  0.00    -0.125 C  
HETATM   16  O   UNL     1      -8.118   8.403  66.928  1.00  0.00    -0.098 OA 
BRANCH  15  17
HETATM   17  N   UNL     1     -10.033   8.702  68.183  1.00  0.00    -0.171 N  
BRANCH  17  18
HETATM   18  C   UNL     1     -11.059   9.778  68.088  1.00  0.00    -0.110 C  
BRANCH  18  19
HETATM   19  C   UNL     1     -11.493  10.400  69.419  1.00  0.00    -0.292 A  
HETATM   20  C   UNL     1     -12.885  11.493  71.573  1.00  0.00    -0.380 A  
HETATM   21  C   UNL     1     -11.771   9.619  70.550  1.00  0.00    -0.312 A  
HETATM   22  C   UNL     1     -12.498  10.160  71.612  1.00  0.00    -0.506 A  
HETATM   23  F   UNL     1     -13.687  11.978  72.534  1.00  0.00    -0.501 F  
HETATM   24  C   UNL     1     -12.488  12.322  70.533  1.00  0.00    -0.272 A  
HETATM   25  C   UNL     1     -11.770  11.783  69.464  1.00  0.00    -0.408 A  
ENDBRANCH  18  19
ENDBRANCH  17  18
BRANCH  17  26
HETATM   26  C   UNL     1     -10.355   7.428  68.926  1.00  0.00    -0.206 C  
HETATM   27  C   UNL     1     -10.848   6.242  68.076  1.00  0.00    -0.409 C  
HETATM   28  C   UNL     1      -9.268   6.905  69.918  1.00  0.00    -0.147 C  
HETATM   29  C   UNL     1      -9.733   3.829  69.348  1.00  0.00    -0.061 C  
HETATM   30  C   UNL     1      -9.706   5.414  67.510  1.00  0.00    -0.137 C  
HETATM   31  N   UNL     1      -8.934   4.781  68.574  1.00  0.00    -0.107 NA 
HETATM   32  C   UNL     1      -8.319   5.816  69.402  1.00  0.00    -0.112 C  
ENDBRANCH  17  26
ENDBRANCH  15  17
ENDBRANCH  13  15
ENDBRANCH  12  13
ENDBRANCH   9  12
ENDBRANCH   5   6
ENDBRANCH   4   5
TORSDOF 9
ENDMDL
MODEL      270
REMARK 921   NORMALIZED FREE ENERGY PREDICTED BY IDOCK:   -4.10 KCAL/MOL
REMARK 922        TOTAL FREE ENERGY PREDICTED BY IDOCK:   -7.72 KCAL/MOL
REMARK 923 INTER-LIGAND FREE ENERGY PREDICTED BY IDOCK:   -6.69 KCAL/MOL
REMARK 924 INTRA-LIGAND FREE ENERGY PREDICTED BY IDOCK:   -1.04 KCAL/MOL
REMARK 927      BINDING AFFINITY PREDICTED BY RF-SCORE:    0.00 PKD
ROOT
HETATM    1  C   UNL     1      -9.095   2.855  64.992  1.00  0.00    -0.147 C  
HETATM    2  C   UNL     1      -8.213   3.905  65.669  1.00  0.00    -0.105 C  
HETATM    3  C   UNL     1      -8.429   5.272  65.023  1.00  0.00    -0.150 C  
HETATM    4  C   UNL     1      -8.415   3.931  67.196  1.00  0.00    -0.100 C  
ENDROOT
BRANCH   4   5
HETATM    5  O   UNL     1      -9.749   4.298  67.577  1.00  0.00    -0.178 OA 
BRANCH   5   6
HETATM    6  C   UNL     1      -9.828   5.320  68.493  1.00  0.00    -0.152 A  
HETATM    7  C   UNL     1     -10.949   5.605  69.280  1.00  0.00    -0.224 A  
HETATM    8  C   UNL     1     -11.020   6.806  70.012  1.00  0.00    -0.344 A  
HETATM    9  C   UNL     1      -9.959   7.718  69.990  1.00  0.00    -0.187 A  
HETATM   10  C   UNL     1      -8.773   7.335  69.339  1.00  0.00    -0.137 A  
HETATM   11  C   UNL     1      -8.712   6.148  68.597  1.00  0.00    -0.112 A  
BRANCH   9  12
HETATM   12  C   UNL     1     -10.148   9.157  70.422  1.00  0.00    -0.218 C  
BRANCH  12  13
HETATM   13  N   UNL     1     -10.050  10.155  69.381  1.00  0.00    -0.218 N  
HETATM   14  H   UNL     1      -9.354  10.067  68.640  1.00  0.00     0.000 HD 
BRANCH  13  15
HETATM   15  C   UNL     1     -10.910  11.225  69.408  1.00  0.00    -0.189 C  
HETATM   16  O   UNL     1     -12.012  11.130  69.954  1.00  0.00    -0.302 OA 
BRANCH  15  17
HETATM   17  N   UNL     1     -10.465  12.417  68.824  1.00  0.00    -0.195 N  
BRANCH  17  18
HETATM   18  C   UNL     1      -9.845  12.252  67.479  1.00  0.00    -0.193 C  
BRANCH  18  19
HETATM   19  C   UNL     1     -10.608  12.889  66.313  1.00  0.00    -0.281 A  
HETATM   20  C   UNL     1     -12.050  14.559  64.609  1.00  0.00    -0.473 A  
HETATM   21  C   UNL     1      -9.952  13.592  65.292  1.00  0.00    -0.229 A  
HETATM   22  C   UNL     1     -10.673  14.453  64.462  1.00  0.00    -0.236 A  
HETATM   23  F   UNL     1     -12.723  15.476  63.896  1.00  0.00    -0.330 F  
HETATM   24  C   UNL     1     -12.735  13.758  65.511  1.00  0.00    -0.530 A  
HETATM   25  C   UNL     1     -12.018  12.903  66.350  1.00  0.00    -0.462 A  
ENDBRANCH  18  19
ENDBRANCH  17  18
BRANCH  17  26
HETATM   26  C   UNL     1     -10.364  13.747  69.532  1.00  0.00     0.376 C  
HETATM   27  C   UNL     1      -9.217  14.675  69.090  1.00  0.00    -0.039 C  
HETATM   28  C   UNL     1     -11.674  14.591  69.622  1.00  0.00    -0.356 C  
HETATM   29  C   UNL     1     -10.292  17.413  69.271  1.00  0.00    -0.212 C  
HETATM   30  C   UNL     1      -9.592  15.539  67.897  1.00  0.00    -0.206 C  
HETATM   31  N   UNL     1     -10.674  16.459  68.229  1.00  0.00    -0.322 NA 
HETATM   32  C   UNL     1     -11.870  15.691  68.570  1.00  0.00    -0.237 C  
ENDBRANCH  17  26
ENDBRANCH  15  17
ENDBRANCH  13  15
ENDBRANCH  12  13
ENDBRANCH   9  12
ENDBRANCH   5   6
ENDBRANCH   4   5
TORSDOF 9
ENDMDL
MODEL      271
REMARK 921   NORMALIZED FREE ENERGY PREDICTED BY IDOCK:   -4.07 KCAL/MOL
REMARK 922        TOTAL FREE ENERGY PREDICTED BY IDOCK:   -7.68 KCAL/MOL
REMARK 923 INTER-LIGAND FREE ENERGY PREDICTED BY IDOCK:   -7.03 KCAL/MOL
REMARK 924 INTRA-LIGAND FREE ENERGY PREDICTED BY IDOCK:   -0.65 KCAL/MOL
REMARK 927      BINDING AFFINITY PREDICTED BY RF-SCORE:    0.00 PKD
ROOT
HETATM    1  C   UNL     1      -6.034   1.952  63.056  1.00  0.00    -0.009 C  
HETATM    2  C   UNL     1      -6.656   2.026  64.451  1.00  0.00    -0.023 C  
HETATM    3  C   UNL     1      -5.614   2.480  65.471  1.00  0.00    -0.017 C  
HETATM    4  C   UNL     1      -7.925   2.899  64.471  1.00  0.00    -0.082 C  
ENDROOT
BRANCH   4   5
HETATM    5  O   UNL     1      -7.668   4.269  64.131  1.00  0.00    -0.080 OA 
BRANCH   5   6
HETATM    6  C   UNL     1      -8.213   5.191  64.992  1.00  0.00    -0.130 A  
HETATM    7  C   UNL     1      -9.238   4.927  65.905  1.00  0.00    -0.155 A  
HETATM    8  C   UNL     1      -9.889   5.982  66.573  1.00  0.00    -0.186 A  
HETATM    9  C   UNL     1      -9.501   7.309  66.357  1.00  0.00    -0.185 A  
HETATM   10  C   UNL     1      -8.357   7.543  65.574  1.00  0.00    -0.137 A  
HETATM   11  C   UNL     1      -7.722   6.493  64.898  1.00  0.00    -0.105 A  
BRANCH   9  12
HETATM   12  C   UNL     1     -10.405   8.465  66.731  1.00  0.00    -0.287 C  
BRANCH  12  13
HETATM   13  N   UNL     1     -10.106   9.737  66.111  1.00  0.00    -0.260 N  
HETATM   14  H   UNL     1     -10.249   9.874  65.110  1.00  0.00     0.000 HD 
BRANCH  13  15
HETATM   15  C   UNL     1      -9.625  10.756  66.895  1.00  0.00    -0.171 C  
HETATM   16  O   UNL     1      -8.436  10.790  67.220  1.00  0.00    -0.123 OA 
BRANCH  15  17
HETATM   17  N   UNL     1     -10.533  11.755  67.270  1.00  0.00    -0.209 N  
BRANCH  17  18
HETATM   18  C   UNL     1     -11.770  11.249  67.929  1.00  0.00    -0.214 C  
BRANCH  18  19
HETATM   19  C   UNL     1     -11.604  10.773  69.375  1.00  0.00    -0.380 A  
HETATM   20  C   UNL     1     -11.685   9.408  71.805  1.00  0.00    -0.374 A  
HETATM   21  C   UNL     1     -10.517   9.984  69.778  1.00  0.00    -0.291 A  
HETATM   22  C   UNL     1     -10.576   9.274  70.980  1.00  0.00    -0.386 A  
HETATM   23  F   UNL     1     -11.795   8.633  72.896  1.00  0.00    -0.391 F  
HETATM   24  C   UNL     1     -12.701  10.301  71.496  1.00  0.00    -0.557 A  
HETATM   25  C   UNL     1     -12.652  11.004  70.291  1.00  0.00    -0.321 A  
ENDBRANCH  18  19
ENDBRANCH  17  18
BRANCH  17  26
HETATM   26  C   UNL     1     -10.448  13.206  66.857  1.00  0.00    -0.256 C  
HETATM   27  C   UNL     1     -11.661  14.089  67.201  1.00  0.00    -0.397 C  
HETATM   28  C   UNL     1      -9.149  13.971  67.263  1.00  0.00    -0.224 C  
HETATM   29  C   UNL     1     -10.555  16.738  67.867  1.00  0.00    -0.350 C  
HETATM   30  C   UNL     1     -11.583  14.667  68.605  1.00  0.00    -0.314 C  
HETATM   31  N   UNL     1     -10.446  15.571  68.743  1.00  0.00    -0.227 NA 
HETATM   32  C   UNL     1      -9.209  14.819  68.540  1.00  0.00    -0.194 C  
ENDBRANCH  17  26
ENDBRANCH  15  17
ENDBRANCH  13  15
ENDBRANCH  12  13
ENDBRANCH   9  12
ENDBRANCH   5   6
ENDBRANCH   4   5
TORSDOF 9
ENDMDL
MODEL      272
REMARK 921   NORMALIZED FREE ENERGY PREDICTED BY IDOCK:   -4.06 KCAL/MOL
REMARK 922        TOTAL FREE ENERGY PREDICTED BY IDOCK:   -7.66 KCAL/MOL
REMARK 923 INTER-LIGAND FREE ENERGY PREDICTED BY IDOCK:   -5.65 KCAL/MOL
REMARK 924 INTRA-LIGAND FREE ENERGY PREDICTED BY IDOCK:   -2.02 KCAL/MOL
REMARK 927      BINDING AFFINITY PREDICTED BY RF-SCORE:    0.00 PKD
ROOT
HETATM    1  C   UNL     1     -11.193  10.765  68.926  1.00  0.00    -0.328 C  
HETATM    2  C   UNL     1     -11.872  11.743  67.965  1.00  0.00    -0.304 C  
HETATM    3  C   UNL     1     -12.035  13.109  68.628  1.00  0.00    -0.319 C  
HETATM    4  C   UNL     1     -11.140  11.823  66.612  1.00  0.00    -0.310 C  
ENDROOT
BRANCH   4   5
HETATM    5  O   UNL     1      -9.801  12.324  66.729  1.00  0.00    -0.202 OA 
BRANCH   5   6
HETATM    6  C   UNL     1      -8.834  11.360  66.887  1.00  0.00    -0.173 A  
HETATM    7  C   UNL     1      -8.832  10.115  66.251  1.00  0.00    -0.163 A  
HETATM    8  C   UNL     1      -7.934   9.108  66.654  1.00  0.00    -0.104 A  
HETATM    9  C   UNL     1      -7.007   9.348  67.675  1.00  0.00    -0.081 A  
HETATM   10  C   UNL     1      -6.904  10.655  68.180  1.00  0.00    -0.068 A  
HETATM   11  C   UNL     1      -7.811  11.649  67.790  1.00  0.00    -0.129 A  
BRANCH   9  12
HETATM   12  C   UNL     1      -6.315   8.208  68.393  1.00  0.00    -0.050 C  
BRANCH  12  13
HETATM   13  N   UNL     1      -7.161   7.352  69.196  1.00  0.00    -0.076 N  
HETATM   14  H   UNL     1      -7.522   6.476  68.819  1.00  0.00     0.000 HD 
BRANCH  13  15
HETATM   15  C   UNL     1      -7.469   7.742  70.476  1.00  0.00    -0.074 C  
HETATM   16  O   UNL     1      -6.727   8.510  71.094  1.00  0.00    -0.049 OA 
BRANCH  15  17
HETATM   17  N   UNL     1      -8.665   7.259  71.020  1.00  0.00    -0.139 N  
BRANCH  17  18
HETATM   18  C   UNL     1      -9.887   7.625  70.249  1.00  0.00    -0.180 C  
BRANCH  18  19
HETATM   19  C   UNL     1     -10.266   6.671  69.113  1.00  0.00    -0.201 A  
HETATM   20  C   UNL     1     -10.391   5.147  66.781  1.00  0.00    -0.261 A  
HETATM   21  C   UNL     1      -9.922   5.311  69.138  1.00  0.00    -0.275 A  
HETATM   22  C   UNL     1      -9.954   4.560  67.961  1.00  0.00    -0.102 A  
HETATM   23  F   UNL     1     -10.304   4.463  65.629  1.00  0.00    -0.223 F  
HETATM   24  C   UNL     1     -10.879   6.446  66.768  1.00  0.00    -0.361 A  
HETATM   25  C   UNL     1     -10.840   7.204  67.940  1.00  0.00    -0.219 A  
ENDBRANCH  18  19
ENDBRANCH  17  18
BRANCH  17  26
HETATM   26  C   UNL     1      -8.807   6.630  72.386  1.00  0.00    -0.132 C  
HETATM   27  C   UNL     1     -10.188   6.749  73.056  1.00  0.00    -0.235 C  
HETATM   28  C   UNL     1      -8.314   5.155  72.529  1.00  0.00    -0.117 C  
HETATM   29  C   UNL     1     -10.576   4.231  74.537  1.00  0.00    -0.184 C  
HETATM   30  C   UNL     1     -11.137   5.637  72.640  1.00  0.00    -0.282 C  
HETATM   31  N   UNL     1     -10.650   4.334  73.079  1.00  0.00    -0.182 NA 
HETATM   32  C   UNL     1      -9.375   4.052  72.422  1.00  0.00    -0.122 C  
ENDBRANCH  17  26
ENDBRANCH  15  17
ENDBRANCH  13  15
ENDBRANCH  12  13
ENDBRANCH   9  12
ENDBRANCH   5   6
ENDBRANCH   4   5
TORSDOF 9
ENDMDL
MODEL      273
REMARK 921   NORMALIZED FREE ENERGY PREDICTED BY IDOCK:   -4.06 KCAL/MOL
REMARK 922        TOTAL FREE ENERGY PREDICTED BY IDOCK:   -7.66 KCAL/MOL
REMARK 923 INTER-LIGAND FREE ENERGY PREDICTED BY IDOCK:   -6.49 KCAL/MOL
REMARK 924 INTRA-LIGAND FREE ENERGY PREDICTED BY IDOCK:   -1.17 KCAL/MOL
REMARK 927      BINDING AFFINITY PREDICTED BY RF-SCORE:    0.00 PKD
ROOT
HETATM    1  C   UNL     1      -7.722   8.144  73.886  1.00  0.00    -0.245 C  
HETATM    2  C   UNL     1      -6.424   7.345  74.018  1.00  0.00    -0.077 C  
HETATM    3  C   UNL     1      -6.728   5.911  74.446  1.00  0.00    -0.076 C  
HETATM    4  C   UNL     1      -5.572   7.413  72.736  1.00  0.00    -0.037 C  
ENDROOT
BRANCH   4   5
HETATM    5  O   UNL     1      -6.225   6.833  71.598  1.00  0.00    -0.037 OA 
BRANCH   5   6
HETATM    6  C   UNL     1      -6.225   7.616  70.469  1.00  0.00    -0.037 A  
HETATM    7  C   UNL     1      -6.235   9.014  70.463  1.00  0.00    -0.045 A  
HETATM    8  C   UNL     1      -6.473   9.723  69.269  1.00  0.00    -0.048 A  
HETATM    9  C   UNL     1      -6.671   9.040  68.064  1.00  0.00    -0.068 A  
HETATM   10  C   UNL     1      -6.483   7.647  68.055  1.00  0.00    -0.054 A  
HETATM   11  C   UNL     1      -6.264   6.944  69.248  1.00  0.00    -0.030 A  
BRANCH   9  12
HETATM   12  C   UNL     1      -7.308   9.719  66.870  1.00  0.00    -0.091 C  
BRANCH  12  13
HETATM   13  N   UNL     1      -8.579   9.184  66.433  1.00  0.00    -0.122 N  
HETATM   14  H   UNL     1      -8.619   8.341  65.861  1.00  0.00     0.000 HD 
BRANCH  13  15
HETATM   15  C   UNL     1      -9.731   9.834  66.803  1.00  0.00    -0.194 C  
HETATM   16  O   UNL     1     -10.771   9.202  67.004  1.00  0.00    -0.234 OA 
BRANCH  15  17
HETATM   17  N   UNL     1      -9.655  11.222  66.970  1.00  0.00    -0.177 N  
BRANCH  17  18
HETATM   18  C   UNL     1      -9.546  11.668  68.388  1.00  0.00    -0.195 C  
BRANCH  18  19
HETATM   19  C   UNL     1     -10.865  11.741  69.164  1.00  0.00    -0.221 A  
HETATM   20  C   UNL     1     -12.864  11.966  71.094  1.00  0.00    -0.249 A  
HETATM   21  C   UNL     1     -11.580  12.939  69.303  1.00  0.00    -0.368 A  
HETATM   22  C   UNL     1     -12.558  13.059  70.293  1.00  0.00    -0.108 A  
HETATM   23  F   UNL     1     -13.713  12.117  72.123  1.00  0.00    -0.503 F  
HETATM   24  C   UNL     1     -12.275  10.730  70.870  1.00  0.00    -0.487 A  
HETATM   25  C   UNL     1     -11.291  10.608  69.889  1.00  0.00    -0.386 A  
ENDBRANCH  18  19
ENDBRANCH  17  18
BRANCH  17  26
HETATM   26  C   UNL     1      -9.902  12.243  65.885  1.00  0.00    -0.251 C  
HETATM   27  C   UNL     1     -11.213  12.097  65.091  1.00  0.00    -0.378 C  
HETATM   28  C   UNL     1      -9.732  13.742  66.286  1.00  0.00    -0.297 C  
HETATM   29  C   UNL     1     -12.100  14.846  64.504  1.00  0.00    -0.407 C  
HETATM   30  C   UNL     1     -12.385  12.792  65.766  1.00  0.00    -0.323 C  
HETATM   31  N   UNL     1     -12.178  14.235  65.832  1.00  0.00    -0.420 NA 
HETATM   32  C   UNL     1     -11.005  14.514  66.658  1.00  0.00    -0.321 C  
ENDBRANCH  17  26
ENDBRANCH  15  17
ENDBRANCH  13  15
ENDBRANCH  12  13
ENDBRANCH   9  12
ENDBRANCH   5   6
ENDBRANCH   4   5
TORSDOF 9
ENDMDL
MODEL      274
REMARK 921   NORMALIZED FREE ENERGY PREDICTED BY IDOCK:   -4.03 KCAL/MOL
REMARK 922        TOTAL FREE ENERGY PREDICTED BY IDOCK:   -7.62 KCAL/MOL
REMARK 923 INTER-LIGAND FREE ENERGY PREDICTED BY IDOCK:   -6.28 KCAL/MOL
REMARK 924 INTRA-LIGAND FREE ENERGY PREDICTED BY IDOCK:   -1.34 KCAL/MOL
REMARK 927      BINDING AFFINITY PREDICTED BY RF-SCORE:    0.00 PKD
ROOT
HETATM    1  C   UNL     1     -10.819  17.594  67.554  1.00  0.00    -0.205 C  
HETATM    2  C   UNL     1      -9.447  18.255  67.411  1.00  0.00    -0.266 C  
HETATM    3  C   UNL     1      -9.258  19.319  68.490  1.00  0.00    -0.434 C  
HETATM    4  C   UNL     1      -8.307  17.220  67.392  1.00  0.00    -0.199 C  
ENDROOT
BRANCH   4   5
HETATM    5  O   UNL     1      -8.208  16.474  68.613  1.00  0.00    -0.211 OA 
BRANCH   5   6
HETATM    6  C   UNL     1      -8.135  15.110  68.455  1.00  0.00    -0.139 A  
HETATM    7  C   UNL     1      -7.212  14.278  69.094  1.00  0.00    -0.104 A  
HETATM    8  C   UNL     1      -7.060  12.937  68.692  1.00  0.00    -0.103 A  
HETATM    9  C   UNL     1      -7.853  12.407  67.667  1.00  0.00    -0.163 A  
HETATM   10  C   UNL     1      -8.893  13.203  67.159  1.00  0.00    -0.222 A  
HETATM   11  C   UNL     1      -9.029  14.542  67.549  1.00  0.00    -0.191 A  
BRANCH   9  12
HETATM   12  C   UNL     1      -7.463  11.131  66.950  1.00  0.00    -0.138 C  
BRANCH  12  13
HETATM   13  N   UNL     1      -8.152  10.861  65.707  1.00  0.00    -0.284 N  
HETATM   14  H   UNL     1      -7.810  11.250  64.828  1.00  0.00     0.000 HD 
BRANCH  13  15
HETATM   15  C   UNL     1      -9.275  10.072  65.734  1.00  0.00    -0.176 C  
HETATM   16  O   UNL     1     -10.133  10.172  64.853  1.00  0.00    -0.330 OA 
BRANCH  15  17
HETATM   17  N   UNL     1      -9.376   9.140  66.775  1.00  0.00    -0.156 N  
BRANCH  17  18
HETATM   18  C   UNL     1      -8.369   8.043  66.720  1.00  0.00    -0.116 C  
BRANCH  18  19
HETATM   19  C   UNL     1      -8.808   6.776  65.979  1.00  0.00    -0.150 A  
HETATM   20  C   UNL     1      -9.060   4.217  64.901  1.00  0.00    -0.148 A  
HETATM   21  C   UNL     1      -9.704   5.857  66.543  1.00  0.00    -0.185 A  
HETATM   22  C   UNL     1      -9.803   4.565  66.021  1.00  0.00    -0.240 A  
HETATM   23  F   UNL     1      -9.061   2.943  64.476  1.00  0.00    -0.108 F  
HETATM   24  C   UNL     1      -8.284   5.157  64.239  1.00  0.00    -0.131 A  
HETATM   25  C   UNL     1      -8.174   6.446  64.763  1.00  0.00    -0.092 A  
ENDBRANCH  18  19
ENDBRANCH  17  18
BRANCH  17  26
HETATM   26  C   UNL     1     -10.522   9.053  67.754  1.00  0.00    -0.245 C  
HETATM   27  C   UNL     1     -10.247   8.296  69.067  1.00  0.00    -0.226 C  
HETATM   28  C   UNL     1     -11.249  10.391  68.099  1.00  0.00    -0.333 C  
HETATM   29  C   UNL     1     -11.774   9.722  71.145  1.00  0.00    -0.385 C  
HETATM   30  C   UNL     1      -9.633   9.186  70.136  1.00  0.00    -0.206 C  
HETATM   31  N   UNL     1     -10.553  10.247  70.533  1.00  0.00    -0.179 NA 
HETATM   32  C   UNL     1     -10.816  11.109  69.383  1.00  0.00    -0.216 C  
ENDBRANCH  17  26
ENDBRANCH  15  17
ENDBRANCH  13  15
ENDBRANCH  12  13
ENDBRANCH   9  12
ENDBRANCH   5   6
ENDBRANCH   4   5
TORSDOF 9
ENDMDL
MODEL      275
REMARK 921   NORMALIZED FREE ENERGY PREDICTED BY IDOCK:   -4.01 KCAL/MOL
REMARK 922        TOTAL FREE ENERGY PREDICTED BY IDOCK:   -7.58 KCAL/MOL
REMARK 923 INTER-LIGAND FREE ENERGY PREDICTED BY IDOCK:   -6.86 KCAL/MOL
REMARK 924 INTRA-LIGAND FREE ENERGY PREDICTED BY IDOCK:   -0.72 KCAL/MOL
REMARK 927      BINDING AFFINITY PREDICTED BY RF-SCORE:    0.00 PKD
ROOT
HETATM    1  C   UNL     1      -7.342   3.089  71.302  1.00  0.00    -0.033 C  
HETATM    2  C   UNL     1      -7.433   2.201  72.544  1.00  0.00    -0.039 C  
HETATM    3  C   UNL     1      -6.108   2.217  73.303  1.00  0.00    -0.008 C  
HETATM    4  C   UNL     1      -8.632   2.577  73.435  1.00  0.00    -0.067 C  
ENDROOT
BRANCH   4   5
HETATM    5  O   UNL     1      -8.541   3.907  73.965  1.00  0.00    -0.092 OA 
BRANCH   5   6
HETATM    6  C   UNL     1      -9.544   4.759  73.567  1.00  0.00    -0.131 A  
HETATM    7  C   UNL     1     -10.912   4.502  73.699  1.00  0.00    -0.382 A  
HETATM    8  C   UNL     1     -11.858   5.321  73.052  1.00  0.00    -0.129 A  
HETATM    9  C   UNL     1     -11.446   6.423  72.294  1.00  0.00    -0.339 A  
HETATM   10  C   UNL     1     -10.084   6.769  72.318  1.00  0.00    -0.191 A  
HETATM   11  C   UNL     1      -9.144   5.942  72.947  1.00  0.00    -0.121 A  
BRANCH   9  12
HETATM   12  C   UNL     1     -12.369   7.073  71.285  1.00  0.00    -0.383 C  
BRANCH  12  13
HETATM   13  N   UNL     1     -11.748   7.972  70.337  1.00  0.00    -0.469 N  
HETATM   14  H   UNL     1     -11.286   7.609  69.503  1.00  0.00     0.000 HD 
BRANCH  13  15
HETATM   15  C   UNL     1     -11.792   9.322  70.582  1.00  0.00    -0.192 C  
HETATM   16  O   UNL     1     -12.166   9.750  71.676  1.00  0.00    -0.371 OA 
BRANCH  15  17
HETATM   17  N   UNL     1     -11.364  10.171  69.553  1.00  0.00    -0.229 N  
BRANCH  17  18
HETATM   18  C   UNL     1     -12.271  11.323  69.286  1.00  0.00    -0.222 C  
BRANCH  18  19
HETATM   19  C   UNL     1     -11.831  12.666  69.878  1.00  0.00    -0.364 A  
HETATM   20  C   UNL     1     -11.447  15.355  70.504  1.00  0.00    -0.327 A  
HETATM   21  C   UNL     1     -12.462  13.227  70.997  1.00  0.00    -0.422 A  
HETATM   22  C   UNL     1     -12.294  14.583  71.288  1.00  0.00    -0.418 A  
HETATM   23  F   UNL     1     -11.382  16.680  70.708  1.00  0.00    -0.390 F  
HETATM   24  C   UNL     1     -10.697  14.783  69.487  1.00  0.00    -0.229 A  
HETATM   25  C   UNL     1     -10.870  13.431  69.186  1.00  0.00    -0.156 A  
ENDBRANCH  18  19
ENDBRANCH  17  18
BRANCH  17  26
HETATM   26  C   UNL     1     -10.232   9.876  68.598  1.00  0.00    -0.178 C  
HETATM   27  C   UNL     1      -8.816   9.843  69.201  1.00  0.00    -0.165 C  
HETATM   28  C   UNL     1     -10.405   8.629  67.675  1.00  0.00    -0.317 C  
HETATM   29  C   UNL     1      -7.371   7.738  67.729  1.00  0.00    -0.095 C  
HETATM   30  C   UNL     1      -8.456   8.480  69.769  1.00  0.00    -0.129 C  
HETATM   31  N   UNL     1      -8.411   7.465  68.722  1.00  0.00    -0.128 NA 
HETATM   32  C   UNL     1      -9.740   7.325  68.133  1.00  0.00    -0.145 C  
ENDBRANCH  17  26
ENDBRANCH  15  17
ENDBRANCH  13  15
ENDBRANCH  12  13
ENDBRANCH   9  12
ENDBRANCH   5   6
ENDBRANCH   4   5
TORSDOF 9
ENDMDL
MODEL      276
REMARK 921   NORMALIZED FREE ENERGY PREDICTED BY IDOCK:   -3.99 KCAL/MOL
REMARK 922        TOTAL FREE ENERGY PREDICTED BY IDOCK:   -7.56 KCAL/MOL
REMARK 923 INTER-LIGAND FREE ENERGY PREDICTED BY IDOCK:   -6.53 KCAL/MOL
REMARK 924 INTRA-LIGAND FREE ENERGY PREDICTED BY IDOCK:   -1.02 KCAL/MOL
REMARK 927      BINDING AFFINITY PREDICTED BY RF-SCORE:    0.00 PKD
ROOT
HETATM    1  C   UNL     1      -9.124   1.554  69.659  1.00  0.00    -0.148 C  
HETATM    2  C   UNL     1      -8.416   2.770  69.058  1.00  0.00    -0.100 C  
HETATM    3  C   UNL     1      -9.332   3.473  68.058  1.00  0.00    -0.237 C  
HETATM    4  C   UNL     1      -7.882   3.722  70.145  1.00  0.00    -0.047 C  
ENDROOT
BRANCH   4   5
HETATM    5  O   UNL     1      -8.923   4.289  70.953  1.00  0.00    -0.100 OA 
BRANCH   5   6
HETATM    6  C   UNL     1      -9.340   5.540  70.567  1.00  0.00    -0.157 A  
HETATM    7  C   UNL     1     -10.672   5.959  70.508  1.00  0.00    -0.363 A  
HETATM    8  C   UNL     1     -11.013   7.172  69.878  1.00  0.00    -0.278 A  
HETATM    9  C   UNL     1     -10.021   7.993  69.330  1.00  0.00    -0.191 A  
HETATM   10  C   UNL     1      -8.678   7.644  69.553  1.00  0.00    -0.136 A  
HETATM   11  C   UNL     1      -8.343   6.429  70.164  1.00  0.00    -0.134 A  
BRANCH   9  12
HETATM   12  C   UNL     1     -10.361   9.072  68.322  1.00  0.00    -0.209 C  
BRANCH  12  13
HETATM   13  N   UNL     1     -10.212  10.437  68.774  1.00  0.00    -0.177 N  
HETATM   14  H   UNL     1      -9.369  10.733  69.266  1.00  0.00     0.000 HD 
BRANCH  13  15
HETATM   15  C   UNL     1     -11.228  11.328  68.529  1.00  0.00    -0.252 C  
HETATM   16  O   UNL     1     -12.393  11.045  68.817  1.00  0.00    -0.533 OA 
BRANCH  15  17
HETATM   17  N   UNL     1     -10.872  12.565  67.978  1.00  0.00    -0.217 N  
BRANCH  17  18
HETATM   18  C   UNL     1     -10.788  12.576  66.490  1.00  0.00    -0.256 C  
BRANCH  18  19
HETATM   19  C   UNL     1      -9.746  11.635  65.877  1.00  0.00    -0.260 A  
HETATM   20  C   UNL     1      -7.975   9.561  65.300  1.00  0.00    -0.112 A  
HETATM   21  C   UNL     1     -10.094  10.648  64.943  1.00  0.00    -0.402 A  
HETATM   22  C   UNL     1      -9.218   9.592  64.683  1.00  0.00    -0.247 A  
HETATM   23  F   UNL     1      -7.185   8.485  65.145  1.00  0.00    -0.075 F  
HETATM   24  C   UNL     1      -7.553  10.606  66.109  1.00  0.00    -0.138 A  
HETATM   25  C   UNL     1      -8.429  11.658  66.380  1.00  0.00    -0.114 A  
ENDBRANCH  18  19
ENDBRANCH  17  18
BRANCH  17  26
HETATM   26  C   UNL     1     -10.368  13.753  68.762  1.00  0.00    -0.192 C  
HETATM   27  C   UNL     1      -8.905  14.167  68.516  1.00  0.00    -0.173 C  
HETATM   28  C   UNL     1     -11.256  15.037  68.731  1.00  0.00    -0.288 C  
HETATM   29  C   UNL     1      -8.865  17.108  68.704  1.00  0.00    -0.266 C  
HETATM   30  C   UNL     1      -8.756  15.109  67.332  1.00  0.00    -0.190 C  
HETATM   31  N   UNL     1      -9.438  16.375  67.574  1.00  0.00    -0.223 NA 
HETATM   32  C   UNL     1     -10.871  16.127  67.722  1.00  0.00    -0.318 C  
ENDBRANCH  17  26
ENDBRANCH  15  17
ENDBRANCH  13  15
ENDBRANCH  12  13
ENDBRANCH   9  12
ENDBRANCH   5   6
ENDBRANCH   4   5
TORSDOF 9
ENDMDL
MODEL      277
REMARK 921   NORMALIZED FREE ENERGY PREDICTED BY IDOCK:   -3.97 KCAL/MOL
REMARK 922        TOTAL FREE ENERGY PREDICTED BY IDOCK:   -7.52 KCAL/MOL
REMARK 923 INTER-LIGAND FREE ENERGY PREDICTED BY IDOCK:   -5.46 KCAL/MOL
REMARK 924 INTRA-LIGAND FREE ENERGY PREDICTED BY IDOCK:   -2.06 KCAL/MOL
REMARK 927      BINDING AFFINITY PREDICTED BY RF-SCORE:    0.00 PKD
ROOT
HETATM    1  C   UNL     1      -8.024   3.292  64.367  1.00  0.00    -0.082 C  
HETATM    2  C   UNL     1      -8.336   4.166  65.583  1.00  0.00    -0.109 C  
HETATM    3  C   UNL     1      -9.815   4.056  65.947  1.00  0.00    -0.179 C  
HETATM    4  C   UNL     1      -7.407   3.853  66.772  1.00  0.00    -0.072 C  
ENDROOT
BRANCH   4   5
HETATM    5  O   UNL     1      -7.555   2.511  67.260  1.00  0.00    -0.060 OA 
BRANCH   5   6
HETATM    6  C   UNL     1      -7.975   2.413  68.564  1.00  0.00    -0.053 A  
HETATM    7  C   UNL     1      -9.209   1.898  68.973  1.00  0.00    -0.200 A  
HETATM    8  C   UNL     1      -9.644   2.055  70.303  1.00  0.00    -0.091 A  
HETATM    9  C   UNL     1      -8.835   2.700  71.245  1.00  0.00    -0.130 A  
HETATM   10  C   UNL     1      -7.529   3.052  70.863  1.00  0.00    -0.036 A  
HETATM   11  C   UNL     1      -7.106   2.911  69.535  1.00  0.00    -0.041 A  
BRANCH   9  12
HETATM   12  C   UNL     1      -9.408   3.231  72.543  1.00  0.00    -0.104 C  
BRANCH  12  13
HETATM   13  N   UNL     1      -9.276   4.655  72.764  1.00  0.00    -0.128 N  
HETATM   14  H   UNL     1      -8.806   5.010  73.596  1.00  0.00     0.000 HD 
BRANCH  13  15
HETATM   15  C   UNL     1      -9.797   5.518  71.832  1.00  0.00    -0.168 C  
HETATM   16  O   UNL     1     -10.934   5.347  71.384  1.00  0.00    -0.190 OA 
BRANCH  15  17
HETATM   17  N   UNL     1      -8.998   6.603  71.450  1.00  0.00    -0.140 N  
BRANCH  17  18
HETATM   18  C   UNL     1      -9.277   7.866  72.190  1.00  0.00    -0.158 C  
BRANCH  18  19
HETATM   19  C   UNL     1     -10.561   8.599  71.792  1.00  0.00    -0.395 A  
HETATM   20  C   UNL     1     -12.742  10.322  71.577  1.00  0.00    -0.452 A  
HETATM   21  C   UNL     1     -10.569   9.612  70.821  1.00  0.00    -0.392 A  
HETATM   22  C   UNL     1     -11.648  10.494  70.740  1.00  0.00    -0.432 A  
HETATM   23  F   UNL     1     -13.722  11.241  71.583  1.00  0.00    -0.249 F  
HETATM   24  C   UNL     1     -12.819   9.236  72.437  1.00  0.00    -0.418 A  
HETATM   25  C   UNL     1     -11.739   8.358  72.529  1.00  0.00    -0.429 A  
ENDBRANCH  18  19
ENDBRANCH  17  18
BRANCH  17  26
HETATM   26  C   UNL     1      -8.091   6.631  70.243  1.00  0.00    -0.121 C  
HETATM   27  C   UNL     1      -8.751   6.347  68.881  1.00  0.00    -0.126 C  
HETATM   28  C   UNL     1      -7.169   7.882  70.092  1.00  0.00    -0.058 C  
HETATM   29  C   UNL     1      -7.352   8.067  66.940  1.00  0.00    -0.090 C  
HETATM   30  C   UNL     1      -9.342   7.595  68.246  1.00  0.00    -0.145 C  
HETATM   31  N   UNL     1      -8.304   8.570  67.931  1.00  0.00    -0.125 NA 
HETATM   32  C   UNL     1      -7.662   9.005  69.170  1.00  0.00    -0.092 C  
ENDBRANCH  17  26
ENDBRANCH  15  17
ENDBRANCH  13  15
ENDBRANCH  12  13
ENDBRANCH   9  12
ENDBRANCH   5   6
ENDBRANCH   4   5
TORSDOF 9
ENDMDL
MODEL      278
REMARK 921   NORMALIZED FREE ENERGY PREDICTED BY IDOCK:   -3.96 KCAL/MOL
REMARK 922        TOTAL FREE ENERGY PREDICTED BY IDOCK:   -7.52 KCAL/MOL
REMARK 923 INTER-LIGAND FREE ENERGY PREDICTED BY IDOCK:   -6.15 KCAL/MOL
REMARK 924 INTRA-LIGAND FREE ENERGY PREDICTED BY IDOCK:   -1.36 KCAL/MOL
REMARK 927      BINDING AFFINITY PREDICTED BY RF-SCORE:    0.00 PKD
ROOT
HETATM    1  C   UNL     1      -9.094  15.939  69.146  1.00  0.00    -0.255 C  
HETATM    2  C   UNL     1     -10.422  16.690  69.038  1.00  0.00    -0.328 C  
HETATM    3  C   UNL     1     -10.210  18.046  68.369  1.00  0.00    -0.399 C  
HETATM    4  C   UNL     1     -11.507  15.847  68.341  1.00  0.00    -0.348 C  
ENDROOT
BRANCH   4   5
HETATM    5  O   UNL     1     -11.178  15.525  66.982  1.00  0.00    -0.285 OA 
BRANCH   5   6
HETATM    6  C   UNL     1     -11.142  14.181  66.697  1.00  0.00    -0.312 A  
HETATM    7  C   UNL     1     -11.681  13.176  67.507  1.00  0.00    -0.414 A  
HETATM    8  C   UNL     1     -11.389  11.822  67.253  1.00  0.00    -0.379 A  
HETATM    9  C   UNL     1     -10.583  11.458  66.168  1.00  0.00    -0.316 A  
HETATM   10  C   UNL     1     -10.198  12.464  65.265  1.00  0.00    -0.306 A  
HETATM   11  C   UNL     1     -10.474  13.812  65.531  1.00  0.00    -0.327 A  
BRANCH   9  12
HETATM   12  C   UNL     1      -9.934  10.092  66.093  1.00  0.00    -0.256 C  
BRANCH  12  13
HETATM   13  N   UNL     1     -10.385   9.116  67.061  1.00  0.00    -0.264 N  
HETATM   14  H   UNL     1     -11.295   8.666  66.960  1.00  0.00     0.000 HD 
BRANCH  13  15
HETATM   15  C   UNL     1      -9.566   8.808  68.119  1.00  0.00    -0.146 C  
HETATM   16  O   UNL     1      -8.385   9.164  68.122  1.00  0.00    -0.119 OA 
BRANCH  15  17
HETATM   17  N   UNL     1     -10.141   8.112  69.190  1.00  0.00    -0.197 N  
BRANCH  17  18
HETATM   18  C   UNL     1      -9.408   6.876  69.586  1.00  0.00    -0.145 C  
BRANCH  18  19
HETATM   19  C   UNL     1      -8.299   7.065  70.625  1.00  0.00    -0.127 A  
HETATM   20  C   UNL     1      -6.731   7.161  72.928  1.00  0.00    -0.064 A  
HETATM   21  C   UNL     1      -7.319   6.088  70.854  1.00  0.00    -0.082 A  
HETATM   22  C   UNL     1      -6.560   6.120  72.025  1.00  0.00    -0.059 A  
HETATM   23  F   UNL     1      -6.092   7.125  74.108  1.00  0.00    -0.069 F  
HETATM   24  C   UNL     1      -7.585   8.217  72.646  1.00  0.00    -0.160 A  
HETATM   25  C   UNL     1      -8.354   8.184  71.482  1.00  0.00    -0.155 A  
ENDBRANCH  18  19
ENDBRANCH  17  18
BRANCH  17  26
HETATM   26  C   UNL     1     -11.504   8.390  69.776  1.00  0.00     0.262 C  
HETATM   27  C   UNL     1     -12.255   7.185  70.371  1.00  0.00    -0.083 C  
HETATM   28  C   UNL     1     -11.600   9.578  70.784  1.00  0.00    -0.378 C  
HETATM   29  C   UNL     1     -13.724   8.231  72.701  1.00  0.00     0.058 C  
HETATM   30  C   UNL     1     -11.880   6.921  71.820  1.00  0.00    -0.316 C  
HETATM   31  N   UNL     1     -12.274   8.033  72.679  1.00  0.00    -0.246 NA 
HETATM   32  C   UNL     1     -11.541   9.232  72.278  1.00  0.00     0.060 C  
ENDBRANCH  17  26
ENDBRANCH  15  17
ENDBRANCH  13  15
ENDBRANCH  12  13
ENDBRANCH   9  12
ENDBRANCH   5   6
ENDBRANCH   4   5
TORSDOF 9
ENDMDL
MODEL      279
REMARK 921   NORMALIZED FREE ENERGY PREDICTED BY IDOCK:   -3.95 KCAL/MOL
REMARK 922        TOTAL FREE ENERGY PREDICTED BY IDOCK:   -7.50 KCAL/MOL
REMARK 923 INTER-LIGAND FREE ENERGY PREDICTED BY IDOCK:   -5.32 KCAL/MOL
REMARK 924 INTRA-LIGAND FREE ENERGY PREDICTED BY IDOCK:   -2.18 KCAL/MOL
REMARK 927      BINDING AFFINITY PREDICTED BY RF-SCORE:    0.00 PKD
ROOT
HETATM    1  C   UNL     1      -7.076   7.164  74.536  1.00  0.00    -0.109 C  
HETATM    2  C   UNL     1      -5.867   6.330  74.108  1.00  0.00    -0.062 C  
HETATM    3  C   UNL     1      -6.071   4.867  74.496  1.00  0.00    -0.055 C  
HETATM    4  C   UNL     1      -5.544   6.508  72.613  1.00  0.00    -0.038 C  
ENDROOT
BRANCH   4   5
HETATM    5  O   UNL     1      -6.600   6.056  71.754  1.00  0.00    -0.052 OA 
BRANCH   5   6
HETATM    6  C   UNL     1      -6.583   6.586  70.486  1.00  0.00    -0.049 A  
HETATM    7  C   UNL     1      -6.068   7.842  70.150  1.00  0.00    -0.032 A  
HETATM    8  C   UNL     1      -6.307   8.395  68.877  1.00  0.00    -0.045 A  
HETATM    9  C   UNL     1      -7.036   7.683  67.917  1.00  0.00    -0.076 A  
HETATM   10  C   UNL     1      -7.392   6.356  68.209  1.00  0.00    -0.086 A  
HETATM   11  C   UNL     1      -7.169   5.816  69.483  1.00  0.00    -0.066 A  
BRANCH   9  12
HETATM   12  C   UNL     1      -7.642   8.378  66.715  1.00  0.00    -0.090 C  
BRANCH  12  13
HETATM   13  N   UNL     1      -8.858   7.798  66.189  1.00  0.00    -0.157 N  
HETATM   14  H   UNL     1      -8.824   7.119  65.428  1.00  0.00     0.000 HD 
BRANCH  13  15
HETATM   15  C   UNL     1     -10.060   8.179  66.733  1.00  0.00    -0.295 C  
HETATM   16  O   UNL     1     -11.011   7.394  66.764  1.00  0.00    -0.249 OA 
BRANCH  15  17
HETATM   17  N   UNL     1     -10.136   9.470  67.271  1.00  0.00    -0.200 N  
BRANCH  17  18
HETATM   18  C   UNL     1     -10.853   9.553  68.574  1.00  0.00    -0.132 C  
BRANCH  18  19
HETATM   19  C   UNL     1     -10.359   8.600  69.667  1.00  0.00    -0.213 A  
HETATM   20  C   UNL     1      -9.939   7.146  72.008  1.00  0.00    -0.162 A  
HETATM   21  C   UNL     1     -10.832   7.284  69.775  1.00  0.00    -0.251 A  
HETATM   22  C   UNL     1     -10.649   6.571  70.962  1.00  0.00    -0.275 A  
HETATM   23  F   UNL     1      -9.870   6.511  73.189  1.00  0.00    -0.157 F  
HETATM   24  C   UNL     1      -9.333   8.385  71.863  1.00  0.00    -0.313 A  
HETATM   25  C   UNL     1      -9.521   9.106  70.683  1.00  0.00    -0.316 A  
ENDBRANCH  18  19
ENDBRANCH  17  18
BRANCH  17  26
HETATM   26  C   UNL     1      -9.768  10.739  66.540  1.00  0.00    -0.196 C  
HETATM   27  C   UNL     1     -10.922  11.499  65.860  1.00  0.00    -0.301 C  
HETATM   28  C   UNL     1      -8.895  11.768  67.325  1.00  0.00    -0.167 C  
HETATM   29  C   UNL     1     -10.272  14.359  66.145  1.00  0.00    -0.306 C  
HETATM   30  C   UNL     1     -11.628  12.457  66.805  1.00  0.00    -0.379 C  
HETATM   31  N   UNL     1     -10.730  13.517  67.251  1.00  0.00    -0.266 NA 
HETATM   32  C   UNL     1      -9.631  12.926  68.012  1.00  0.00    -0.221 C  
ENDBRANCH  17  26
ENDBRANCH  15  17
ENDBRANCH  13  15
ENDBRANCH  12  13
ENDBRANCH   9  12
ENDBRANCH   5   6
ENDBRANCH   4   5
TORSDOF 9
ENDMDL
MODEL      280
REMARK 921   NORMALIZED FREE ENERGY PREDICTED BY IDOCK:   -3.95 KCAL/MOL
REMARK 922        TOTAL FREE ENERGY PREDICTED BY IDOCK:   -7.50 KCAL/MOL
REMARK 923 INTER-LIGAND FREE ENERGY PREDICTED BY IDOCK:   -6.25 KCAL/MOL
REMARK 924 INTRA-LIGAND FREE ENERGY PREDICTED BY IDOCK:   -1.25 KCAL/MOL
REMARK 927      BINDING AFFINITY PREDICTED BY RF-SCORE:    0.00 PKD
ROOT
HETATM    1  C   UNL     1      -6.292   2.834  66.288  1.00  0.00    -0.028 C  
HETATM    2  C   UNL     1      -7.627   2.307  66.815  1.00  0.00    -0.066 C  
HETATM    3  C   UNL     1      -7.424   1.602  68.155  1.00  0.00    -0.046 C  
HETATM    4  C   UNL     1      -8.697   3.413  66.883  1.00  0.00    -0.123 C  
ENDROOT
BRANCH   4   5
HETATM    5  O   UNL     1      -8.355   4.468  67.793  1.00  0.00    -0.099 OA 
BRANCH   5   6
HETATM    6  C   UNL     1      -8.421   5.734  67.262  1.00  0.00    -0.107 A  
HETATM    7  C   UNL     1      -7.318   6.550  66.997  1.00  0.00    -0.079 A  
HETATM    8  C   UNL     1      -7.495   7.911  66.678  1.00  0.00    -0.089 A  
HETATM    9  C   UNL     1      -8.780   8.460  66.591  1.00  0.00    -0.144 A  
HETATM   10  C   UNL     1      -9.878   7.588  66.686  1.00  0.00    -0.274 A  
HETATM   11  C   UNL     1      -9.698   6.240  67.021  1.00  0.00    -0.173 A  
BRANCH   9  12
HETATM   12  C   UNL     1      -9.001   9.957  66.647  1.00  0.00    -0.139 C  
BRANCH  12  13
HETATM   13  N   UNL     1      -9.791  10.446  67.755  1.00  0.00    -0.166 N  
HETATM   14  H   UNL     1     -10.742  10.783  67.606  1.00  0.00     0.000 HD 
BRANCH  13  15
HETATM   15  C   UNL     1      -9.237  10.446  69.011  1.00  0.00    -0.187 C  
HETATM   16  O   UNL     1      -8.194  11.065  69.236  1.00  0.00    -0.099 OA 
BRANCH  15  17
HETATM   17  N   UNL     1      -9.924   9.749  70.012  1.00  0.00    -0.242 N  
BRANCH  17  18
HETATM   18  C   UNL     1     -11.407   9.890  69.956  1.00  0.00    -0.249 C  
BRANCH  18  19
HETATM   19  C   UNL     1     -11.954  11.282  70.286  1.00  0.00    -0.466 A  
HETATM   20  C   UNL     1     -12.439  13.832  71.303  1.00  0.00    -0.345 A  
HETATM   21  C   UNL     1     -11.590  12.418  69.548  1.00  0.00    -0.353 A  
HETATM   22  C   UNL     1     -11.804  13.693  70.076  1.00  0.00    -0.378 A  
HETATM   23  F   UNL     1     -12.533  15.048  71.866  1.00  0.00    -0.323 F  
HETATM   24  C   UNL     1     -12.942  12.728  71.976  1.00  0.00    -0.380 A  
HETATM   25  C   UNL     1     -12.722  11.451  71.457  1.00  0.00    -0.462 A  
ENDBRANCH  18  19
ENDBRANCH  17  18
BRANCH  17  26
HETATM   26  C   UNL     1      -9.282   9.097  71.214  1.00  0.00    -0.191 C  
HETATM   27  C   UNL     1     -10.213   8.284  72.133  1.00  0.00    -0.355 C  
HETATM   28  C   UNL     1      -7.996   8.255  70.946  1.00  0.00    -0.101 C  
HETATM   29  C   UNL     1      -8.605   6.006  73.085  1.00  0.00    -0.118 C  
HETATM   30  C   UNL     1     -10.386   6.848  71.667  1.00  0.00    -0.199 C  
HETATM   31  N   UNL     1      -9.123   6.119  71.721  1.00  0.00    -0.145 NA 
HETATM   32  C   UNL     1      -8.173   6.738  70.799  1.00  0.00    -0.123 C  
ENDBRANCH  17  26
ENDBRANCH  15  17
ENDBRANCH  13  15
ENDBRANCH  12  13
ENDBRANCH   9  12
ENDBRANCH   5   6
ENDBRANCH   4   5
TORSDOF 9
ENDMDL
MODEL      281
REMARK 921   NORMALIZED FREE ENERGY PREDICTED BY IDOCK:   -3.92 KCAL/MOL
REMARK 922        TOTAL FREE ENERGY PREDICTED BY IDOCK:   -7.45 KCAL/MOL
REMARK 923 INTER-LIGAND FREE ENERGY PREDICTED BY IDOCK:   -5.71 KCAL/MOL
REMARK 924 INTRA-LIGAND FREE ENERGY PREDICTED BY IDOCK:   -1.75 KCAL/MOL
REMARK 927      BINDING AFFINITY PREDICTED BY RF-SCORE:    0.00 PKD
ROOT
HETATM    1  C   UNL     1      -7.354  18.131  68.663  1.00  0.00    -0.295 C  
HETATM    2  C   UNL     1      -6.927  18.008  67.199  1.00  0.00    -0.211 C  
HETATM    3  C   UNL     1      -5.597  18.724  66.976  1.00  0.00    -0.151 C  
HETATM    4  C   UNL     1      -6.898  16.541  66.728  1.00  0.00    -0.190 C  
ENDROOT
BRANCH   4   5
HETATM    5  O   UNL     1      -5.941  15.744  67.439  1.00  0.00    -0.240 OA 
BRANCH   5   6
HETATM    6  C   UNL     1      -6.346  14.459  67.713  1.00  0.00    -0.152 A  
HETATM    7  C   UNL     1      -7.620  13.947  67.446  1.00  0.00    -0.160 A  
HETATM    8  C   UNL     1      -8.014  12.702  67.974  1.00  0.00    -0.155 A  
HETATM    9  C   UNL     1      -7.127  11.944  68.747  1.00  0.00    -0.111 A  
HETATM   10  C   UNL     1      -5.799  12.390  68.857  1.00  0.00    -0.066 A  
HETATM   11  C   UNL     1      -5.416  13.636  68.346  1.00  0.00    -0.097 A  
BRANCH   9  12
HETATM   12  C   UNL     1      -7.622  10.826  69.642  1.00  0.00    -0.042 C  
BRANCH  12  13
HETATM   13  N   UNL     1      -7.385   9.479  69.172  1.00  0.00    -0.070 N  
HETATM   14  H   UNL     1      -6.792   8.840  69.702  1.00  0.00     0.000 HD 
BRANCH  13  15
HETATM   15  C   UNL     1      -7.972   9.077  67.997  1.00  0.00    -0.101 C  
HETATM   16  O   UNL     1      -7.374   9.193  66.925  1.00  0.00    -0.088 OA 
BRANCH  15  17
HETATM   17  N   UNL     1      -9.249   8.508  68.085  1.00  0.00    -0.138 N  
BRANCH  17  18
HETATM   18  C   UNL     1     -10.358   9.496  68.205  1.00  0.00    -0.207 C  
BRANCH  18  19
HETATM   19  C   UNL     1     -10.652  10.321  66.948  1.00  0.00    -0.282 A  
HETATM   20  C   UNL     1     -10.631  12.133  64.830  1.00  0.00    -0.296 A  
HETATM   21  C   UNL     1     -10.224   9.915  65.676  1.00  0.00    -0.229 A  
HETATM   22  C   UNL     1     -10.183  10.834  64.626  1.00  0.00    -0.419 A  
HETATM   23  F   UNL     1     -10.476  13.047  63.858  1.00  0.00    -0.406 F  
HETATM   24  C   UNL     1     -11.199  12.510  66.038  1.00  0.00    -0.354 A  
HETATM   25  C   UNL     1     -11.233  11.598  67.093  1.00  0.00    -0.371 A  
ENDBRANCH  18  19
ENDBRANCH  17  18
BRANCH  17  26
HETATM   26  C   UNL     1      -9.533   7.039  68.292  1.00  0.00    -0.128 C  
HETATM   27  C   UNL     1     -10.589   6.407  67.367  1.00  0.00    -0.363 C  
HETATM   28  C   UNL     1      -8.295   6.090  68.348  1.00  0.00    -0.113 C  
HETATM   29  C   UNL     1      -9.656   3.661  66.849  1.00  0.00    -0.150 C  
HETATM   30  C   UNL     1     -10.000   5.927  66.051  1.00  0.00     0.102 C  
HETATM   31  N   UNL     1      -9.038   4.851  66.264  1.00  0.00    -0.123 NA 
HETATM   32  C   UNL     1      -7.917   5.359  67.053  1.00  0.00    -0.101 C  
ENDBRANCH  17  26
ENDBRANCH  15  17
ENDBRANCH  13  15
ENDBRANCH  12  13
ENDBRANCH   9  12
ENDBRANCH   5   6
ENDBRANCH   4   5
TORSDOF 9
ENDMDL
MODEL      282
REMARK 921   NORMALIZED FREE ENERGY PREDICTED BY IDOCK:   -3.89 KCAL/MOL
REMARK 922        TOTAL FREE ENERGY PREDICTED BY IDOCK:   -7.41 KCAL/MOL
REMARK 923 INTER-LIGAND FREE ENERGY PREDICTED BY IDOCK:   -5.00 KCAL/MOL
REMARK 924 INTRA-LIGAND FREE ENERGY PREDICTED BY IDOCK:   -2.41 KCAL/MOL
REMARK 927      BINDING AFFINITY PREDICTED BY RF-SCORE:    0.00 PKD
ROOT
HETATM    1  C   UNL     1      -6.083   8.123  71.464  1.00  0.00    -0.037 C  
HETATM    2  C   UNL     1      -5.849   8.005  72.971  1.00  0.00    -0.054 C  
HETATM    3  C   UNL     1      -5.283   9.313  73.521  1.00  0.00    -0.106 C  
HETATM    4  C   UNL     1      -7.116   7.547  73.718  1.00  0.00    -0.091 C  
ENDROOT
BRANCH   4   5
HETATM    5  O   UNL     1      -8.200   8.479  73.606  1.00  0.00    -0.383 OA 
BRANCH   5   6
HETATM    6  C   UNL     1      -9.268   8.039  72.860  1.00  0.00    -0.265 A  
HETATM    7  C   UNL     1      -9.862   6.779  72.977  1.00  0.00    -0.191 A  
HETATM    8  C   UNL     1     -10.790   6.335  72.015  1.00  0.00    -0.286 A  
HETATM    9  C   UNL     1     -11.156   7.159  70.944  1.00  0.00    -0.290 A  
HETATM   10  C   UNL     1     -10.685   8.483  70.940  1.00  0.00    -0.268 A  
HETATM   11  C   UNL     1      -9.749   8.916  71.888  1.00  0.00    -0.349 A  
BRANCH   9  12
HETATM   12  C   UNL     1     -11.819   6.592  69.707  1.00  0.00    -0.095 C  
BRANCH  12  13
HETATM   13  N   UNL     1     -11.236   6.971  68.439  1.00  0.00    -0.498 N  
HETATM   14  H   UNL     1     -11.423   7.889  68.034  1.00  0.00     0.000 HD 
BRANCH  13  15
HETATM   15  C   UNL     1     -10.427   6.072  67.789  1.00  0.00    -0.239 C  
HETATM   16  O   UNL     1     -10.806   5.523  66.751  1.00  0.00    -0.281 OA 
BRANCH  15  17
HETATM   17  N   UNL     1      -9.160   5.841  68.339  1.00  0.00    -0.118 N  
BRANCH  17  18
HETATM   18  C   UNL     1      -8.306   7.057  68.452  1.00  0.00    -0.124 C  
BRANCH  18  19
HETATM   19  C   UNL     1      -8.025   7.796  67.140  1.00  0.00    -0.117 A  
HETATM   20  C   UNL     1      -7.041   9.432  65.109  1.00  0.00    -0.100 A  
HETATM   21  C   UNL     1      -7.176   7.268  66.156  1.00  0.00    -0.074 A  
HETATM   22  C   UNL     1      -6.659   8.098  65.160  1.00  0.00    -0.052 A  
HETATM   23  F   UNL     1      -6.449  10.257  64.230  1.00  0.00    -0.122 F  
HETATM   24  C   UNL     1      -7.996   9.935  65.981  1.00  0.00    -0.114 A  
HETATM   25  C   UNL     1      -8.508   9.112  66.984  1.00  0.00    -0.123 A  
ENDBRANCH  18  19
ENDBRANCH  17  18
BRANCH  17  26
HETATM   26  C   UNL     1      -8.555   4.480  68.586  1.00  0.00    -0.089 C  
HETATM   27  C   UNL     1      -7.141   4.457  69.195  1.00  0.00    -0.051 C  
HETATM   28  C   UNL     1      -9.441   3.453  69.359  1.00  0.00    -0.221 C  
HETATM   29  C   UNL     1      -7.082   2.121  70.990  1.00  0.00    -0.033 C  
HETATM   30  C   UNL     1      -7.157   4.531  70.713  1.00  0.00    -0.041 C  
HETATM   31  N   UNL     1      -7.803   3.358  71.293  1.00  0.00    -0.058 NA 
HETATM   32  C   UNL     1      -9.201   3.321  70.869  1.00  0.00    -0.131 C  
ENDBRANCH  17  26
ENDBRANCH  15  17
ENDBRANCH  13  15
ENDBRANCH  12  13
ENDBRANCH   9  12
ENDBRANCH   5   6
ENDBRANCH   4   5
TORSDOF 9
ENDMDL
MODEL      283
REMARK 921   NORMALIZED FREE ENERGY PREDICTED BY IDOCK:   -3.86 KCAL/MOL
REMARK 922        TOTAL FREE ENERGY PREDICTED BY IDOCK:   -7.35 KCAL/MOL
REMARK 923 INTER-LIGAND FREE ENERGY PREDICTED BY IDOCK:   -5.06 KCAL/MOL
REMARK 924 INTRA-LIGAND FREE ENERGY PREDICTED BY IDOCK:   -2.29 KCAL/MOL
REMARK 927      BINDING AFFINITY PREDICTED BY RF-SCORE:    0.00 PKD
ROOT
HETATM    1  C   UNL     1     -11.369   8.377  70.685  1.00  0.00    -0.262 C  
HETATM    2  C   UNL     1     -12.704   8.823  71.285  1.00  0.00    -0.267 C  
HETATM    3  C   UNL     1     -12.562   9.037  72.790  1.00  0.00    -0.074 C  
HETATM    4  C   UNL     1     -13.278  10.057  70.562  1.00  0.00    -0.009 C  
ENDROOT
BRANCH   4   5
HETATM    5  O   UNL     1     -12.439  11.215  70.680  1.00  0.00    -0.335 OA 
BRANCH   5   6
HETATM    6  C   UNL     1     -11.889  11.654  69.500  1.00  0.00    -0.348 A  
HETATM    7  C   UNL     1     -12.012  11.004  68.268  1.00  0.00    -0.113 A  
HETATM    8  C   UNL     1     -11.222  11.399  67.170  1.00  0.00    -0.363 A  
HETATM    9  C   UNL     1     -10.327  12.468  67.285  1.00  0.00    -0.228 A  
HETATM   10  C   UNL     1     -10.346  13.220  68.472  1.00  0.00    -0.244 A  
HETATM   11  C   UNL     1     -11.119  12.814  69.568  1.00  0.00    -0.046 A  
BRANCH   9  12
HETATM   12  C   UNL     1      -9.205  12.665  66.287  1.00  0.00    -0.110 C  
BRANCH  12  13
HETATM   13  N   UNL     1      -8.508  11.470  65.865  1.00  0.00    -0.373 N  
HETATM   14  H   UNL     1      -8.933  10.831  65.193  1.00  0.00     0.000 HD 
BRANCH  13  15
HETATM   15  C   UNL     1      -7.265  11.212  66.386  1.00  0.00    -0.094 C  
HETATM   16  O   UNL     1      -6.435  10.568  65.739  1.00  0.00    -0.115 OA 
BRANCH  15  17
HETATM   17  N   UNL     1      -6.981  11.739  67.652  1.00  0.00    -0.094 N  
BRANCH  17  18
HETATM   18  C   UNL     1      -5.963  12.828  67.653  1.00  0.00    -0.150 C  
BRANCH  18  19
HETATM   19  C   UNL     1      -6.444  14.185  68.177  1.00  0.00    -0.127 A  
HETATM   20  C   UNL     1      -6.713  16.850  68.951  1.00  0.00    -0.199 A  
HETATM   21  C   UNL     1      -7.148  15.088  67.367  1.00  0.00    -0.206 A  
HETATM   22  C   UNL     1      -7.252  16.429  67.742  1.00  0.00    -0.155 A  
HETATM   23  F   UNL     1      -6.704  18.159  69.251  1.00  0.00    -0.243 F  
HETATM   24  C   UNL     1      -6.147  15.942  69.834  1.00  0.00    -0.166 A  
HETATM   25  C   UNL     1      -6.032  14.603  69.460  1.00  0.00    -0.106 A  
ENDBRANCH  18  19
ENDBRANCH  17  18
BRANCH  17  26
HETATM   26  C   UNL     1      -7.439  11.146  68.963  1.00  0.00    -0.124 C  
HETATM   27  C   UNL     1      -8.279   9.858  68.877  1.00  0.00    -0.118 C  
HETATM   28  C   UNL     1      -6.346  10.950  70.060  1.00  0.00    -0.142 C  
HETATM   29  C   UNL     1      -7.495   8.238  71.210  1.00  0.00    -0.081 C  
HETATM   30  C   UNL     1      -7.421   8.605  68.812  1.00  0.00    -0.091 C  
HETATM   31  N   UNL     1      -6.644   8.432  70.035  1.00  0.00    -0.038 NA 
HETATM   32  C   UNL     1      -5.720   9.554  70.180  1.00  0.00    -0.037 C  
ENDBRANCH  17  26
ENDBRANCH  15  17
ENDBRANCH  13  15
ENDBRANCH  12  13
ENDBRANCH   9  12
ENDBRANCH   5   6
ENDBRANCH   4   5
TORSDOF 9
ENDMDL
MODEL      284
REMARK 921   NORMALIZED FREE ENERGY PREDICTED BY IDOCK:   -3.85 KCAL/MOL
REMARK 922        TOTAL FREE ENERGY PREDICTED BY IDOCK:   -7.35 KCAL/MOL
REMARK 923 INTER-LIGAND FREE ENERGY PREDICTED BY IDOCK:   -6.06 KCAL/MOL
REMARK 924 INTRA-LIGAND FREE ENERGY PREDICTED BY IDOCK:   -1.29 KCAL/MOL
REMARK 927      BINDING AFFINITY PREDICTED BY RF-SCORE:    0.00 PKD
ROOT
HETATM    1  C   UNL     1      -6.266   3.549  66.676  1.00  0.00    -0.028 C  
HETATM    2  C   UNL     1      -7.699   3.153  67.038  1.00  0.00    -0.075 C  
HETATM    3  C   UNL     1      -7.732   2.484  68.410  1.00  0.00    -0.054 C  
HETATM    4  C   UNL     1      -8.670   4.345  66.935  1.00  0.00    -0.112 C  
ENDROOT
BRANCH   4   5
HETATM    5  O   UNL     1      -8.359   5.401  67.854  1.00  0.00    -0.100 OA 
BRANCH   5   6
HETATM    6  C   UNL     1      -8.496   6.670  67.345  1.00  0.00    -0.120 A  
HETATM    7  C   UNL     1      -7.498   7.650  67.355  1.00  0.00    -0.100 A  
HETATM    8  C   UNL     1      -7.805   8.985  67.028  1.00  0.00    -0.098 A  
HETATM    9  C   UNL     1      -9.105   9.347  66.658  1.00  0.00    -0.181 A  
HETATM   10  C   UNL     1     -10.051   8.323  66.483  1.00  0.00    -0.303 A  
HETATM   11  C   UNL     1      -9.748   6.999  66.826  1.00  0.00    -0.241 A  
BRANCH   9  12
HETATM   12  C   UNL     1      -9.558  10.792  66.688  1.00  0.00    -0.178 C  
BRANCH  12  13
HETATM   13  N   UNL     1     -10.719  11.081  67.501  1.00  0.00    -0.227 N  
HETATM   14  H   UNL     1     -11.660  10.962  67.126  1.00  0.00     0.000 HD 
BRANCH  13  15
HETATM   15  C   UNL     1     -10.529  11.519  68.789  1.00  0.00    -0.204 C  
HETATM   16  O   UNL     1      -9.645  12.339  69.049  1.00  0.00     0.101 OA 
BRANCH  15  17
HETATM   17  N   UNL     1     -11.400  11.022  69.766  1.00  0.00    -0.275 N  
BRANCH  17  18
HETATM   18  C   UNL     1     -12.642  11.825  69.952  1.00  0.00     0.104 C  
BRANCH  18  19
HETATM   19  C   UNL     1     -12.440  13.336  70.101  1.00  0.00    -0.210 A  
HETATM   20  C   UNL     1     -11.442  15.914  70.460  1.00  0.00    -0.392 A  
HETATM   21  C   UNL     1     -12.226  14.171  68.995  1.00  0.00    -0.274 A  
HETATM   22  C   UNL     1     -11.694  15.449  69.176  1.00  0.00    -0.364 A  
HETATM   23  F   UNL     1     -10.817  17.091  70.627  1.00  0.00    -0.136 F  
HETATM   24  C   UNL     1     -11.790  15.162  71.572  1.00  0.00    -0.436 A  
HETATM   25  C   UNL     1     -12.312  13.880  71.396  1.00  0.00    -0.383 A  
ENDBRANCH  18  19
ENDBRANCH  17  18
BRANCH  17  26
HETATM   26  C   UNL     1     -11.068   9.926  70.750  1.00  0.00    -0.347 C  
HETATM   27  C   UNL     1     -12.155   9.577  71.783  1.00  0.00    -0.459 C  
HETATM   28  C   UNL     1     -10.511   8.596  70.150  1.00  0.00    -0.228 C  
HETATM   29  C   UNL     1     -11.961   6.666  72.194  1.00  0.00    -0.280 C  
HETATM   30  C   UNL     1     -13.155   8.560  71.257  1.00  0.00    -0.143 C  
HETATM   31  N   UNL     1     -12.512   7.279  70.984  1.00  0.00    -0.317 NA 
HETATM   32  C   UNL     1     -11.515   7.457  69.930  1.00  0.00    -0.003 C  
ENDBRANCH  17  26
ENDBRANCH  15  17
ENDBRANCH  13  15
ENDBRANCH  12  13
ENDBRANCH   9  12
ENDBRANCH   5   6
ENDBRANCH   4   5
TORSDOF 9
ENDMDL
MODEL      285
REMARK 921   NORMALIZED FREE ENERGY PREDICTED BY IDOCK:   -3.83 KCAL/MOL
REMARK 922        TOTAL FREE ENERGY PREDICTED BY IDOCK:   -7.31 KCAL/MOL
REMARK 923 INTER-LIGAND FREE ENERGY PREDICTED BY IDOCK:   -5.25 KCAL/MOL
REMARK 924 INTRA-LIGAND FREE ENERGY PREDICTED BY IDOCK:   -2.05 KCAL/MOL
REMARK 927      BINDING AFFINITY PREDICTED BY RF-SCORE:    0.00 PKD
ROOT
HETATM    1  C   UNL     1      -5.758   8.536  72.138  1.00  0.00    -0.052 C  
HETATM    2  C   UNL     1      -6.275   8.058  73.496  1.00  0.00    -0.086 C  
HETATM    3  C   UNL     1      -6.054   9.136  74.554  1.00  0.00    -0.065 C  
HETATM    4  C   UNL     1      -7.741   7.590  73.422  1.00  0.00    -0.103 C  
ENDROOT
BRANCH   4   5
HETATM    5  O   UNL     1      -8.646   8.641  73.055  1.00  0.00    -0.395 OA 
BRANCH   5   6
HETATM    6  C   UNL     1      -9.381   8.401  71.918  1.00  0.00    -0.244 A  
HETATM    7  C   UNL     1      -9.293   7.246  71.136  1.00  0.00    -0.156 A  
HETATM    8  C   UNL     1      -9.906   7.192  69.869  1.00  0.00    -0.174 A  
HETATM    9  C   UNL     1     -10.639   8.282  69.386  1.00  0.00    -0.203 A  
HETATM   10  C   UNL     1     -10.864   9.363  70.255  1.00  0.00    -0.303 A  
HETATM   11  C   UNL     1     -10.238   9.421  71.508  1.00  0.00    -0.223 A  
BRANCH   9  12
HETATM   12  C   UNL     1     -10.966   8.420  67.914  1.00  0.00     0.178 C  
BRANCH  12  13
HETATM   13  N   UNL     1     -11.338   9.743  67.463  1.00  0.00    -0.288 N  
HETATM   14  H   UNL     1     -12.217  10.166  67.763  1.00  0.00     0.000 HD 
BRANCH  13  15
HETATM   15  C   UNL     1     -10.487  10.418  66.624  1.00  0.00    -0.215 C  
HETATM   16  O   UNL     1     -10.230   9.976  65.502  1.00  0.00    -0.280 OA 
BRANCH  15  17
HETATM   17  N   UNL     1      -9.963  11.631  67.089  1.00  0.00    -0.198 N  
BRANCH  17  18
HETATM   18  C   UNL     1      -8.771  11.490  67.972  1.00  0.00    -0.151 C  
BRANCH  18  19
HETATM   19  C   UNL     1      -7.573  10.757  67.360  1.00  0.00    -0.099 A  
HETATM   20  C   UNL     1      -5.858   9.141  65.871  1.00  0.00    -0.050 A  
HETATM   21  C   UNL     1      -6.827  11.303  66.306  1.00  0.00    -0.001 A  
HETATM   22  C   UNL     1      -5.995  10.483  65.541  1.00  0.00    -0.134 A  
HETATM   23  F   UNL     1      -5.157   8.329  65.063  1.00  0.00    -0.033 F  
HETATM   24  C   UNL     1      -6.469   8.619  67.002  1.00  0.00    -0.057 A  
HETATM   25  C   UNL     1      -7.309   9.431  67.763  1.00  0.00    -0.083 A  
ENDBRANCH  18  19
ENDBRANCH  17  18
BRANCH  17  26
HETATM   26  C   UNL     1     -10.633  12.978  66.950  1.00  0.00    -0.254 C  
HETATM   27  C   UNL     1     -11.093  13.653  68.256  1.00  0.00    -0.281 C  
HETATM   28  C   UNL     1      -9.890  14.040  66.080  1.00  0.00    -0.319 C  
HETATM   29  C   UNL     1     -10.670  16.541  67.852  1.00  0.00    -0.337 C  
HETATM   30  C   UNL     1      -9.989  14.467  68.912  1.00  0.00    -0.182 C  
HETATM   31  N   UNL     1      -9.583  15.585  68.068  1.00  0.00    -0.202 NA 
HETATM   32  C   UNL     1      -9.024  15.067  66.821  1.00  0.00    -0.265 C  
ENDBRANCH  17  26
ENDBRANCH  15  17
ENDBRANCH  13  15
ENDBRANCH  12  13
ENDBRANCH   9  12
ENDBRANCH   5   6
ENDBRANCH   4   5
TORSDOF 9
ENDMDL
MODEL      286
REMARK 921   NORMALIZED FREE ENERGY PREDICTED BY IDOCK:   -3.82 KCAL/MOL
REMARK 922        TOTAL FREE ENERGY PREDICTED BY IDOCK:   -7.30 KCAL/MOL
REMARK 923 INTER-LIGAND FREE ENERGY PREDICTED BY IDOCK:   -6.17 KCAL/MOL
REMARK 924 INTRA-LIGAND FREE ENERGY PREDICTED BY IDOCK:   -1.13 KCAL/MOL
REMARK 927      BINDING AFFINITY PREDICTED BY RF-SCORE:    0.00 PKD
ROOT
HETATM    1  C   UNL     1     -10.483  14.285  65.029  1.00  0.00    -0.458 C  
HETATM    2  C   UNL     1     -11.230  12.961  65.200  1.00  0.00    -0.319 C  
HETATM    3  C   UNL     1     -11.403  12.274  63.847  1.00  0.00    -0.501 C  
HETATM    4  C   UNL     1     -10.558  12.051  66.246  1.00  0.00    -0.252 C  
ENDROOT
BRANCH   4   5
HETATM    5  O   UNL     1      -9.230  11.656  65.874  1.00  0.00    -0.224 OA 
BRANCH   5   6
HETATM    6  C   UNL     1      -8.872  10.388  66.265  1.00  0.00    -0.152 A  
HETATM    7  C   UNL     1      -9.622   9.233  66.024  1.00  0.00    -0.338 A  
HETATM    8  C   UNL     1      -9.296   8.022  66.664  1.00  0.00    -0.249 A  
HETATM    9  C   UNL     1      -8.196   7.946  67.527  1.00  0.00    -0.124 A  
HETATM   10  C   UNL     1      -7.352   9.066  67.619  1.00  0.00    -0.084 A  
HETATM   11  C   UNL     1      -7.690  10.274  66.995  1.00  0.00    -0.100 A  
BRANCH   9  12
HETATM   12  C   UNL     1      -8.049   6.810  68.517  1.00  0.00    -0.120 C  
BRANCH  12  13
HETATM   13  N   UNL     1      -8.929   5.678  68.326  1.00  0.00    -0.114 N  
HETATM   14  H   UNL     1      -8.818   5.065  67.518  1.00  0.00     0.000 HD 
BRANCH  13  15
HETATM   15  C   UNL     1      -9.916   5.446  69.251  1.00  0.00    -0.207 C  
HETATM   16  O   UNL     1     -11.083   5.269  68.893  1.00  0.00     0.166 OA 
BRANCH  15  17
HETATM   17  N   UNL     1      -9.529   5.387  70.596  1.00  0.00    -0.160 N  
BRANCH  17  18
HETATM   18  C   UNL     1      -9.446   6.712  71.273  1.00  0.00    -0.162 C  
BRANCH  18  19
HETATM   19  C   UNL     1     -10.751   7.513  71.327  1.00  0.00    -0.242 A  
HETATM   20  C   UNL     1     -12.973   9.025  72.065  1.00  0.00    -0.407 A  
HETATM   21  C   UNL     1     -10.791   8.888  71.055  1.00  0.00    -0.326 A  
HETATM   22  C   UNL     1     -11.892   9.648  71.456  1.00  0.00    -0.483 A  
HETATM   23  F   UNL     1     -13.974   9.771  72.561  1.00  0.00    -0.423 F  
HETATM   24  C   UNL     1     -13.017   7.646  72.204  1.00  0.00    -0.133 A  
HETATM   25  C   UNL     1     -11.916   6.883  71.813  1.00  0.00    -0.372 A  
ENDBRANCH  18  19
ENDBRANCH  17  18
BRANCH  17  26
HETATM   26  C   UNL     1      -8.993   4.159  71.293  1.00  0.00    -0.114 C  
HETATM   27  C   UNL     1      -8.337   3.092  70.397  1.00  0.00    -0.082 C  
HETATM   28  C   UNL     1      -8.066   4.406  72.525  1.00  0.00    -0.100 C  
HETATM   29  C   UNL     1      -6.113   1.979  71.977  1.00  0.00    -0.013 C  
HETATM   30  C   UNL     1      -6.866   3.371  70.137  1.00  0.00    -0.034 C  
HETATM   31  N   UNL     1      -6.090   3.311  71.371  1.00  0.00    -0.014 NA 
HETATM   32  C   UNL     1      -6.552   4.359  72.279  1.00  0.00    -0.026 C  
ENDBRANCH  17  26
ENDBRANCH  15  17
ENDBRANCH  13  15
ENDBRANCH  12  13
ENDBRANCH   9  12
ENDBRANCH   5   6
ENDBRANCH   4   5
TORSDOF 9
ENDMDL
MODEL      287
REMARK 921   NORMALIZED FREE ENERGY PREDICTED BY IDOCK:   -3.80 KCAL/MOL
REMARK 922        TOTAL FREE ENERGY PREDICTED BY IDOCK:   -7.26 KCAL/MOL
REMARK 923 INTER-LIGAND FREE ENERGY PREDICTED BY IDOCK:   -5.34 KCAL/MOL
REMARK 924 INTRA-LIGAND FREE ENERGY PREDICTED BY IDOCK:   -1.92 KCAL/MOL
REMARK 927      BINDING AFFINITY PREDICTED BY RF-SCORE:    0.00 PKD
ROOT
HETATM    1  C   UNL     1      -9.150   3.809  63.407  1.00  0.00    -0.106 C  
HETATM    2  C   UNL     1      -8.942   2.386  63.928  1.00  0.00    -0.097 C  
HETATM    3  C   UNL     1      -7.633   1.814  63.388  1.00  0.00    -0.054 C  
HETATM    4  C   UNL     1      -9.032   2.315  65.464  1.00  0.00    -0.122 C  
ENDROOT
BRANCH   4   5
HETATM    5  O   UNL     1      -8.011   3.080  66.121  1.00  0.00    -0.080 OA 
BRANCH   5   6
HETATM    6  C   UNL     1      -8.458   4.205  66.770  1.00  0.00    -0.104 A  
HETATM    7  C   UNL     1      -7.649   5.270  67.178  1.00  0.00    -0.092 A  
HETATM    8  C   UNL     1      -8.155   6.263  68.040  1.00  0.00    -0.115 A  
HETATM    9  C   UNL     1      -9.484   6.218  68.476  1.00  0.00    -0.123 A  
HETATM   10  C   UNL     1     -10.329   5.244  67.917  1.00  0.00    -0.189 A  
HETATM   11  C   UNL     1      -9.818   4.247  67.074  1.00  0.00    -0.216 A  
BRANCH   9  12
HETATM   12  C   UNL     1      -9.944   7.010  69.681  1.00  0.00    -0.173 C  
BRANCH  12  13
HETATM   13  N   UNL     1     -10.702   8.211  69.405  1.00  0.00    -0.353 N  
HETATM   14  H   UNL     1     -11.721   8.201  69.435  1.00  0.00     0.000 HD 
BRANCH  13  15
HETATM   15  C   UNL     1     -10.022   9.365  69.102  1.00  0.00    -0.182 C  
HETATM   16  O   UNL     1      -8.928   9.603  69.619  1.00  0.00    -0.171 OA 
BRANCH  15  17
HETATM   17  N   UNL     1     -10.610  10.225  68.165  1.00  0.00    -0.204 N  
BRANCH  17  18
HETATM   18  C   UNL     1     -10.794   9.629  66.812  1.00  0.00     0.019 C  
BRANCH  18  19
HETATM   19  C   UNL     1      -9.618   9.799  65.846  1.00  0.00    -0.313 A  
HETATM   20  C   UNL     1      -7.573   9.464  63.981  1.00  0.00    -0.115 A  
HETATM   21  C   UNL     1      -9.800  10.208  64.517  1.00  0.00    -0.334 A  
HETATM   22  C   UNL     1      -8.786  10.007  63.578  1.00  0.00    -0.229 A  
HETATM   23  F   UNL     1      -6.646   9.158  63.058  1.00  0.00    -0.091 F  
HETATM   24  C   UNL     1      -7.320   9.195  65.318  1.00  0.00    -0.092 A  
HETATM   25  C   UNL     1      -8.334   9.384  66.258  1.00  0.00    -0.117 A  
ENDBRANCH  18  19
ENDBRANCH  17  18
BRANCH  17  26
HETATM   26  C   UNL     1     -10.836  11.704  68.366  1.00  0.00    -0.219 C  
HETATM   27  C   UNL     1      -9.608  12.616  68.188  1.00  0.00    -0.219 C  
HETATM   28  C   UNL     1     -12.037  12.337  67.595  1.00  0.00    -0.032 C  
HETATM   29  C   UNL     1     -10.628  15.100  66.973  1.00  0.00    -0.300 C  
HETATM   30  C   UNL     1      -9.389  13.025  66.741  1.00  0.00    -0.244 C  
HETATM   31  N   UNL     1     -10.497  13.836  66.247  1.00  0.00    -0.286 NA 
HETATM   32  C   UNL     1     -11.721  13.038  66.266  1.00  0.00    -0.387 C  
ENDBRANCH  17  26
ENDBRANCH  15  17
ENDBRANCH  13  15
ENDBRANCH  12  13
ENDBRANCH   9  12
ENDBRANCH   5   6
ENDBRANCH   4   5
TORSDOF 9
ENDMDL
MODEL      288
REMARK 921   NORMALIZED FREE ENERGY PREDICTED BY IDOCK:   -3.79 KCAL/MOL
REMARK 922        TOTAL FREE ENERGY PREDICTED BY IDOCK:   -7.26 KCAL/MOL
REMARK 923 INTER-LIGAND FREE ENERGY PREDICTED BY IDOCK:   -5.77 KCAL/MOL
REMARK 924 INTRA-LIGAND FREE ENERGY PREDICTED BY IDOCK:   -1.49 KCAL/MOL
REMARK 927      BINDING AFFINITY PREDICTED BY RF-SCORE:    0.00 PKD
ROOT
HETATM    1  C   UNL     1     -11.881  13.953  68.276  1.00  0.00    -0.412 C  
HETATM    2  C   UNL     1     -11.193  14.628  67.088  1.00  0.00    -0.349 C  
HETATM    3  C   UNL     1     -10.883  16.086  67.417  1.00  0.00    -0.277 C  
HETATM    4  C   UNL     1      -9.949  13.847  66.623  1.00  0.00    -0.279 C  
ENDROOT
BRANCH   4   5
HETATM    5  O   UNL     1      -8.925  13.776  67.625  1.00  0.00    -0.175 OA 
BRANCH   5   6
HETATM    6  C   UNL     1      -8.333  12.543  67.762  1.00  0.00    -0.170 A  
HETATM    7  C   UNL     1      -7.139  12.155  67.148  1.00  0.00    -0.120 A  
HETATM    8  C   UNL     1      -6.737  10.805  67.157  1.00  0.00    -0.084 A  
HETATM    9  C   UNL     1      -7.510   9.836  67.807  1.00  0.00    -0.090 A  
HETATM   10  C   UNL     1      -8.610  10.270  68.566  1.00  0.00    -0.126 A  
HETATM   11  C   UNL     1      -9.017  11.610  68.540  1.00  0.00    -0.138 A  
BRANCH   9  12
HETATM   12  C   UNL     1      -7.335   8.361  67.510  1.00  0.00    -0.093 C  
BRANCH  12  13
HETATM   13  N   UNL     1      -8.385   7.486  67.982  1.00  0.00    -0.123 N  
HETATM   14  H   UNL     1      -8.336   7.071  68.913  1.00  0.00     0.000 HD 
BRANCH  13  15
HETATM   15  C   UNL     1      -9.447   7.223  67.154  1.00  0.00    -0.145 C  
HETATM   16  O   UNL     1      -9.661   7.928  66.165  1.00  0.00    -0.139 OA 
BRANCH  15  17
HETATM   17  N   UNL     1     -10.240   6.111  67.466  1.00  0.00    -0.156 N  
BRANCH  17  18
HETATM   18  C   UNL     1     -11.306   6.377  68.473  1.00  0.00    -0.086 C  
BRANCH  18  19
HETATM   19  C   UNL     1     -10.817   6.800  69.862  1.00  0.00    -0.310 A  
HETATM   20  C   UNL     1     -10.554   7.455  72.559  1.00  0.00    -0.261 A  
HETATM   21  C   UNL     1     -10.239   5.888  70.757  1.00  0.00    -0.268 A  
HETATM   22  C   UNL     1     -10.141   6.206  72.113  1.00  0.00    -0.207 A  
HETATM   23  F   UNL     1     -10.574   7.713  73.876  1.00  0.00    -0.351 F  
HETATM   24  C   UNL     1     -10.986   8.425  71.666  1.00  0.00    -0.345 A  
HETATM   25  C   UNL     1     -11.096   8.108  70.311  1.00  0.00    -0.221 A  
ENDBRANCH  18  19
ENDBRANCH  17  18
BRANCH  17  26
HETATM   26  C   UNL     1      -9.947   4.690  67.049  1.00  0.00    -0.195 C  
HETATM   27  C   UNL     1      -9.450   4.487  65.605  1.00  0.00    -0.174 C  
HETATM   28  C   UNL     1      -9.039   3.855  68.005  1.00  0.00    -0.183 C  
HETATM   29  C   UNL     1      -7.509   2.274  65.734  1.00  0.00    -0.067 C  
HETATM   30  C   UNL     1      -7.944   4.648  65.479  1.00  0.00    -0.095 C  
HETATM   31  N   UNL     1      -7.237   3.621  66.237  1.00  0.00    -0.063 NA 
HETATM   32  C   UNL     1      -7.547   3.774  67.656  1.00  0.00    -0.067 C  
ENDBRANCH  17  26
ENDBRANCH  15  17
ENDBRANCH  13  15
ENDBRANCH  12  13
ENDBRANCH   9  12
ENDBRANCH   5   6
ENDBRANCH   4   5
TORSDOF 9
ENDMDL
MODEL      289
REMARK 921   NORMALIZED FREE ENERGY PREDICTED BY IDOCK:   -3.79 KCAL/MOL
REMARK 922        TOTAL FREE ENERGY PREDICTED BY IDOCK:   -7.25 KCAL/MOL
REMARK 923 INTER-LIGAND FREE ENERGY PREDICTED BY IDOCK:   -5.55 KCAL/MOL
REMARK 924 INTRA-LIGAND FREE ENERGY PREDICTED BY IDOCK:   -1.70 KCAL/MOL
REMARK 927      BINDING AFFINITY PREDICTED BY RF-SCORE:    0.00 PKD
ROOT
HETATM    1  C   UNL     1      -7.211   3.763  65.709  1.00  0.00    -0.071 C  
HETATM    2  C   UNL     1      -8.488   3.249  66.374  1.00  0.00    -0.108 C  
HETATM    3  C   UNL     1      -8.148   2.483  67.651  1.00  0.00    -0.072 C  
HETATM    4  C   UNL     1      -9.509   4.378  66.614  1.00  0.00    -0.179 C  
ENDROOT
BRANCH   4   5
HETATM    5  O   UNL     1      -9.028   5.385  67.516  1.00  0.00    -0.110 OA 
BRANCH   5   6
HETATM    6  C   UNL     1      -8.434   6.467  66.911  1.00  0.00    -0.110 A  
HETATM    7  C   UNL     1      -7.141   6.925  67.180  1.00  0.00    -0.080 A  
HETATM    8  C   UNL     1      -6.709   8.173  66.690  1.00  0.00    -0.063 A  
HETATM    9  C   UNL     1      -7.555   8.959  65.899  1.00  0.00    -0.093 A  
HETATM   10  C   UNL     1      -8.781   8.406  65.493  1.00  0.00    -0.196 A  
HETATM   11  C   UNL     1      -9.215   7.173  65.997  1.00  0.00    -0.069 A  
BRANCH   9  12
HETATM   12  C   UNL     1      -7.290  10.436  65.691  1.00  0.00    -0.148 C  
BRANCH  12  13
HETATM   13  N   UNL     1      -8.445  11.305  65.740  1.00  0.00    -0.351 N  
HETATM   14  H   UNL     1      -9.147  11.278  65.001  1.00  0.00     0.000 HD 
BRANCH  13  15
HETATM   15  C   UNL     1      -8.577  12.167  66.800  1.00  0.00    -0.163 C  
HETATM   16  O   UNL     1      -7.711  13.014  67.032  1.00  0.00    -0.082 OA 
BRANCH  15  17
HETATM   17  N   UNL     1      -9.743  12.059  67.569  1.00  0.00    -0.185 N  
BRANCH  17  18
HETATM   18  C   UNL     1     -10.941  12.709  66.968  1.00  0.00    -0.265 C  
BRANCH  18  19
HETATM   19  C   UNL     1     -11.126  14.194  67.294  1.00  0.00    -0.315 A  
HETATM   20  C   UNL     1     -10.919  16.803  68.253  1.00  0.00    -0.327 A  
HETATM   21  C   UNL     1     -10.595  15.206  66.480  1.00  0.00    -0.304 A  
HETATM   22  C   UNL     1     -10.462  16.504  66.977  1.00  0.00    -0.289 A  
HETATM   23  F   UNL     1     -10.679  18.018  68.774  1.00  0.00    -0.289 F  
HETATM   24  C   UNL     1     -11.584  15.853  69.014  1.00  0.00    -0.392 A  
HETATM   25  C   UNL     1     -11.711  14.552  68.527  1.00  0.00    -0.353 A  
ENDBRANCH  18  19
ENDBRANCH  17  18
BRANCH  17  26
HETATM   26  C   UNL     1      -9.801  11.562  68.994  1.00  0.00     0.007 C  
HETATM   27  C   UNL     1     -11.140  10.958  69.456  1.00  0.00    -0.326 C  
HETATM   28  C   UNL     1      -8.648  10.612  69.449  1.00  0.00    -0.046 C  
HETATM   29  C   UNL     1     -10.433   8.760  71.288  1.00  0.00    -0.256 C  
HETATM   30  C   UNL     1     -11.260   9.480  69.122  1.00  0.00     0.031 C  
HETATM   31  N   UNL     1     -10.260   8.693  69.836  1.00  0.00    -0.198 NA 
HETATM   32  C   UNL     1      -8.927   9.104  69.401  1.00  0.00    -0.147 C  
ENDBRANCH  17  26
ENDBRANCH  15  17
ENDBRANCH  13  15
ENDBRANCH  12  13
ENDBRANCH   9  12
ENDBRANCH   5   6
ENDBRANCH   4   5
TORSDOF 9
ENDMDL
MODEL      290
REMARK 921   NORMALIZED FREE ENERGY PREDICTED BY IDOCK:   -3.74 KCAL/MOL
REMARK 922        TOTAL FREE ENERGY PREDICTED BY IDOCK:   -7.18 KCAL/MOL
REMARK 923 INTER-LIGAND FREE ENERGY PREDICTED BY IDOCK:   -7.14 KCAL/MOL
REMARK 924 INTRA-LIGAND FREE ENERGY PREDICTED BY IDOCK:   -0.04 KCAL/MOL
REMARK 927      BINDING AFFINITY PREDICTED BY RF-SCORE:    0.00 PKD
ROOT
HETATM    1  C   UNL     1      -7.789   8.507  74.495  1.00  0.00    -0.177 C  
HETATM    2  C   UNL     1      -6.844   8.462  73.293  1.00  0.00    -0.113 C  
HETATM    3  C   UNL     1      -5.841   7.322  73.454  1.00  0.00    -0.053 C  
HETATM    4  C   UNL     1      -7.611   8.395  71.959  1.00  0.00    -0.117 C  
ENDROOT
BRANCH   4   5
HETATM    5  O   UNL     1      -8.400   7.204  71.826  1.00  0.00    -0.106 OA 
BRANCH   5   6
HETATM    6  C   UNL     1      -8.902   6.980  70.567  1.00  0.00    -0.154 A  
HETATM    7  C   UNL     1      -8.177   6.441  69.499  1.00  0.00    -0.118 A  
HETATM    8  C   UNL     1      -8.703   6.468  68.193  1.00  0.00    -0.117 A  
HETATM    9  C   UNL     1      -9.971   7.006  67.946  1.00  0.00    -0.183 A  
HETATM   10  C   UNL     1     -10.755   7.380  69.051  1.00  0.00    -0.164 A  
HETATM   11  C   UNL     1     -10.223   7.368  70.347  1.00  0.00    -0.201 A  
BRANCH   9  12
HETATM   12  C   UNL     1     -10.396   7.411  66.550  1.00  0.00    -0.038 C  
BRANCH  12  13
HETATM   13  N   UNL     1     -10.475   8.832  66.293  1.00  0.00    -0.224 N  
HETATM   14  H   UNL     1     -11.141   9.201  65.614  1.00  0.00     0.000 HD 
BRANCH  13  15
HETATM   15  C   UNL     1      -9.637   9.675  66.981  1.00  0.00    -0.173 C  
HETATM   16  O   UNL     1      -8.433   9.423  67.074  1.00  0.00    -0.125 OA 
BRANCH  15  17
HETATM   17  N   UNL     1     -10.204  10.831  67.530  1.00  0.00    -0.188 N  
BRANCH  17  18
HETATM   18  C   UNL     1     -10.031  10.963  69.004  1.00  0.00    -0.191 C  
BRANCH  18  19
HETATM   19  C   UNL     1     -11.304  11.271  69.798  1.00  0.00    -0.348 A  
HETATM   20  C   UNL     1     -13.199  11.894  71.745  1.00  0.00    -0.321 A  
HETATM   21  C   UNL     1     -11.837  12.566  69.876  1.00  0.00    -0.373 A  
HETATM   22  C   UNL     1     -12.761  12.883  70.875  1.00  0.00    -0.291 A  
HETATM   23  F   UNL     1     -13.990  12.226  72.779  1.00  0.00    -0.296 F  
HETATM   24  C   UNL     1     -12.800  10.575  71.587  1.00  0.00    -0.581 A  
HETATM   25  C   UNL     1     -11.869  10.256  70.598  1.00  0.00    -0.439 A  
ENDBRANCH  18  19
ENDBRANCH  17  18
BRANCH  17  26
HETATM   26  C   UNL     1     -11.131  11.775  66.801  1.00  0.00    -0.306 C  
HETATM   27  C   UNL     1     -10.853  13.280  66.975  1.00  0.00    -0.278 C  
HETATM   28  C   UNL     1     -11.367  11.488  65.285  1.00  0.00    -0.150 C  
HETATM   29  C   UNL     1     -11.504  14.516  64.380  1.00  0.00    -0.272 C  
HETATM   30  C   UNL     1      -9.827  13.802  65.983  1.00  0.00    -0.282 C  
HETATM   31  N   UNL     1     -10.314  13.696  64.612  1.00  0.00    -0.417 NA 
HETATM   32  C   UNL     1     -10.520  12.287  64.284  1.00  0.00    -0.346 C  
ENDBRANCH  17  26
ENDBRANCH  15  17
ENDBRANCH  13  15
ENDBRANCH  12  13
ENDBRANCH   9  12
ENDBRANCH   5   6
ENDBRANCH   4   5
TORSDOF 9
ENDMDL
MODEL      291
REMARK 921   NORMALIZED FREE ENERGY PREDICTED BY IDOCK:   -3.70 KCAL/MOL
REMARK 922        TOTAL FREE ENERGY PREDICTED BY IDOCK:   -7.11 KCAL/MOL
REMARK 923 INTER-LIGAND FREE ENERGY PREDICTED BY IDOCK:   -6.24 KCAL/MOL
REMARK 924 INTRA-LIGAND FREE ENERGY PREDICTED BY IDOCK:   -0.87 KCAL/MOL
REMARK 927      BINDING AFFINITY PREDICTED BY RF-SCORE:    0.00 PKD
ROOT
HETATM    1  C   UNL     1     -10.038  19.343  66.799  1.00  0.00    -0.496 C  
HETATM    2  C   UNL     1      -9.424  18.795  68.089  1.00  0.00    -0.365 C  
HETATM    3  C   UNL     1     -10.294  17.673  68.652  1.00  0.00    -0.359 C  
HETATM    4  C   UNL     1      -7.957  18.368  67.893  1.00  0.00    -0.258 C  
ENDROOT
BRANCH   4   5
HETATM    5  O   UNL     1      -7.807  17.295  66.953  1.00  0.00    -0.189 OA 
BRANCH   5   6
HETATM    6  C   UNL     1      -8.102  16.047  67.446  1.00  0.00    -0.164 A  
HETATM    7  C   UNL     1      -7.537  15.485  68.595  1.00  0.00    -0.141 A  
HETATM    8  C   UNL     1      -7.721  14.120  68.888  1.00  0.00    -0.091 A  
HETATM    9  C   UNL     1      -8.499  13.311  68.051  1.00  0.00    -0.170 A  
HETATM   10  C   UNL     1      -9.202  13.929  67.002  1.00  0.00    -0.257 A  
HETATM   11  C   UNL     1      -9.002  15.283  66.704  1.00  0.00    -0.324 A  
BRANCH   9  12
HETATM   12  C   UNL     1      -8.399  11.801  68.102  1.00  0.00    -0.156 C  
BRANCH  12  13
HETATM   13  N   UNL     1      -9.421  11.118  68.864  1.00  0.00    -0.338 N  
HETATM   14  H   UNL     1      -9.367  11.072  69.881  1.00  0.00     0.000 HD 
BRANCH  13  15
HETATM   15  C   UNL     1     -10.465  10.532  68.192  1.00  0.00    -0.186 C  
HETATM   16  O   UNL     1     -11.242  11.216  67.521  1.00  0.00    -0.280 OA 
BRANCH  15  17
HETATM   17  N   UNL     1     -10.578   9.139  68.278  1.00  0.00    -0.202 N  
BRANCH  17  18
HETATM   18  C   UNL     1     -10.573   8.437  66.963  1.00  0.00    -0.246 C  
BRANCH  18  19
HETATM   19  C   UNL     1      -9.827   7.100  66.927  1.00  0.00    -0.271 A  
HETATM   20  C   UNL     1      -8.487   4.728  67.518  1.00  0.00    -0.104 A  
HETATM   21  C   UNL     1     -10.503   5.873  66.865  1.00  0.00    -0.349 A  
HETATM   22  C   UNL     1      -9.837   4.690  67.195  1.00  0.00    -0.227 A  
HETATM   23  F   UNL     1      -7.880   3.612  67.954  1.00  0.00    -0.068 F  
HETATM   24  C   UNL     1      -7.766   5.910  67.436  1.00  0.00    -0.097 A  
HETATM   25  C   UNL     1      -8.430   7.096  67.117  1.00  0.00    -0.121 A  
ENDBRANCH  18  19
ENDBRANCH  17  18
BRANCH  17  26
HETATM   26  C   UNL     1     -10.923   8.371  69.531  1.00  0.00    -0.040 C  
HETATM   27  C   UNL     1      -9.749   7.712  70.278  1.00  0.00    -0.179 C  
HETATM   28  C   UNL     1     -11.821   9.107  70.575  1.00  0.00    -0.137 C  
HETATM   29  C   UNL     1     -10.409   7.918  73.143  1.00  0.00    -0.290 C  
HETATM   30  C   UNL     1      -9.074   8.660  71.257  1.00  0.00    -0.212 C  
HETATM   31  N   UNL     1      -9.986   9.055  72.325  1.00  0.00    -0.129 NA 
HETATM   32  C   UNL     1     -11.109   9.792  71.748  1.00  0.00     0.208 C  
ENDBRANCH  17  26
ENDBRANCH  15  17
ENDBRANCH  13  15
ENDBRANCH  12  13
ENDBRANCH   9  12
ENDBRANCH   5   6
ENDBRANCH   4   5
TORSDOF 9
ENDMDL
MODEL      292
REMARK 921   NORMALIZED FREE ENERGY PREDICTED BY IDOCK:   -3.70 KCAL/MOL
REMARK 922        TOTAL FREE ENERGY PREDICTED BY IDOCK:   -7.11 KCAL/MOL
REMARK 923 INTER-LIGAND FREE ENERGY PREDICTED BY IDOCK:   -5.93 KCAL/MOL
REMARK 924 INTRA-LIGAND FREE ENERGY PREDICTED BY IDOCK:   -1.18 KCAL/MOL
REMARK 927      BINDING AFFINITY PREDICTED BY RF-SCORE:    0.00 PKD
ROOT
HETATM    1  C   UNL     1      -5.578   2.327  63.157  1.00  0.00    -0.008 C  
HETATM    2  C   UNL     1      -6.746   2.320  64.145  1.00  0.00    -0.031 C  
HETATM    3  C   UNL     1      -6.254   1.947  65.542  1.00  0.00    -0.023 C  
HETATM    4  C   UNL     1      -7.526   3.648  64.126  1.00  0.00    -0.074 C  
ENDROOT
BRANCH   4   5
HETATM    5  O   UNL     1      -6.732   4.770  64.534  1.00  0.00    -0.042 OA 
BRANCH   5   6
HETATM    6  C   UNL     1      -7.393   5.699  65.302  1.00  0.00    -0.072 A  
HETATM    7  C   UNL     1      -8.660   5.518  65.864  1.00  0.00    -0.141 A  
HETATM    8  C   UNL     1      -9.352   6.606  66.431  1.00  0.00    -0.175 A  
HETATM    9  C   UNL     1      -8.769   7.878  66.471  1.00  0.00    -0.162 A  
HETATM   10  C   UNL     1      -7.430   8.004  66.063  1.00  0.00    -0.077 A  
HETATM   11  C   UNL     1      -6.752   6.924  65.483  1.00  0.00    -0.051 A  
BRANCH   9  12
HETATM   12  C   UNL     1      -9.606   9.120  66.698  1.00  0.00    -0.203 C  
BRANCH  12  13
HETATM   13  N   UNL     1      -8.965  10.199  67.417  1.00  0.00    -0.135 N  
HETATM   14  H   UNL     1      -8.409  10.896  66.921  1.00  0.00     0.000 HD 
BRANCH  13  15
HETATM   15  C   UNL     1      -9.120  10.268  68.779  1.00  0.00    -0.159 C  
HETATM   16  O   UNL     1      -8.137  10.230  69.524  1.00  0.00    -0.155 OA 
BRANCH  15  17
HETATM   17  N   UNL     1     -10.424  10.415  69.267  1.00  0.00    -0.220 N  
BRANCH  17  18
HETATM   18  C   UNL     1     -10.918  11.820  69.293  1.00  0.00    -0.175 C  
BRANCH  18  19
HETATM   19  C   UNL     1     -10.884  12.561  67.953  1.00  0.00    -0.251 A  
HETATM   20  C   UNL     1     -11.346  14.223  65.763  1.00  0.00    -0.326 A  
HETATM   21  C   UNL     1     -10.097  13.705  67.756  1.00  0.00    -0.242 A  
HETATM   22  C   UNL     1     -10.354  14.553  66.676  1.00  0.00    -0.274 A  
HETATM   23  F   UNL     1     -11.676  15.097  64.798  1.00  0.00    -0.373 F  
HETATM   24  C   UNL     1     -12.031  13.020  65.856  1.00  0.00    -0.491 A  
HETATM   25  C   UNL     1     -11.785  12.174  66.939  1.00  0.00    -0.374 A  
ENDBRANCH  18  19
ENDBRANCH  17  18
BRANCH  17  26
HETATM   26  C   UNL     1     -11.224   9.331  69.949  1.00  0.00    -0.126 C  
HETATM   27  C   UNL     1     -10.894   7.880  69.552  1.00  0.00    -0.141 C  
HETATM   28  C   UNL     1     -11.316   9.407  71.506  1.00  0.00    -0.464 C  
HETATM   29  C   UNL     1     -11.214   6.286  72.009  1.00  0.00    -0.281 C  
HETATM   30  C   UNL     1      -9.747   7.299  70.363  1.00  0.00    -0.172 C  
HETATM   31  N   UNL     1     -10.095   7.200  71.776  1.00  0.00    -0.184 NA 
HETATM   32  C   UNL     1     -10.334   8.541  72.306  1.00  0.00    -0.332 C  
ENDBRANCH  17  26
ENDBRANCH  15  17
ENDBRANCH  13  15
ENDBRANCH  12  13
ENDBRANCH   9  12
ENDBRANCH   5   6
ENDBRANCH   4   5
TORSDOF 9
ENDMDL
MODEL      293
REMARK 921   NORMALIZED FREE ENERGY PREDICTED BY IDOCK:   -3.66 KCAL/MOL
REMARK 922        TOTAL FREE ENERGY PREDICTED BY IDOCK:   -7.05 KCAL/MOL
REMARK 923 INTER-LIGAND FREE ENERGY PREDICTED BY IDOCK:   -5.25 KCAL/MOL
REMARK 924 INTRA-LIGAND FREE ENERGY PREDICTED BY IDOCK:   -1.80 KCAL/MOL
REMARK 927      BINDING AFFINITY PREDICTED BY RF-SCORE:    0.00 PKD
ROOT
HETATM    1  C   UNL     1     -11.866  14.095  69.011  1.00  0.00    -0.384 C  
HETATM    2  C   UNL     1     -11.348  14.910  67.825  1.00  0.00    -0.341 C  
HETATM    3  C   UNL     1     -11.117  16.360  68.241  1.00  0.00    -0.337 C  
HETATM    4  C   UNL     1     -10.101  14.269  67.186  1.00  0.00    -0.254 C  
ENDROOT
BRANCH   4   5
HETATM    5  O   UNL     1      -8.982  14.208  68.082  1.00  0.00    -0.174 OA 
BRANCH   5   6
HETATM    6  C   UNL     1      -8.240  13.054  68.004  1.00  0.00    -0.161 A  
HETATM    7  C   UNL     1      -7.300  12.772  67.008  1.00  0.00     0.087 A  
HETATM    8  C   UNL     1      -6.766  11.475  66.877  1.00  0.00    -0.139 A  
HETATM    9  C   UNL     1      -7.142  10.457  67.761  1.00  0.00    -0.084 A  
HETATM   10  C   UNL     1      -7.948  10.802  68.859  1.00  0.00    -0.143 A  
HETATM   11  C   UNL     1      -8.492  12.087  68.976  1.00  0.00     0.302 A  
BRANCH   9  12
HETATM   12  C   UNL     1      -6.911   8.999  67.425  1.00  0.00    -0.077 C  
BRANCH  12  13
HETATM   13  N   UNL     1      -7.411   8.036  68.382  1.00  0.00    -0.101 N  
HETATM   14  H   UNL     1      -6.999   7.965  69.312  1.00  0.00     0.000 HD 
BRANCH  13  15
HETATM   15  C   UNL     1      -8.451   7.219  68.013  1.00  0.00    -0.123 C  
HETATM   16  O   UNL     1      -8.801   7.143  66.833  1.00  0.00    -0.121 OA 
BRANCH  15  17
HETATM   17  N   UNL     1      -9.060   6.465  69.024  1.00  0.00    -0.131 N  
BRANCH  17  18
HETATM   18  C   UNL     1     -10.513   6.739  69.208  1.00  0.00    -0.215 C  
BRANCH  18  19
HETATM   19  C   UNL     1     -10.859   8.078  69.867  1.00  0.00    -0.217 A  
HETATM   20  C   UNL     1     -12.092  10.383  70.835  1.00  0.00    -0.374 A  
HETATM   21  C   UNL     1     -11.222   8.170  71.218  1.00  0.00    -0.297 A  
HETATM   22  C   UNL     1     -11.870   9.313  71.692  1.00  0.00    -0.453 A  
HETATM   23  F   UNL     1     -12.823  11.428  71.257  1.00  0.00    -0.446 F  
HETATM   24  C   UNL     1     -11.604  10.371  69.537  1.00  0.00    -0.288 A  
HETATM   25  C   UNL     1     -10.965   9.227  69.056  1.00  0.00    -0.060 A  
ENDBRANCH  18  19
ENDBRANCH  17  18
BRANCH  17  26
HETATM   26  C   UNL     1      -8.327   5.618  70.037  1.00  0.00    -0.121 C  
HETATM   27  C   UNL     1      -9.071   5.323  71.353  1.00  0.00    -0.167 C  
HETATM   28  C   UNL     1      -7.706   4.285  69.512  1.00  0.00    -0.054 C  
HETATM   29  C   UNL     1      -8.293   2.585  72.113  1.00  0.00    -0.058 C  
HETATM   30  C   UNL     1      -9.976   4.106  71.251  1.00  0.00    -0.146 C  
HETATM   31  N   UNL     1      -9.205   2.892  71.010  1.00  0.00    -0.117 NA 
HETATM   32  C   UNL     1      -8.524   3.004  69.722  1.00  0.00    -0.057 C  
ENDBRANCH  17  26
ENDBRANCH  15  17
ENDBRANCH  13  15
ENDBRANCH  12  13
ENDBRANCH   9  12
ENDBRANCH   5   6
ENDBRANCH   4   5
TORSDOF 9
ENDMDL
MODEL      294
REMARK 921   NORMALIZED FREE ENERGY PREDICTED BY IDOCK:   -3.64 KCAL/MOL
REMARK 922        TOTAL FREE ENERGY PREDICTED BY IDOCK:   -7.03 KCAL/MOL
REMARK 923 INTER-LIGAND FREE ENERGY PREDICTED BY IDOCK:   -5.63 KCAL/MOL
REMARK 924 INTRA-LIGAND FREE ENERGY PREDICTED BY IDOCK:   -1.39 KCAL/MOL
REMARK 927      BINDING AFFINITY PREDICTED BY RF-SCORE:    0.00 PKD
ROOT
HETATM    1  C   UNL     1      -9.937  11.320  63.027  1.00  0.00    -0.345 C  
HETATM    2  C   UNL     1     -10.594  12.475  63.785  1.00  0.00    -0.471 C  
HETATM    3  C   UNL     1     -12.083  12.543  63.456  1.00  0.00    -0.653 C  
HETATM    4  C   UNL     1     -10.324  12.398  65.300  1.00  0.00    -0.282 C  
ENDROOT
BRANCH   4   5
HETATM    5  O   UNL     1     -10.877  11.222  65.908  1.00  0.00    -0.264 OA 
BRANCH   5   6
HETATM    6  C   UNL     1      -9.952  10.297  66.327  1.00  0.00    -0.235 A  
HETATM    7  C   UNL     1     -10.039   8.919  66.105  1.00  0.00    -0.209 A  
HETATM    8  C   UNL     1      -9.172   8.032  66.772  1.00  0.00    -0.206 A  
HETATM    9  C   UNL     1      -8.190   8.516  67.643  1.00  0.00    -0.118 A  
HETATM   10  C   UNL     1      -8.002   9.906  67.719  1.00  0.00    -0.105 A  
HETATM   11  C   UNL     1      -8.877  10.786  67.068  1.00  0.00    -0.137 A  
BRANCH   9  12
HETATM   12  C   UNL     1      -7.522   7.611  68.658  1.00  0.00    -0.103 C  
BRANCH  12  13
HETATM   13  N   UNL     1      -6.623   8.251  69.592  1.00  0.00    -0.037 N  
HETATM   14  H   UNL     1      -5.661   8.463  69.326  1.00  0.00     0.000 HD 
BRANCH  13  15
HETATM   15  C   UNL     1      -7.089   8.570  70.843  1.00  0.00    -0.063 C  
HETATM   16  O   UNL     1      -7.307   9.744  71.152  1.00  0.00    -0.316 OA 
BRANCH  15  17
HETATM   17  N   UNL     1      -7.331   7.507  71.723  1.00  0.00    -0.070 N  
BRANCH  17  18
HETATM   18  C   UNL     1      -6.136   6.670  72.024  1.00  0.00    -0.038 C  
BRANCH  18  19
HETATM   19  C   UNL     1      -6.221   5.207  71.580  1.00  0.00    -0.030 A  
HETATM   20  C   UNL     1      -7.026   2.657  70.792  1.00  0.00    -0.033 A  
HETATM   21  C   UNL     1      -6.166   4.835  70.229  1.00  0.00    -0.022 A  
HETATM   22  C   UNL     1      -6.602   3.568  69.834  1.00  0.00    -0.033 A  
HETATM   23  F   UNL     1      -7.560   1.488  70.402  1.00  0.00    -0.035 F  
HETATM   24  C   UNL     1      -6.944   2.953  72.145  1.00  0.00    -0.030 A  
HETATM   25  C   UNL     1      -6.518   4.220  72.544  1.00  0.00    -0.022 A  
ENDBRANCH  18  19
ENDBRANCH  17  18
BRANCH  17  26
HETATM   26  C   UNL     1      -8.697   7.044  72.171  1.00  0.00    -0.125 C  
HETATM   27  C   UNL     1      -9.636   8.124  72.741  1.00  0.00    -0.353 C  
HETATM   28  C   UNL     1      -9.505   6.173  71.157  1.00  0.00    -0.182 C  
HETATM   29  C   UNL     1     -12.346   7.368  71.866  1.00  0.00    -0.310 C  
HETATM   30  C   UNL     1     -10.427   8.840  71.659  1.00  0.00    -0.317 C  
HETATM   31  N   UNL     1     -11.331   7.924  70.971  1.00  0.00    -0.271 NA 
HETATM   32  C   UNL     1     -10.545   6.896  70.291  1.00  0.00    -0.218 C  
ENDBRANCH  17  26
ENDBRANCH  15  17
ENDBRANCH  13  15
ENDBRANCH  12  13
ENDBRANCH   9  12
ENDBRANCH   5   6
ENDBRANCH   4   5
TORSDOF 9
ENDMDL
MODEL      295
REMARK 921   NORMALIZED FREE ENERGY PREDICTED BY IDOCK:   -3.56 KCAL/MOL
REMARK 922        TOTAL FREE ENERGY PREDICTED BY IDOCK:   -6.90 KCAL/MOL
REMARK 923 INTER-LIGAND FREE ENERGY PREDICTED BY IDOCK:   -5.59 KCAL/MOL
REMARK 924 INTRA-LIGAND FREE ENERGY PREDICTED BY IDOCK:   -1.31 KCAL/MOL
REMARK 927      BINDING AFFINITY PREDICTED BY RF-SCORE:    0.00 PKD
ROOT
HETATM    1  C   UNL     1      -9.450  17.082  68.112  1.00  0.00    -0.262 C  
HETATM    2  C   UNL     1      -8.139  16.408  67.700  1.00  0.00    -0.170 C  
HETATM    3  C   UNL     1      -7.110  16.528  68.822  1.00  0.00    -0.189 C  
HETATM    4  C   UNL     1      -8.357  14.952  67.247  1.00  0.00    -0.210 C  
ENDROOT
BRANCH   4   5
HETATM    5  O   UNL     1      -8.868  14.111  68.291  1.00  0.00    -0.175 OA 
BRANCH   5   6
HETATM    6  C   UNL     1      -8.723  12.762  68.071  1.00  0.00    -0.194 A  
HETATM    7  C   UNL     1      -9.536  11.768  68.624  1.00  0.00    -0.107 A  
HETATM    8  C   UNL     1      -9.168  10.412  68.533  1.00  0.00    -0.145 A  
HETATM    9  C   UNL     1      -8.000  10.034  67.860  1.00  0.00    -0.105 A  
HETATM   10  C   UNL     1      -7.291  11.026  67.161  1.00  0.00    -0.116 A  
HETATM   11  C   UNL     1      -7.650  12.376  67.269  1.00  0.00    -0.141 A  
BRANCH   9  12
HETATM   12  C   UNL     1      -7.373   8.672  68.075  1.00  0.00    -0.092 C  
BRANCH  12  13
HETATM   13  N   UNL     1      -8.075   7.548  67.497  1.00  0.00    -0.112 N  
HETATM   14  H   UNL     1      -8.768   7.690  66.761  1.00  0.00     0.000 HD 
BRANCH  13  15
HETATM   15  C   UNL     1      -7.792   6.286  67.958  1.00  0.00    -0.104 C  
HETATM   16  O   UNL     1      -6.625   5.897  68.044  1.00  0.00    -0.048 OA 
BRANCH  15  17
HETATM   17  N   UNL     1      -8.877   5.491  68.349  1.00  0.00    -0.108 N  
BRANCH  17  18
HETATM   18  C   UNL     1      -9.079   5.406  69.824  1.00  0.00    -0.128 C  
BRANCH  18  19
HETATM   19  C   UNL     1     -10.225   6.251  70.387  1.00  0.00    -0.248 A  
HETATM   20  C   UNL     1     -11.865   7.947  71.872  1.00  0.00    -0.301 A  
HETATM   21  C   UNL     1     -10.469   7.561  69.948  1.00  0.00    -0.232 A  
HETATM   22  C   UNL     1     -11.263   8.418  70.713  1.00  0.00    -0.290 A  
HETATM   23  F   UNL     1     -12.525   8.803  72.670  1.00  0.00    -0.445 F  
HETATM   24  C   UNL     1     -11.760   6.614  72.241  1.00  0.00    -0.305 A  
HETATM   25  C   UNL     1     -10.959   5.756  71.485  1.00  0.00    -0.304 A  
ENDBRANCH  18  19
ENDBRANCH  17  18
BRANCH  17  26
HETATM   26  C   UNL     1      -9.662   4.580  67.436  1.00  0.00    -0.178 C  
HETATM   27  C   UNL     1     -10.031   5.147  66.053  1.00  0.00    -0.187 C  
HETATM   28  C   UNL     1      -9.102   3.135  67.244  1.00  0.00    -0.201 C  
HETATM   29  C   UNL     1      -9.882   2.868  64.191  1.00  0.00    -0.148 C  
HETATM   30  C   UNL     1      -8.931   4.940  65.024  1.00  0.00    -0.147 C  
HETATM   31  N   UNL     1      -8.707   3.521  64.768  1.00  0.00    -0.108 NA 
HETATM   32  C   UNL     1      -8.244   2.880  65.997  1.00  0.00    -0.089 C  
ENDBRANCH  17  26
ENDBRANCH  15  17
ENDBRANCH  13  15
ENDBRANCH  12  13
ENDBRANCH   9  12
ENDBRANCH   5   6
ENDBRANCH   4   5
TORSDOF 9
ENDMDL
MODEL      296
REMARK 921   NORMALIZED FREE ENERGY PREDICTED BY IDOCK:   -3.54 KCAL/MOL
REMARK 922        TOTAL FREE ENERGY PREDICTED BY IDOCK:   -6.87 KCAL/MOL
REMARK 923 INTER-LIGAND FREE ENERGY PREDICTED BY IDOCK:   -5.85 KCAL/MOL
REMARK 924 INTRA-LIGAND FREE ENERGY PREDICTED BY IDOCK:   -1.02 KCAL/MOL
REMARK 927      BINDING AFFINITY PREDICTED BY RF-SCORE:    0.00 PKD
ROOT
HETATM    1  C   UNL     1      -9.585  17.733  66.651  1.00  0.00    -0.311 C  
HETATM    2  C   UNL     1     -10.685  16.705  66.384  1.00  0.00    -0.123 C  
HETATM    3  C   UNL     1     -11.004  16.648  64.892  1.00  0.00    -0.162 C  
HETATM    4  C   UNL     1     -10.338  15.323  66.970  1.00  0.00    -0.277 C  
ENDROOT
BRANCH   4   5
HETATM    5  O   UNL     1      -9.168  14.742  66.378  1.00  0.00    -0.277 OA 
BRANCH   5   6
HETATM    6  C   UNL     1      -8.436  13.933  67.214  1.00  0.00    -0.200 A  
HETATM    7  C   UNL     1      -7.081  14.104  67.511  1.00  0.00    -0.184 A  
HETATM    8  C   UNL     1      -6.364  13.096  68.185  1.00  0.00    -0.106 A  
HETATM    9  C   UNL     1      -7.005  11.922  68.597  1.00  0.00    -0.095 A  
HETATM   10  C   UNL     1      -8.400  11.844  68.449  1.00  0.00    -0.157 A  
HETATM   11  C   UNL     1      -9.106  12.840  67.762  1.00  0.00    -0.197 A  
BRANCH   9  12
HETATM   12  C   UNL     1      -6.216  10.679  68.955  1.00  0.00    -0.044 C  
BRANCH  12  13
HETATM   13  N   UNL     1      -6.773   9.419  68.514  1.00  0.00    -0.057 N  
HETATM   14  H   UNL     1      -7.333   8.849  69.147  1.00  0.00     0.000 HD 
BRANCH  13  15
HETATM   15  C   UNL     1      -6.534   9.006  67.227  1.00  0.00    -0.061 C  
HETATM   16  O   UNL     1      -5.693   9.580  66.530  1.00  0.00    -0.052 OA 
BRANCH  15  17
HETATM   17  N   UNL     1      -7.256   7.898  66.768  1.00  0.00    -0.086 N  
BRANCH  17  18
HETATM   18  C   UNL     1      -7.413   7.834  65.287  1.00  0.00    -0.082 C  
BRANCH  18  19
HETATM   19  C   UNL     1      -8.418   8.819  64.683  1.00  0.00    -0.169 A  
HETATM   20  C   UNL     1      -9.772  11.053  63.708  1.00  0.00    -0.309 A  
HETATM   21  C   UNL     1      -8.491   9.054  63.302  1.00  0.00    -0.180 A  
HETATM   22  C   UNL     1      -9.141  10.192  62.820  1.00  0.00    -0.299 A  
HETATM   23  F   UNL     1     -10.288  12.208  63.257  1.00  0.00    -0.402 F  
HETATM   24  C   UNL     1      -9.841  10.757  65.062  1.00  0.00    -0.346 A  
HETATM   25  C   UNL     1      -9.184   9.626  65.550  1.00  0.00    -0.291 A  
ENDBRANCH  18  19
ENDBRANCH  17  18
BRANCH  17  26
HETATM   26  C   UNL     1      -8.041   6.949  67.642  1.00  0.00    -0.113 C  
HETATM   27  C   UNL     1      -8.716   7.559  68.884  1.00  0.00    -0.132 C  
HETATM   28  C   UNL     1      -9.075   6.029  66.920  1.00  0.00    -0.126 C  
HETATM   29  C   UNL     1     -11.256   6.101  69.209  1.00  0.00    -0.367 C  
HETATM   30  C   UNL     1     -10.089   8.134  68.579  1.00  0.00    -0.200 C  
HETATM   31  N   UNL     1     -11.018   7.091  68.157  1.00  0.00    -0.142 NA 
HETATM   32  C   UNL     1     -10.537   6.495  66.912  1.00  0.00    -0.305 C  
ENDBRANCH  17  26
ENDBRANCH  15  17
ENDBRANCH  13  15
ENDBRANCH  12  13
ENDBRANCH   9  12
ENDBRANCH   5   6
ENDBRANCH   4   5
TORSDOF 9
ENDMDL
MODEL      297
REMARK 921   NORMALIZED FREE ENERGY PREDICTED BY IDOCK:   -3.50 KCAL/MOL
REMARK 922        TOTAL FREE ENERGY PREDICTED BY IDOCK:   -6.81 KCAL/MOL
REMARK 923 INTER-LIGAND FREE ENERGY PREDICTED BY IDOCK:   -5.58 KCAL/MOL
REMARK 924 INTRA-LIGAND FREE ENERGY PREDICTED BY IDOCK:   -1.24 KCAL/MOL
REMARK 927      BINDING AFFINITY PREDICTED BY RF-SCORE:    0.00 PKD
ROOT
HETATM    1  C   UNL     1     -11.252  10.681  68.381  1.00  0.00    -0.347 C  
HETATM    2  C   UNL     1     -12.098  11.956  68.389  1.00  0.00    -0.086 C  
HETATM    3  C   UNL     1     -11.709  12.840  69.571  1.00  0.00    -0.383 C  
HETATM    4  C   UNL     1     -12.031  12.701  67.042  1.00  0.00    -0.260 C  
ENDROOT
BRANCH   4   5
HETATM    5  O   UNL     1     -10.710  13.162  66.723  1.00  0.00    -0.265 OA 
BRANCH   5   6
HETATM    6  C   UNL     1      -9.929  12.257  66.045  1.00  0.00    -0.252 A  
HETATM    7  C   UNL     1     -10.358  11.478  64.966  1.00  0.00    -0.333 A  
HETATM    8  C   UNL     1      -9.565  10.416  64.492  1.00  0.00    -0.369 A  
HETATM    9  C   UNL     1      -8.320  10.143  65.070  1.00  0.00    -0.158 A  
HETATM   10  C   UNL     1      -7.828  11.042  66.032  1.00  0.00    -0.077 A  
HETATM   11  C   UNL     1      -8.627  12.087  66.514  1.00  0.00    -0.100 A  
BRANCH   9  12
HETATM   12  C   UNL     1      -7.634   8.808  64.868  1.00  0.00    -0.099 C  
BRANCH  12  13
HETATM   13  N   UNL     1      -8.359   7.642  65.322  1.00  0.00    -0.207 N  
HETATM   14  H   UNL     1      -9.228   7.361  64.866  1.00  0.00     0.000 HD 
BRANCH  13  15
HETATM   15  C   UNL     1      -7.857   6.921  66.377  1.00  0.00    -0.103 C  
HETATM   16  O   UNL     1      -6.640   6.847  66.563  1.00  0.00    -0.048 OA 
BRANCH  15  17
HETATM   17  N   UNL     1      -8.784   6.314  67.233  1.00  0.00    -0.106 N  
BRANCH  17  18
HETATM   18  C   UNL     1     -10.052   5.895  66.573  1.00  0.00    -0.156 C  
BRANCH  18  19
HETATM   19  C   UNL     1      -9.979   4.602  65.755  1.00  0.00    -0.246 A  
HETATM   20  C   UNL     1      -9.594   2.648  63.804  1.00  0.00    -0.117 A  
HETATM   21  C   UNL     1      -8.879   3.735  65.831  1.00  0.00    -0.122 A  
HETATM   22  C   UNL     1      -8.672   2.780  64.833  1.00  0.00    -0.113 A  
HETATM   23  F   UNL     1      -9.331   1.817  62.782  1.00  0.00    -0.087 F  
HETATM   24  C   UNL     1     -10.765   3.392  63.795  1.00  0.00    -0.247 A  
HETATM   25  C   UNL     1     -10.972   4.354  64.784  1.00  0.00    -0.019 A  
ENDBRANCH  18  19
ENDBRANCH  17  18
BRANCH  17  26
HETATM   26  C   UNL     1      -8.680   6.276  68.739  1.00  0.00    -0.121 C  
HETATM   27  C   UNL     1      -9.740   7.074  69.521  1.00  0.00    -0.160 C  
HETATM   28  C   UNL     1      -8.542   4.865  69.394  1.00  0.00    -0.100 C  
HETATM   29  C   UNL     1     -10.292   5.500  71.950  1.00  0.00    -0.216 C  
HETATM   30  C   UNL     1     -11.009   6.275  69.765  1.00  0.00    -0.378 C  
HETATM   31  N   UNL     1     -10.751   5.117  70.615  1.00  0.00    -0.141 NA 
HETATM   32  C   UNL     1      -9.825   4.217  69.930  1.00  0.00    -0.162 C  
ENDBRANCH  17  26
ENDBRANCH  15  17
ENDBRANCH  13  15
ENDBRANCH  12  13
ENDBRANCH   9  12
ENDBRANCH   5   6
ENDBRANCH   4   5
TORSDOF 9
ENDMDL
MODEL      298
REMARK 921   NORMALIZED FREE ENERGY PREDICTED BY IDOCK:   -3.50 KCAL/MOL
REMARK 922        TOTAL FREE ENERGY PREDICTED BY IDOCK:   -6.81 KCAL/MOL
REMARK 923 INTER-LIGAND FREE ENERGY PREDICTED BY IDOCK:   -5.22 KCAL/MOL
REMARK 924 INTRA-LIGAND FREE ENERGY PREDICTED BY IDOCK:   -1.59 KCAL/MOL
REMARK 927      BINDING AFFINITY PREDICTED BY RF-SCORE:    0.00 PKD
ROOT
HETATM    1  C   UNL     1      -9.248  14.484  67.056  1.00  0.00    -0.253 C  
HETATM    2  C   UNL     1      -9.207  13.188  67.868  1.00  0.00    -0.207 C  
HETATM    3  C   UNL     1      -9.883  12.059  67.093  1.00  0.00    -0.205 C  
HETATM    4  C   UNL     1      -7.776  12.830  68.312  1.00  0.00    -0.136 C  
ENDROOT
BRANCH   4   5
HETATM    5  O   UNL     1      -6.894  12.578  67.209  1.00  0.00    -0.151 OA 
BRANCH   5   6
HETATM    6  C   UNL     1      -6.565  11.257  67.022  1.00  0.00    -0.116 A  
HETATM    7  C   UNL     1      -6.542  10.604  65.786  1.00  0.00    -0.105 A  
HETATM    8  C   UNL     1      -6.424   9.202  65.720  1.00  0.00    -0.064 A  
HETATM    9  C   UNL     1      -6.296   8.443  66.889  1.00  0.00    -0.056 A  
HETATM   10  C   UNL     1      -6.144   9.127  68.107  1.00  0.00    -0.050 A  
HETATM   11  C   UNL     1      -6.279  10.520  68.171  1.00  0.00    -0.050 A  
BRANCH   9  12
HETATM   12  C   UNL     1      -6.563   6.952  66.892  1.00  0.00    -0.047 C  
BRANCH  12  13
HETATM   13  N   UNL     1      -7.327   6.442  68.010  1.00  0.00    -0.087 N  
HETATM   14  H   UNL     1      -6.857   6.081  68.840  1.00  0.00     0.000 HD 
BRANCH  13  15
HETATM   15  C   UNL     1      -8.698   6.452  67.931  1.00  0.00    -0.115 C  
HETATM   16  O   UNL     1      -9.294   7.438  67.491  1.00  0.00    -0.129 OA 
BRANCH  15  17
HETATM   17  N   UNL     1      -9.369   5.291  68.338  1.00  0.00    -0.114 N  
BRANCH  17  18
HETATM   18  C   UNL     1      -9.356   5.055  69.809  1.00  0.00    -0.134 C  
BRANCH  18  19
HETATM   19  C   UNL     1     -10.033   6.132  70.661  1.00  0.00    -0.229 A  
HETATM   20  C   UNL     1     -11.092   8.488  71.712  1.00  0.00    -0.307 A  
HETATM   21  C   UNL     1     -11.411   6.383  70.585  1.00  0.00    -0.426 A  
HETATM   22  C   UNL     1     -11.932   7.580  71.082  1.00  0.00    -0.334 A  
HETATM   23  F   UNL     1     -11.570   9.688  72.077  1.00  0.00    -0.443 F  
HETATM   24  C   UNL     1      -9.755   8.189  71.932  1.00  0.00    -0.268 A  
HETATM   25  C   UNL     1      -9.227   6.999  71.428  1.00  0.00    -0.151 A  
ENDBRANCH  18  19
ENDBRANCH  17  18
BRANCH  17  26
HETATM   26  C   UNL     1      -9.868   4.207  67.413  1.00  0.00    -0.101 C  
HETATM   27  C   UNL     1     -10.406   4.666  66.044  1.00  0.00    -0.318 C  
HETATM   28  C   UNL     1      -8.917   2.990  67.187  1.00  0.00    -0.180 C  
HETATM   29  C   UNL     1      -9.629   2.560  64.135  1.00  0.00    -0.141 C  
HETATM   30  C   UNL     1      -9.308   4.804  65.003  1.00  0.00    -0.107 C  
HETATM   31  N   UNL     1      -8.685   3.516  64.716  1.00  0.00    -0.108 NA 
HETATM   32  C   UNL     1      -8.039   3.016  65.928  1.00  0.00    -0.086 C  
ENDBRANCH  17  26
ENDBRANCH  15  17
ENDBRANCH  13  15
ENDBRANCH  12  13
ENDBRANCH   9  12
ENDBRANCH   5   6
ENDBRANCH   4   5
TORSDOF 9
ENDMDL
MODEL      299
REMARK 921   NORMALIZED FREE ENERGY PREDICTED BY IDOCK:   -3.49 KCAL/MOL
REMARK 922        TOTAL FREE ENERGY PREDICTED BY IDOCK:   -6.80 KCAL/MOL
REMARK 923 INTER-LIGAND FREE ENERGY PREDICTED BY IDOCK:   -5.42 KCAL/MOL
REMARK 924 INTRA-LIGAND FREE ENERGY PREDICTED BY IDOCK:   -1.38 KCAL/MOL
REMARK 927      BINDING AFFINITY PREDICTED BY RF-SCORE:    0.00 PKD
ROOT
HETATM    1  C   UNL     1      -8.225   7.831  74.542  1.00  0.00    -0.259 C  
HETATM    2  C   UNL     1      -7.831   7.970  73.071  1.00  0.00    -0.199 C  
HETATM    3  C   UNL     1      -6.915   6.820  72.659  1.00  0.00    -0.071 C  
HETATM    4  C   UNL     1      -9.061   8.107  72.154  1.00  0.00    -0.186 C  
ENDROOT
BRANCH   4   5
HETATM    5  O   UNL     1      -9.909   6.951  72.179  1.00  0.00    -0.151 OA 
BRANCH   5   6
HETATM    6  C   UNL     1     -10.125   6.364  70.955  1.00  0.00    -0.187 A  
HETATM    7  C   UNL     1      -9.387   5.296  70.437  1.00  0.00    -0.208 A  
HETATM    8  C   UNL     1      -9.525   4.921  69.086  1.00  0.00    -0.205 A  
HETATM    9  C   UNL     1     -10.426   5.589  68.250  1.00  0.00    -0.225 A  
HETATM   10  C   UNL     1     -11.284   6.539  68.829  1.00  0.00    -0.319 A  
HETATM   11  C   UNL     1     -11.132   6.923  70.168  1.00  0.00    -0.344 A  
BRANCH   9  12
HETATM   12  C   UNL     1     -10.322   5.491  66.742  1.00  0.00    -0.269 C  
BRANCH  12  13
HETATM   13  N   UNL     1      -9.980   6.711  66.044  1.00  0.00    -0.372 N  
HETATM   14  H   UNL     1     -10.702   7.268  65.587  1.00  0.00     0.000 HD 
BRANCH  13  15
HETATM   15  C   UNL     1      -8.665   7.104  66.009  1.00  0.00    -0.147 C  
HETATM   16  O   UNL     1      -8.041   7.302  67.054  1.00  0.00    -0.113 OA 
BRANCH  15  17
HETATM   17  N   UNL     1      -8.072   7.233  64.747  1.00  0.00    -0.122 N  
BRANCH  17  18
HETATM   18  C   UNL     1      -8.403   8.500  64.035  1.00  0.00    -0.093 C  
BRANCH  18  19
HETATM   19  C   UNL     1      -8.559   9.738  64.923  1.00  0.00    -0.183 A  
HETATM   20  C   UNL     1      -8.945  11.544  67.012  1.00  0.00    -0.174 A  
HETATM   21  C   UNL     1      -7.459  10.362  65.530  1.00  0.00    -0.142 A  
HETATM   22  C   UNL     1      -7.655  11.239  66.598  1.00  0.00    -0.140 A  
HETATM   23  F   UNL     1      -9.128  12.288  68.114  1.00  0.00    -0.171 F  
HETATM   24  C   UNL     1     -10.048  11.057  66.326  1.00  0.00    -0.282 A  
HETATM   25  C   UNL     1      -9.857  10.171  65.264  1.00  0.00    -0.388 A  
ENDBRANCH  18  19
ENDBRANCH  17  18
BRANCH  17  26
HETATM   26  C   UNL     1      -7.354   6.129  64.008  1.00  0.00    -0.070 C  
HETATM   27  C   UNL     1      -6.302   5.338  64.808  1.00  0.00    -0.034 C  
HETATM   28  C   UNL     1      -8.248   5.113  63.230  1.00  0.00    -0.113 C  
HETATM   29  C   UNL     1      -6.476   2.564  63.829  1.00  0.00    -0.029 C  
HETATM   30  C   UNL     1      -6.909   4.182  65.586  1.00  0.00    -0.057 C  
HETATM   31  N   UNL     1      -7.484   3.185  64.689  1.00  0.00    -0.074 NA 
HETATM   32  C   UNL     1      -8.580   3.792  63.936  1.00  0.00    -0.093 C  
ENDBRANCH  17  26
ENDBRANCH  15  17
ENDBRANCH  13  15
ENDBRANCH  12  13
ENDBRANCH   9  12
ENDBRANCH   5   6
ENDBRANCH   4   5
TORSDOF 9
ENDMDL
MODEL      300
REMARK 921   NORMALIZED FREE ENERGY PREDICTED BY IDOCK:   -3.48 KCAL/MOL
REMARK 922        TOTAL FREE ENERGY PREDICTED BY IDOCK:   -6.77 KCAL/MOL
REMARK 923 INTER-LIGAND FREE ENERGY PREDICTED BY IDOCK:   -5.90 KCAL/MOL
REMARK 924 INTRA-LIGAND FREE ENERGY PREDICTED BY IDOCK:   -0.87 KCAL/MOL
REMARK 927      BINDING AFFINITY PREDICTED BY RF-SCORE:    0.00 PKD
ROOT
HETATM    1  C   UNL     1      -7.821   2.481  71.550  1.00  0.00    -0.044 C  
HETATM    2  C   UNL     1      -7.705   1.876  72.950  1.00  0.00    -0.044 C  
HETATM    3  C   UNL     1      -6.242   1.820  73.381  1.00  0.00    -0.012 C  
HETATM    4  C   UNL     1      -8.597   2.607  73.971  1.00  0.00    -0.072 C  
ENDROOT
BRANCH   4   5
HETATM    5  O   UNL     1      -8.227   3.981  74.154  1.00  0.00    -0.089 OA 
BRANCH   5   6
HETATM    6  C   UNL     1      -9.105   4.894  73.619  1.00  0.00    -0.119 A  
HETATM    7  C   UNL     1     -10.488   4.888  73.821  1.00  0.00    -0.303 A  
HETATM    8  C   UNL     1     -11.326   5.714  73.046  1.00  0.00    -0.288 A  
HETATM    9  C   UNL     1     -10.786   6.577  72.086  1.00  0.00    -0.249 A  
HETATM   10  C   UNL     1      -9.387   6.698  72.020  1.00  0.00    -0.142 A  
HETATM   11  C   UNL     1      -8.557   5.862  72.779  1.00  0.00    -0.122 A  
BRANCH   9  12
HETATM   12  C   UNL     1     -11.644   7.168  70.988  1.00  0.00    -0.309 C  
BRANCH  12  13
HETATM   13  N   UNL     1     -10.941   7.671  69.828  1.00  0.00    -0.379 N  
HETATM   14  H   UNL     1     -10.605   7.033  69.107  1.00  0.00     0.000 HD 
BRANCH  13  15
HETATM   15  C   UNL     1     -10.735   9.024  69.717  1.00  0.00    -0.225 C  
HETATM   16  O   UNL     1     -10.802   9.753  70.710  1.00  0.00    -0.297 OA 
BRANCH  15  17
HETATM   17  N   UNL     1     -10.416   9.519  68.446  1.00  0.00    -0.217 N  
BRANCH  17  18
HETATM   18  C   UNL     1     -11.358  10.553  67.932  1.00  0.00    -0.222 C  
BRANCH  18  19
HETATM   19  C   UNL     1     -10.803  11.979  67.858  1.00  0.00    -0.254 A  
HETATM   20  C   UNL     1      -9.585  14.378  67.127  1.00  0.00    -0.250 A  
HETATM   21  C   UNL     1     -11.580  13.057  67.409  1.00  0.00    -0.407 A  
HETATM   22  C   UNL     1     -10.963  14.245  67.012  1.00  0.00    -0.305 A  
HETATM   23  F   UNL     1      -8.982  15.470  66.630  1.00  0.00    -0.222 F  
HETATM   24  C   UNL     1      -8.819  13.380  67.710  1.00  0.00    -0.199 A  
HETATM   25  C   UNL     1      -9.429  12.186  68.099  1.00  0.00    -0.205 A  
ENDBRANCH  18  19
ENDBRANCH  17  18
BRANCH  17  26
HETATM   26  C   UNL     1      -9.377   8.932  67.521  1.00  0.00    -0.136 C  
HETATM   27  C   UNL     1      -7.952   8.795  68.088  1.00  0.00    -0.106 C  
HETATM   28  C   UNL     1      -9.754   7.597  66.805  1.00  0.00    -0.290 C  
HETATM   29  C   UNL     1      -6.866   6.315  66.924  1.00  0.00    -0.062 C  
HETATM   30  C   UNL     1      -7.751   7.496  68.851  1.00  0.00    -0.115 C  
HETATM   31  N   UNL     1      -7.887   6.339  67.972  1.00  0.00    -0.103 NA 
HETATM   32  C   UNL     1      -9.248   6.296  67.443  1.00  0.00    -0.116 C  
ENDBRANCH  17  26
ENDBRANCH  15  17
ENDBRANCH  13  15
ENDBRANCH  12  13
ENDBRANCH   9  12
ENDBRANCH   5   6
ENDBRANCH   4   5
TORSDOF 9
ENDMDL
MODEL      301
REMARK 921   NORMALIZED FREE ENERGY PREDICTED BY IDOCK:   -3.45 KCAL/MOL
REMARK 922        TOTAL FREE ENERGY PREDICTED BY IDOCK:   -6.73 KCAL/MOL
REMARK 923 INTER-LIGAND FREE ENERGY PREDICTED BY IDOCK:   -5.05 KCAL/MOL
REMARK 924 INTRA-LIGAND FREE ENERGY PREDICTED BY IDOCK:   -1.69 KCAL/MOL
REMARK 927      BINDING AFFINITY PREDICTED BY RF-SCORE:    0.00 PKD
ROOT
HETATM    1  C   UNL     1     -11.168  13.992  67.953  1.00  0.00    -0.295 C  
HETATM    2  C   UNL     1     -10.084  13.791  66.893  1.00  0.00    -0.260 C  
HETATM    3  C   UNL     1      -9.142  14.993  66.867  1.00  0.00    -0.269 C  
HETATM    4  C   UNL     1      -9.338  12.456  67.077  1.00  0.00    -0.204 C  
ENDROOT
BRANCH   4   5
HETATM    5  O   UNL     1      -8.627  12.378  68.320  1.00  0.00    -0.177 OA 
BRANCH   5   6
HETATM    6  C   UNL     1      -7.855  11.252  68.477  1.00  0.00    -0.138 A  
HETATM    7  C   UNL     1      -7.174  10.598  67.446  1.00  0.00    -0.092 A  
HETATM    8  C   UNL     1      -6.607   9.326  67.658  1.00  0.00    -0.064 A  
HETATM    9  C   UNL     1      -6.688   8.711  68.912  1.00  0.00    -0.053 A  
HETATM   10  C   UNL     1      -7.220   9.455  69.980  1.00  0.00    -0.092 A  
HETATM   11  C   UNL     1      -7.798  10.712  69.761  1.00  0.00     0.029 A  
BRANCH   9  12
HETATM   12  C   UNL     1      -6.455   7.223  69.076  1.00  0.00    -0.036 C  
BRANCH  12  13
HETATM   13  N   UNL     1      -7.194   6.573  70.136  1.00  0.00    -0.078 N  
HETATM   14  H   UNL     1      -7.413   7.072  70.998  1.00  0.00     0.000 HD 
BRANCH  13  15
HETATM   15  C   UNL     1      -7.593   5.272  69.960  1.00  0.00    -0.068 C  
HETATM   16  O   UNL     1      -6.783   4.408  69.617  1.00  0.00    -0.035 OA 
BRANCH  15  17
HETATM   17  N   UNL     1      -8.938   4.976  70.219  1.00  0.00    -0.113 N  
BRANCH  17  18
HETATM   18  C   UNL     1      -9.901   5.606  69.272  1.00  0.00    -0.174 C  
BRANCH  18  19
HETATM   19  C   UNL     1     -10.758   6.737  69.850  1.00  0.00    -0.290 A  
HETATM   20  C   UNL     1     -11.838   8.819  71.356  1.00  0.00    -0.308 A  
HETATM   21  C   UNL     1     -10.629   8.064  69.415  1.00  0.00    -0.210 A  
HETATM   22  C   UNL     1     -11.143   9.106  70.189  1.00  0.00    -0.248 A  
HETATM   23  F   UNL     1     -12.222   9.822  72.162  1.00  0.00    -0.424 F  
HETATM   24  C   UNL     1     -12.106   7.508  71.723  1.00  0.00    -0.340 A  
HETATM   25  C   UNL     1     -11.587   6.463  70.958  1.00  0.00    -0.386 A  
ENDBRANCH  18  19
ENDBRANCH  17  18
BRANCH  17  26
HETATM   26  C   UNL     1      -9.453   4.295  71.464  1.00  0.00    -0.155 C  
HETATM   27  C   UNL     1      -9.274   2.768  71.535  1.00  0.00    -0.185 C  
HETATM   28  C   UNL     1      -9.009   4.909  72.829  1.00  0.00    -0.129 C  
HETATM   29  C   UNL     1      -8.731   2.160  74.367  1.00  0.00    -0.062 C  
HETATM   30  C   UNL     1      -7.917   2.365  72.090  1.00  0.00    -0.053 C  
HETATM   31  N   UNL     1      -7.762   2.797  73.475  1.00  0.00    -0.051 NA 
HETATM   32  C   UNL     1      -7.810   4.256  73.530  1.00  0.00    -0.086 C  
ENDBRANCH  17  26
ENDBRANCH  15  17
ENDBRANCH  13  15
ENDBRANCH  12  13
ENDBRANCH   9  12
ENDBRANCH   5   6
ENDBRANCH   4   5
TORSDOF 9
ENDMDL
MODEL      302
REMARK 921   NORMALIZED FREE ENERGY PREDICTED BY IDOCK:   -3.43 KCAL/MOL
REMARK 922        TOTAL FREE ENERGY PREDICTED BY IDOCK:   -6.71 KCAL/MOL
REMARK 923 INTER-LIGAND FREE ENERGY PREDICTED BY IDOCK:   -4.63 KCAL/MOL
REMARK 924 INTRA-LIGAND FREE ENERGY PREDICTED BY IDOCK:   -2.08 KCAL/MOL
REMARK 927      BINDING AFFINITY PREDICTED BY RF-SCORE:    0.00 PKD
ROOT
HETATM    1  C   UNL     1      -7.180   6.851  65.479  1.00  0.00    -0.077 C  
HETATM    2  C   UNL     1      -6.753   5.865  64.390  1.00  0.00    -0.045 C  
HETATM    3  C   UNL     1      -5.462   6.338  63.727  1.00  0.00    -0.018 C  
HETATM    4  C   UNL     1      -6.654   4.424  64.924  1.00  0.00    -0.044 C  
ENDROOT
BRANCH   4   5
HETATM    5  O   UNL     1      -5.655   4.272  65.942  1.00  0.00    -0.016 OA 
BRANCH   5   6
HETATM    6  C   UNL     1      -6.138   4.248  67.228  1.00  0.00    -0.028 A  
HETATM    7  C   UNL     1      -5.496   4.811  68.336  1.00  0.00    -0.015 A  
HETATM    8  C   UNL     1      -5.947   4.533  69.641  1.00  0.00    -0.018 A  
HETATM    9  C   UNL     1      -7.064   3.715  69.849  1.00  0.00    -0.042 A  
HETATM   10  C   UNL     1      -7.799   3.303  68.725  1.00  0.00    -0.056 A  
HETATM   11  C   UNL     1      -7.338   3.567  67.428  1.00  0.00    -0.063 A  
BRANCH   9  12
HETATM   12  C   UNL     1      -7.335   3.082  71.198  1.00  0.00    -0.033 C  
BRANCH  12  13
HETATM   13  N   UNL     1      -8.461   3.608  71.936  1.00  0.00    -0.084 N  
HETATM   14  H   UNL     1      -9.090   2.983  72.441  1.00  0.00     0.000 HD 
BRANCH  13  15
HETATM   15  C   UNL     1      -8.669   4.965  71.944  1.00  0.00    -0.128 C  
HETATM   16  O   UNL     1      -7.758   5.737  72.253  1.00  0.00    -0.099 OA 
BRANCH  15  17
HETATM   17  N   UNL     1      -9.936   5.419  71.557  1.00  0.00    -0.175 N  
BRANCH  17  18
HETATM   18  C   UNL     1     -10.299   5.106  70.146  1.00  0.00    -0.270 C  
BRANCH  18  19
HETATM   19  C   UNL     1      -9.908   6.164  69.110  1.00  0.00    -0.176 A  
HETATM   20  C   UNL     1      -9.607   8.471  67.573  1.00  0.00    -0.154 A  
HETATM   21  C   UNL     1      -8.772   6.972  69.263  1.00  0.00    -0.136 A  
HETATM   22  C   UNL     1      -8.641   8.144  68.516  1.00  0.00    -0.130 A  
HETATM   23  F   UNL     1      -9.544   9.657  66.946  1.00  0.00    -0.169 F  
HETATM   24  C   UNL     1     -10.658   7.608  67.300  1.00  0.00    -0.388 A  
HETATM   25  C   UNL     1     -10.799   6.441  68.051  1.00  0.00    -0.396 A  
ENDBRANCH  18  19
ENDBRANCH  17  18
BRANCH  17  26
HETATM   26  C   UNL     1     -10.806   6.357  72.360  1.00  0.00    -0.236 C  
HETATM   27  C   UNL     1     -10.491   7.859  72.238  1.00  0.00    -0.322 C  
HETATM   28  C   UNL     1     -12.349   6.163  72.226  1.00  0.00    -0.106 C  
HETATM   29  C   UNL     1     -13.095   9.233  72.373  1.00  0.00    -0.406 C  
HETATM   30  C   UNL     1     -11.191   8.508  71.054  1.00  0.00    -0.268 C  
HETATM   31  N   UNL     1     -12.641   8.469  71.210  1.00  0.00    -0.270 NA 
HETATM   32  C   UNL     1     -13.083   7.076  71.235  1.00  0.00    -0.262 C  
ENDBRANCH  17  26
ENDBRANCH  15  17
ENDBRANCH  13  15
ENDBRANCH  12  13
ENDBRANCH   9  12
ENDBRANCH   5   6
ENDBRANCH   4   5
TORSDOF 9
ENDMDL
MODEL      303
REMARK 921   NORMALIZED FREE ENERGY PREDICTED BY IDOCK:   -3.43 KCAL/MOL
REMARK 922        TOTAL FREE ENERGY PREDICTED BY IDOCK:   -6.70 KCAL/MOL
REMARK 923 INTER-LIGAND FREE ENERGY PREDICTED BY IDOCK:   -4.05 KCAL/MOL
REMARK 924 INTRA-LIGAND FREE ENERGY PREDICTED BY IDOCK:   -2.65 KCAL/MOL
REMARK 927      BINDING AFFINITY PREDICTED BY RF-SCORE:    0.00 PKD
ROOT
HETATM    1  C   UNL     1     -11.410   8.433  70.721  1.00  0.00    -0.290 C  
HETATM    2  C   UNL     1     -12.699   9.077  71.233  1.00  0.00    -0.316 C  
HETATM    3  C   UNL     1     -12.579   9.386  72.724  1.00  0.00     0.190 C  
HETATM    4  C   UNL     1     -13.097  10.311  70.402  1.00  0.00    -0.035 C  
ENDROOT
BRANCH   4   5
HETATM    5  O   UNL     1     -12.130  11.368  70.469  1.00  0.00    -0.357 OA 
BRANCH   5   6
HETATM    6  C   UNL     1     -11.598  11.745  69.259  1.00  0.00    -0.315 A  
HETATM    7  C   UNL     1     -11.979  11.222  68.019  1.00  0.00    -0.132 A  
HETATM    8  C   UNL     1     -11.219  11.495  66.865  1.00  0.00    -0.363 A  
HETATM    9  C   UNL     1     -10.089  12.318  66.934  1.00  0.00    -0.224 A  
HETATM   10  C   UNL     1      -9.824  12.975  68.149  1.00  0.00    -0.228 A  
HETATM   11  C   UNL     1     -10.572  12.687  69.298  1.00  0.00     0.112 A  
BRANCH   9  12
HETATM   12  C   UNL     1      -9.044  12.315  65.838  1.00  0.00     0.050 C  
BRANCH  12  13
HETATM   13  N   UNL     1      -8.658  11.018  65.327  1.00  0.00    -0.356 N  
HETATM   14  H   UNL     1      -9.365  10.345  65.030  1.00  0.00     0.000 HD 
BRANCH  13  15
HETATM   15  C   UNL     1      -7.323  10.710  65.251  1.00  0.00     0.015 C  
HETATM   16  O   UNL     1      -6.770  10.583  64.156  1.00  0.00    -0.040 OA 
BRANCH  15  17
HETATM   17  N   UNL     1      -6.627  10.583  66.460  1.00  0.00    -0.092 N  
BRANCH  17  18
HETATM   18  C   UNL     1      -5.621  11.654  66.707  1.00  0.00    -0.134 C  
BRANCH  18  19
HETATM   19  C   UNL     1      -5.954  12.630  67.839  1.00  0.00    -0.108 A  
HETATM   20  C   UNL     1      -5.915  14.533  69.876  1.00  0.00    -0.132 A  
HETATM   21  C   UNL     1      -6.380  13.943  67.588  1.00  0.00    -0.140 A  
HETATM   22  C   UNL     1      -6.327  14.901  68.602  1.00  0.00    -0.084 A  
HETATM   23  F   UNL     1      -5.746  15.478  70.816  1.00  0.00    -0.151 F  
HETATM   24  C   UNL     1      -5.636  13.209  70.181  1.00  0.00    -0.130 A  
HETATM   25  C   UNL     1      -5.678  12.249  69.169  1.00  0.00    -0.070 A  
ENDBRANCH  18  19
ENDBRANCH  17  18
BRANCH  17  26
HETATM   26  C   UNL     1      -6.663   9.371  67.360  1.00  0.00    -0.068 C  
HETATM   27  C   UNL     1      -7.694   9.396  68.504  1.00  0.00    -0.085 C  
HETATM   28  C   UNL     1      -6.740   7.981  66.655  1.00  0.00    -0.063 C  
HETATM   29  C   UNL     1      -8.631   6.617  68.793  1.00  0.00    -0.122 C  
HETATM   30  C   UNL     1      -9.060   8.893  68.068  1.00  0.00    -0.139 C  
HETATM   31  N   UNL     1      -9.008   7.488  67.679  1.00  0.00    -0.127 NA 
HETATM   32  C   UNL     1      -8.130   7.344  66.520  1.00  0.00    -0.117 C  
ENDBRANCH  17  26
ENDBRANCH  15  17
ENDBRANCH  13  15
ENDBRANCH  12  13
ENDBRANCH   9  12
ENDBRANCH   5   6
ENDBRANCH   4   5
TORSDOF 9
ENDMDL
MODEL      304
REMARK 921   NORMALIZED FREE ENERGY PREDICTED BY IDOCK:   -3.41 KCAL/MOL
REMARK 922        TOTAL FREE ENERGY PREDICTED BY IDOCK:   -6.67 KCAL/MOL
REMARK 923 INTER-LIGAND FREE ENERGY PREDICTED BY IDOCK:   -6.70 KCAL/MOL
REMARK 924 INTRA-LIGAND FREE ENERGY PREDICTED BY IDOCK:    0.02 KCAL/MOL
REMARK 927      BINDING AFFINITY PREDICTED BY RF-SCORE:    0.00 PKD
ROOT
HETATM    1  C   UNL     1      -7.413  19.843  68.072  1.00  0.00    -0.332 C  
HETATM    2  C   UNL     1      -8.461  18.937  67.423  1.00  0.00    -0.295 C  
HETATM    3  C   UNL     1      -7.882  18.269  66.177  1.00  0.00    -0.239 C  
HETATM    4  C   UNL     1      -9.045  17.922  68.423  1.00  0.00    -0.289 C  
ENDROOT
BRANCH   4   5
HETATM    5  O   UNL     1      -8.062  17.009  68.933  1.00  0.00    -0.253 OA 
BRANCH   5   6
HETATM    6  C   UNL     1      -8.211  15.707  68.517  1.00  0.00    -0.153 A  
HETATM    7  C   UNL     1      -9.398  14.972  68.594  1.00  0.00    -0.202 A  
HETATM    8  C   UNL     1      -9.394  13.582  68.366  1.00  0.00    -0.171 A  
HETATM    9  C   UNL     1      -8.209  12.920  68.027  1.00  0.00    -0.168 A  
HETATM   10  C   UNL     1      -7.065  13.699  67.781  1.00  0.00    -0.167 A  
HETATM   11  C   UNL     1      -7.068  15.078  68.026  1.00  0.00    -0.142 A  
BRANCH   9  12
HETATM   12  C   UNL     1      -8.080  11.417  68.162  1.00  0.00    -0.137 C  
BRANCH  12  13
HETATM   13  N   UNL     1      -8.809  10.809  69.253  1.00  0.00    -0.359 N  
HETATM   14  H   UNL     1      -9.233  11.386  69.980  1.00  0.00     0.000 HD 
BRANCH  13  15
HETATM   15  C   UNL     1      -8.919   9.442  69.293  1.00  0.00    -0.154 C  
HETATM   16  O   UNL     1      -8.360   8.743  68.444  1.00  0.00    -0.123 OA 
BRANCH  15  17
HETATM   17  N   UNL     1      -9.656   8.891  70.349  1.00  0.00    -0.181 N  
BRANCH  17  18
HETATM   18  C   UNL     1      -8.828   8.373  71.475  1.00  0.00    -0.185 C  
BRANCH  18  19
HETATM   19  C   UNL     1      -8.799   6.850  71.632  1.00  0.00    -0.128 A  
HETATM   20  C   UNL     1      -9.401   4.146  71.943  1.00  0.00    -0.132 A  
HETATM   21  C   UNL     1      -8.771   5.989  70.526  1.00  0.00    -0.138 A  
HETATM   22  C   UNL     1      -9.107   4.642  70.680  1.00  0.00    -0.181 A  
HETATM   23  F   UNL     1      -9.842   2.884  72.073  1.00  0.00    -0.198 F  
HETATM   24  C   UNL     1      -9.285   4.947  73.070  1.00  0.00    -0.128 A  
HETATM   25  C   UNL     1      -8.960   6.296  72.920  1.00  0.00    -0.124 A  
ENDBRANCH  18  19
ENDBRANCH  17  18
BRANCH  17  26
HETATM   26  C   UNL     1     -11.136   8.591  70.312  1.00  0.00    -0.214 C  
HETATM   27  C   UNL     1     -11.624   7.434  71.203  1.00  0.00    -0.313 C  
HETATM   28  C   UNL     1     -12.098   9.804  70.507  1.00  0.00    -0.244 C  
HETATM   29  C   UNL     1     -14.286   8.242  72.173  1.00  0.00    -0.404 C  
HETATM   30  C   UNL     1     -11.929   7.879  72.623  1.00  0.00    -0.245 C  
HETATM   31  N   UNL     1     -13.035   8.830  72.653  1.00  0.00    -0.334 NA 
HETATM   32  C   UNL     1     -12.652  10.035  71.919  1.00  0.00    -0.362 C  
ENDBRANCH  17  26
ENDBRANCH  15  17
ENDBRANCH  13  15
ENDBRANCH  12  13
ENDBRANCH   9  12
ENDBRANCH   5   6
ENDBRANCH   4   5
TORSDOF 9
ENDMDL
MODEL      305
REMARK 921   NORMALIZED FREE ENERGY PREDICTED BY IDOCK:   -3.37 KCAL/MOL
REMARK 922        TOTAL FREE ENERGY PREDICTED BY IDOCK:   -6.62 KCAL/MOL
REMARK 923 INTER-LIGAND FREE ENERGY PREDICTED BY IDOCK:   -5.63 KCAL/MOL
REMARK 924 INTRA-LIGAND FREE ENERGY PREDICTED BY IDOCK:   -0.99 KCAL/MOL
REMARK 927      BINDING AFFINITY PREDICTED BY RF-SCORE:    0.00 PKD
ROOT
HETATM    1  C   UNL     1     -10.592  19.879  65.858  1.00  0.00    -0.523 C  
HETATM    2  C   UNL     1      -9.812  19.538  67.129  1.00  0.00    -0.465 C  
HETATM    3  C   UNL     1     -10.408  18.300  67.797  1.00  0.00    -0.419 C  
HETATM    4  C   UNL     1      -8.302  19.398  66.859  1.00  0.00    -0.287 C  
ENDROOT
BRANCH   4   5
HETATM    5  O   UNL     1      -7.991  18.323  65.960  1.00  0.00    -0.458 OA 
BRANCH   5   6
HETATM    6  C   UNL     1      -7.843  17.094  66.556  1.00  0.00    -0.290 A  
HETATM    7  C   UNL     1      -6.903  16.791  67.546  1.00  0.00    -0.170 A  
HETATM    8  C   UNL     1      -6.669  15.455  67.924  1.00  0.00    -0.177 A  
HETATM    9  C   UNL     1      -7.396  14.412  67.340  1.00  0.00    -0.167 A  
HETATM   10  C   UNL     1      -8.456  14.747  66.480  1.00  0.00     0.024 A  
HETATM   11  C   UNL     1      -8.674  16.075  66.092  1.00  0.00    -0.348 A  
BRANCH   9  12
HETATM   12  C   UNL     1      -6.916  12.977  67.418  1.00  0.00    -0.116 C  
BRANCH  12  13
HETATM   13  N   UNL     1      -7.889  12.001  67.855  1.00  0.00    -0.133 N  
HETATM   14  H   UNL     1      -8.042  11.829  68.849  1.00  0.00     0.000 HD 
BRANCH  13  15
HETATM   15  C   UNL     1      -8.602  11.310  66.907  1.00  0.00    -0.150 C  
HETATM   16  O   UNL     1      -8.234  11.298  65.730  1.00  0.00    -0.073 OA 
BRANCH  15  17
HETATM   17  N   UNL     1      -9.730  10.604  67.346  1.00  0.00    -0.165 N  
BRANCH  17  18
HETATM   18  C   UNL     1      -9.655   9.130  67.136  1.00  0.00    -0.164 C  
BRANCH  18  19
HETATM   19  C   UNL     1      -9.443   8.289  68.399  1.00  0.00    -0.144 A  
HETATM   20  C   UNL     1      -9.144   7.338  71.002  1.00  0.00    -0.153 A  
HETATM   21  C   UNL     1     -10.501   7.621  69.033  1.00  0.00    -0.214 A  
HETATM   22  C   UNL     1     -10.358   7.176  70.349  1.00  0.00    -0.216 A  
HETATM   23  F   UNL     1      -9.046   7.023  72.304  1.00  0.00    -0.133 F  
HETATM   24  C   UNL     1      -8.041   7.859  70.341  1.00  0.00    -0.114 A  
HETATM   25  C   UNL     1      -8.182   8.314  69.029  1.00  0.00    -0.119 A  
ENDBRANCH  18  19
ENDBRANCH  17  18
BRANCH  17  26
HETATM   26  C   UNL     1     -11.035  11.230  67.774  1.00  0.00    -0.252 C  
HETATM   27  C   UNL     1     -11.623  10.746  69.112  1.00  0.00    -0.376 C  
HETATM   28  C   UNL     1     -11.105  12.789  67.739  1.00  0.00    -0.289 C  
HETATM   29  C   UNL     1     -12.894  13.111  70.327  1.00  0.00     0.198 C  
HETATM   30  C   UNL     1     -11.069  11.511  70.304  1.00  0.00     0.410 C  
HETATM   31  N   UNL     1     -11.445  12.919  70.249  1.00  0.00     0.048 NA 
HETATM   32  C   UNL     1     -10.853  13.528  69.060  1.00  0.00    -0.192 C  
ENDBRANCH  17  26
ENDBRANCH  15  17
ENDBRANCH  13  15
ENDBRANCH  12  13
ENDBRANCH   9  12
ENDBRANCH   5   6
ENDBRANCH   4   5
TORSDOF 9
ENDMDL
MODEL      306
REMARK 921   NORMALIZED FREE ENERGY PREDICTED BY IDOCK:   -3.34 KCAL/MOL
REMARK 922        TOTAL FREE ENERGY PREDICTED BY IDOCK:   -6.56 KCAL/MOL
REMARK 923 INTER-LIGAND FREE ENERGY PREDICTED BY IDOCK:   -5.11 KCAL/MOL
REMARK 924 INTRA-LIGAND FREE ENERGY PREDICTED BY IDOCK:   -1.45 KCAL/MOL
REMARK 927      BINDING AFFINITY PREDICTED BY RF-SCORE:    0.00 PKD
ROOT
HETATM    1  C   UNL     1      -7.289   2.017  70.968  1.00  0.00    -0.033 C  
HETATM    2  C   UNL     1      -8.200   2.371  69.791  1.00  0.00    -0.063 C  
HETATM    3  C   UNL     1      -9.365   3.236  70.267  1.00  0.00    -0.242 C  
HETATM    4  C   UNL     1      -7.419   3.014  68.630  1.00  0.00    -0.049 C  
ENDROOT
BRANCH   4   5
HETATM    5  O   UNL     1      -6.811   4.264  68.988  1.00  0.00    -0.045 OA 
BRANCH   5   6
HETATM    6  C   UNL     1      -7.035   5.291  68.102  1.00  0.00    -0.061 A  
HETATM    7  C   UNL     1      -7.214   6.631  68.459  1.00  0.00    -0.085 A  
HETATM    8  C   UNL     1      -7.670   7.568  67.510  1.00  0.00    -0.118 A  
HETATM    9  C   UNL     1      -7.921   7.179  66.189  1.00  0.00    -0.112 A  
HETATM   10  C   UNL     1      -7.568   5.873  65.807  1.00  0.00    -0.087 A  
HETATM   11  C   UNL     1      -7.132   4.940  66.757  1.00  0.00    -0.068 A  
BRANCH   9  12
HETATM   12  C   UNL     1      -8.768   8.030  65.266  1.00  0.00    -0.029 C  
BRANCH  12  13
HETATM   13  N   UNL     1      -9.884   8.719  65.876  1.00  0.00    -0.460 N  
HETATM   14  H   UNL     1     -10.702   8.200  66.195  1.00  0.00     0.000 HD 
BRANCH  13  15
HETATM   15  C   UNL     1      -9.820  10.083  66.017  1.00  0.00    -0.257 C  
HETATM   16  O   UNL     1      -9.032  10.747  65.339  1.00  0.00    -0.185 OA 
BRANCH  15  17
HETATM   17  N   UNL     1     -10.706  10.672  66.928  1.00  0.00    -0.255 N  
BRANCH  17  18
HETATM   18  C   UNL     1     -11.227   9.744  67.970  1.00  0.00     0.009 C  
BRANCH  18  19
HETATM   19  C   UNL     1     -10.211   9.291  69.024  1.00  0.00    -0.217 A  
HETATM   20  C   UNL     1      -8.713   8.864  71.336  1.00  0.00    -0.192 A  
HETATM   21  C   UNL     1     -10.392   8.121  69.776  1.00  0.00    -0.216 A  
HETATM   22  C   UNL     1      -9.663   7.927  70.952  1.00  0.00    -0.177 A  
HETATM   23  F   UNL     1      -8.104   8.739  72.526  1.00  0.00    -0.178 F  
HETATM   24  C   UNL     1      -8.413   9.949  70.526  1.00  0.00     0.165 A  
HETATM   25  C   UNL     1      -9.145  10.153  69.355  1.00  0.00    -0.217 A  
ENDBRANCH  18  19
ENDBRANCH  17  18
BRANCH  17  26
HETATM   26  C   UNL     1     -11.312  12.048  66.784  1.00  0.00    -0.339 C  
HETATM   27  C   UNL     1     -11.014  13.051  67.914  1.00  0.00    -0.264 C  
HETATM   28  C   UNL     1     -11.095  12.766  65.415  1.00  0.00    -0.317 C  
HETATM   29  C   UNL     1     -10.778  15.680  66.604  1.00  0.00    -0.296 C  
HETATM   30  C   UNL     1      -9.708  13.798  67.701  1.00  0.00    -0.227 C  
HETATM   31  N   UNL     1      -9.763  14.630  66.504  1.00  0.00    -0.267 NA 
HETATM   32  C   UNL     1      -9.941  13.775  65.333  1.00  0.00    -0.229 C  
ENDBRANCH  17  26
ENDBRANCH  15  17
ENDBRANCH  13  15
ENDBRANCH  12  13
ENDBRANCH   9  12
ENDBRANCH   5   6
ENDBRANCH   4   5
TORSDOF 9
ENDMDL
MODEL      307
REMARK 921   NORMALIZED FREE ENERGY PREDICTED BY IDOCK:   -3.26 KCAL/MOL
REMARK 922        TOTAL FREE ENERGY PREDICTED BY IDOCK:   -6.44 KCAL/MOL
REMARK 923 INTER-LIGAND FREE ENERGY PREDICTED BY IDOCK:   -4.85 KCAL/MOL
REMARK 924 INTRA-LIGAND FREE ENERGY PREDICTED BY IDOCK:   -1.59 KCAL/MOL
REMARK 927      BINDING AFFINITY PREDICTED BY RF-SCORE:    0.00 PKD
ROOT
HETATM    1  C   UNL     1     -11.810   8.011  70.433  1.00  0.00     0.075 C  
HETATM    2  C   UNL     1     -12.487   8.417  71.744  1.00  0.00    -0.375 C  
HETATM    3  C   UNL     1     -11.517   8.254  72.912  1.00  0.00    -0.184 C  
HETATM    4  C   UNL     1     -13.092   9.831  71.667  1.00  0.00    -0.419 C  
ENDROOT
BRANCH   4   5
HETATM    5  O   UNL     1     -12.105  10.851  71.455  1.00  0.00    -0.278 OA 
BRANCH   5   6
HETATM    6  C   UNL     1     -12.041  11.337  70.171  1.00  0.00    -0.366 A  
HETATM    7  C   UNL     1     -12.338  10.600  69.020  1.00  0.00     0.215 A  
HETATM    8  C   UNL     1     -12.017  11.106  67.745  1.00  0.00     0.083 A  
HETATM    9  C   UNL     1     -11.425  12.367  67.608  1.00  0.00    -0.399 A  
HETATM   10  C   UNL     1     -11.297  13.165  68.758  1.00  0.00    -0.333 A  
HETATM   11  C   UNL     1     -11.600  12.651  70.026  1.00  0.00    -0.199 A  
BRANCH   9  12
HETATM   12  C   UNL     1     -10.717  12.770  66.331  1.00  0.00    -0.262 C  
BRANCH  12  13
HETATM   13  N   UNL     1     -10.813  11.840  65.227  1.00  0.00    -0.286 N  
HETATM   14  H   UNL     1     -11.723  11.563  64.859  1.00  0.00     0.000 HD 
BRANCH  13  15
HETATM   15  C   UNL     1      -9.656  11.337  64.685  1.00  0.00    -0.231 C  
HETATM   16  O   UNL     1      -9.309  11.652  63.544  1.00  0.00    -0.185 OA 
BRANCH  15  17
HETATM   17  N   UNL     1      -8.888  10.491  65.494  1.00  0.00    -0.177 N  
BRANCH  17  18
HETATM   18  C   UNL     1      -7.430  10.801  65.501  1.00  0.00     0.007 C  
BRANCH  18  19
HETATM   19  C   UNL     1      -6.890  11.430  66.789  1.00  0.00    -0.132 A  
HETATM   20  C   UNL     1      -6.357  12.184  69.419  1.00  0.00    -0.116 A  
HETATM   21  C   UNL     1      -5.775  10.909  67.461  1.00  0.00    -0.044 A  
HETATM   22  C   UNL     1      -5.531  11.263  68.789  1.00  0.00    -0.043 A  
HETATM   23  F   UNL     1      -6.196  12.430  70.730  1.00  0.00    -0.113 F  
HETATM   24  C   UNL     1      -7.373  12.824  68.724  1.00  0.00    -0.067 A  
HETATM   25  C   UNL     1      -7.627  12.466  67.400  1.00  0.00    -0.160 A  
ENDBRANCH  18  19
ENDBRANCH  17  18
BRANCH  17  26
HETATM   26  C   UNL     1      -9.382   9.215  66.133  1.00  0.00    -0.228 C  
HETATM   27  C   UNL     1      -8.856   7.898  65.533  1.00  0.00    -0.070 C  
HETATM   28  C   UNL     1      -9.273   9.126  67.688  1.00  0.00    -0.143 C  
HETATM   29  C   UNL     1      -8.550   6.050  67.807  1.00  0.00    -0.106 C  
HETATM   30  C   UNL     1      -7.525   7.474  66.131  1.00  0.00    -0.083 C  
HETATM   31  N   UNL     1      -7.654   7.179  67.554  1.00  0.00    -0.107 NA 
HETATM   32  C   UNL     1      -8.053   8.394  68.261  1.00  0.00    -0.120 C  
ENDBRANCH  17  26
ENDBRANCH  15  17
ENDBRANCH  13  15
ENDBRANCH  12  13
ENDBRANCH   9  12
ENDBRANCH   5   6
ENDBRANCH   4   5
TORSDOF 9
ENDMDL
MODEL      308
REMARK 921   NORMALIZED FREE ENERGY PREDICTED BY IDOCK:   -3.25 KCAL/MOL
REMARK 922        TOTAL FREE ENERGY PREDICTED BY IDOCK:   -6.43 KCAL/MOL
REMARK 923 INTER-LIGAND FREE ENERGY PREDICTED BY IDOCK:   -4.12 KCAL/MOL
REMARK 924 INTRA-LIGAND FREE ENERGY PREDICTED BY IDOCK:   -2.32 KCAL/MOL
REMARK 927      BINDING AFFINITY PREDICTED BY RF-SCORE:    0.00 PKD
ROOT
HETATM    1  C   UNL     1      -7.519   8.232  74.555  1.00  0.00    -0.273 C  
HETATM    2  C   UNL     1      -6.667   7.529  73.497  1.00  0.00    -0.079 C  
HETATM    3  C   UNL     1      -6.628   6.026  73.764  1.00  0.00    -0.075 C  
HETATM    4  C   UNL     1      -7.129   7.866  72.067  1.00  0.00    -0.074 C  
ENDROOT
BRANCH   4   5
HETATM    5  O   UNL     1      -8.465   7.420  71.791  1.00  0.00    -0.107 OA 
BRANCH   5   6
HETATM    6  C   UNL     1      -8.552   6.340  70.945  1.00  0.00    -0.135 A  
HETATM    7  C   UNL     1      -7.491   5.821  70.197  1.00  0.00    -0.081 A  
HETATM    8  C   UNL     1      -7.728   4.869  69.186  1.00  0.00    -0.072 A  
HETATM    9  C   UNL     1      -9.024   4.403  68.936  1.00  0.00    -0.153 A  
HETATM   10  C   UNL     1     -10.048   4.802  69.812  1.00  0.00    -0.289 A  
HETATM   11  C   UNL     1      -9.813   5.762  70.804  1.00  0.00    -0.235 A  
BRANCH   9  12
HETATM   12  C   UNL     1      -9.373   3.706  67.638  1.00  0.00    -0.200 C  
BRANCH  12  13
HETATM   13  N   UNL     1     -10.366   4.355  66.811  1.00  0.00    -0.255 N  
HETATM   14  H   UNL     1     -11.159   3.830  66.443  1.00  0.00     0.000 HD 
BRANCH  13  15
HETATM   15  C   UNL     1     -10.221   5.691  66.531  1.00  0.00    -0.211 C  
HETATM   16  O   UNL     1     -11.102   6.497  66.841  1.00  0.00    -0.399 OA 
BRANCH  15  17
HETATM   17  N   UNL     1      -9.026   6.088  65.918  1.00  0.00    -0.153 N  
BRANCH  17  18
HETATM   18  C   UNL     1      -8.804   7.562  65.897  1.00  0.00    -0.126 C  
BRANCH  18  19
HETATM   19  C   UNL     1      -8.326   8.181  67.214  1.00  0.00    -0.121 A  
HETATM   20  C   UNL     1      -7.323   9.827  69.227  1.00  0.00    -0.082 A  
HETATM   21  C   UNL     1      -9.202   8.847  68.083  1.00  0.00    -0.145 A  
HETATM   22  C   UNL     1      -8.696   9.697  69.069  1.00  0.00    -0.142 A  
HETATM   23  F   UNL     1      -6.839  10.736  70.089  1.00  0.00    -0.141 F  
HETATM   24  C   UNL     1      -6.442   9.061  68.478  1.00  0.00    -0.054 A  
HETATM   25  C   UNL     1      -6.942   8.217  67.485  1.00  0.00    -0.075 A  
ENDBRANCH  18  19
ENDBRANCH  17  18
BRANCH  17  26
HETATM   26  C   UNL     1      -8.119   5.186  65.115  1.00  0.00    -0.118 C  
HETATM   27  C   UNL     1      -8.381   5.123  63.599  1.00  0.00    -0.129 C  
HETATM   28  C   UNL     1      -6.584   5.358  65.344  1.00  0.00    -0.040 C  
HETATM   29  C   UNL     1      -5.730   4.847  62.342  1.00  0.00    -0.014 C  
HETATM   30  C   UNL     1      -7.666   6.226  62.837  1.00  0.00    -0.089 C  
HETATM   31  N   UNL     1      -6.217   6.089  62.944  1.00  0.00    -0.025 NA 
HETATM   32  C   UNL     1      -5.824   6.238  64.343  1.00  0.00    -0.022 C  
ENDBRANCH  17  26
ENDBRANCH  15  17
ENDBRANCH  13  15
ENDBRANCH  12  13
ENDBRANCH   9  12
ENDBRANCH   5   6
ENDBRANCH   4   5
TORSDOF 9
ENDMDL
MODEL      309
REMARK 921   NORMALIZED FREE ENERGY PREDICTED BY IDOCK:   -3.25 KCAL/MOL
REMARK 922        TOTAL FREE ENERGY PREDICTED BY IDOCK:   -6.43 KCAL/MOL
REMARK 923 INTER-LIGAND FREE ENERGY PREDICTED BY IDOCK:   -4.25 KCAL/MOL
REMARK 924 INTRA-LIGAND FREE ENERGY PREDICTED BY IDOCK:   -2.18 KCAL/MOL
REMARK 927      BINDING AFFINITY PREDICTED BY RF-SCORE:    0.00 PKD
ROOT
HETATM    1  C   UNL     1      -5.999   8.845  64.314  1.00  0.00    -0.070 C  
HETATM    2  C   UNL     1      -7.252   9.723  64.291  1.00  0.00    -0.129 C  
HETATM    3  C   UNL     1      -8.248   9.194  63.261  1.00  0.00    -0.177 C  
HETATM    4  C   UNL     1      -7.873   9.878  65.692  1.00  0.00    -0.127 C  
ENDROOT
BRANCH   4   5
HETATM    5  O   UNL     1      -8.329   8.634  66.243  1.00  0.00    -0.114 OA 
BRANCH   5   6
HETATM    6  C   UNL     1      -7.856   8.350  67.502  1.00  0.00    -0.099 A  
HETATM    7  C   UNL     1      -6.879   9.089  68.176  1.00  0.00    -0.069 A  
HETATM    8  C   UNL     1      -6.291   8.589  69.354  1.00  0.00    -0.037 A  
HETATM    9  C   UNL     1      -6.698   7.361  69.887  1.00  0.00    -0.047 A  
HETATM   10  C   UNL     1      -7.800   6.718  69.298  1.00  0.00    -0.110 A  
HETATM   11  C   UNL     1      -8.370   7.209  68.116  1.00  0.00    -0.124 A  
BRANCH   9  12
HETATM   12  C   UNL     1      -5.843   6.617  70.892  1.00  0.00    -0.027 C  
BRANCH  12  13
HETATM   13  N   UNL     1      -5.645   7.268  72.168  1.00  0.00    -0.037 N  
HETATM   14  H   UNL     1      -5.233   8.200  72.217  1.00  0.00     0.000 HD 
BRANCH  13  15
HETATM   15  C   UNL     1      -6.021   6.608  73.312  1.00  0.00    -0.058 C  
HETATM   16  O   UNL     1      -5.172   6.198  74.107  1.00  0.00    -0.035 OA 
BRANCH  15  17
HETATM   17  N   UNL     1      -7.394   6.458  73.540  1.00  0.00    -0.086 N  
BRANCH  17  18
HETATM   18  C   UNL     1      -8.105   7.724  73.878  1.00  0.00    -0.199 C  
BRANCH  18  19
HETATM   19  C   UNL     1      -9.254   8.111  72.941  1.00  0.00    -0.343 A  
HETATM   20  C   UNL     1     -11.407   9.324  71.652  1.00  0.00    -0.397 A  
HETATM   21  C   UNL     1      -9.044   8.879  71.786  1.00  0.00    -0.241 A  
HETATM   22  C   UNL     1     -10.122   9.512  71.163  1.00  0.00    -0.262 A  
HETATM   23  F   UNL     1     -12.424  10.029  71.130  1.00  0.00    -0.353 F  
HETATM   24  C   UNL     1     -11.652   8.447  72.699  1.00  0.00    -0.367 A  
HETATM   25  C   UNL     1     -10.577   7.820  73.331  1.00  0.00    -0.254 A  
ENDBRANCH  18  19
ENDBRANCH  17  18
BRANCH  17  26
HETATM   26  C   UNL     1      -8.112   5.138  73.690  1.00  0.00    -0.110 C  
HETATM   27  C   UNL     1      -8.855   4.615  72.447  1.00  0.00    -0.128 C  
HETATM   28  C   UNL     1      -7.287   3.962  74.303  1.00  0.00    -0.062 C  
HETATM   29  C   UNL     1      -8.551   1.685  72.509  1.00  0.00    -0.057 C  
HETATM   30  C   UNL     1      -7.952   3.818  71.519  1.00  0.00    -0.065 C  
HETATM   31  N   UNL     1      -7.466   2.605  72.168  1.00  0.00    -0.046 NA 
HETATM   32  C   UNL     1      -6.646   2.973  73.321  1.00  0.00    -0.022 C  
ENDBRANCH  17  26
ENDBRANCH  15  17
ENDBRANCH  13  15
ENDBRANCH  12  13
ENDBRANCH   9  12
ENDBRANCH   5   6
ENDBRANCH   4   5
TORSDOF 9
ENDMDL
MODEL      310
REMARK 921   NORMALIZED FREE ENERGY PREDICTED BY IDOCK:   -3.25 KCAL/MOL
REMARK 922        TOTAL FREE ENERGY PREDICTED BY IDOCK:   -6.42 KCAL/MOL
REMARK 923 INTER-LIGAND FREE ENERGY PREDICTED BY IDOCK:   -5.39 KCAL/MOL
REMARK 924 INTRA-LIGAND FREE ENERGY PREDICTED BY IDOCK:   -1.03 KCAL/MOL
REMARK 927      BINDING AFFINITY PREDICTED BY RF-SCORE:    0.00 PKD
ROOT
HETATM    1  C   UNL     1     -12.191  15.100  64.500  1.00  0.00    -0.278 C  
HETATM    2  C   UNL     1     -10.816  14.698  65.036  1.00  0.00    -0.431 C  
HETATM    3  C   UNL     1     -10.396  15.633  66.168  1.00  0.00    -0.329 C  
HETATM    4  C   UNL     1     -10.768  13.213  65.444  1.00  0.00    -0.294 C  
ENDROOT
BRANCH   4   5
HETATM    5  O   UNL     1     -11.666  12.898  66.517  1.00  0.00    -0.354 OA 
BRANCH   5   6
HETATM    6  C   UNL     1     -11.211  11.939  67.390  1.00  0.00    -0.305 A  
HETATM    7  C   UNL     1     -10.576  12.200  68.608  1.00  0.00    -0.248 A  
HETATM    8  C   UNL     1      -9.937  11.165  69.317  1.00  0.00    -0.034 A  
HETATM    9  C   UNL     1      -9.956   9.852  68.832  1.00  0.00    -0.188 A  
HETATM   10  C   UNL     1     -10.746   9.577  67.702  1.00  0.00    -0.314 A  
HETATM   11  C   UNL     1     -11.365  10.613  66.989  1.00  0.00     0.023 A  
BRANCH   9  12
HETATM   12  C   UNL     1      -8.975   8.813  69.334  1.00  0.00    -0.145 C  
BRANCH  12  13
HETATM   13  N   UNL     1      -8.900   8.646  70.768  1.00  0.00    -0.158 N  
HETATM   14  H   UNL     1      -9.734   8.743  71.347  1.00  0.00     0.000 HD 
BRANCH  13  15
HETATM   15  C   UNL     1      -7.684   8.354  71.336  1.00  0.00    -0.099 C  
HETATM   16  O   UNL     1      -6.998   9.246  71.842  1.00  0.00    -0.314 OA 
BRANCH  15  17
HETATM   17  N   UNL     1      -7.288   7.011  71.341  1.00  0.00    -0.079 N  
BRANCH  17  18
HETATM   18  C   UNL     1      -6.178   6.691  70.400  1.00  0.00    -0.032 C  
BRANCH  18  19
HETATM   19  C   UNL     1      -6.485   6.906  68.914  1.00  0.00    -0.036 A  
HETATM   20  C   UNL     1      -6.445   7.033  66.130  1.00  0.00    -0.051 A  
HETATM   21  C   UNL     1      -7.182   5.956  68.154  1.00  0.00    -0.079 A  
HETATM   22  C   UNL     1      -7.131   6.003  66.759  1.00  0.00    -0.070 A  
HETATM   23  F   UNL     1      -6.292   7.009  64.796  1.00  0.00    -0.035 F  
HETATM   24  C   UNL     1      -5.879   8.066  66.863  1.00  0.00    -0.048 A  
HETATM   25  C   UNL     1      -5.918   8.018  68.257  1.00  0.00    -0.041 A  
ENDBRANCH  18  19
ENDBRANCH  17  18
BRANCH  17  26
HETATM   26  C   UNL     1      -8.031   5.889  72.026  1.00  0.00    -0.107 C  
HETATM   27  C   UNL     1      -8.615   6.200  73.417  1.00  0.00    -0.122 C  
HETATM   28  C   UNL     1      -9.125   5.160  71.184  1.00  0.00    -0.174 C  
HETATM   29  C   UNL     1     -11.153   4.710  73.569  1.00  0.00    -0.331 C  
HETATM   30  C   UNL     1      -9.995   6.831  73.343  1.00  0.00    -0.222 C  
HETATM   31  N   UNL     1     -10.966   5.913  72.757  1.00  0.00    -0.250 NA 
HETATM   32  C   UNL     1     -10.576   5.618  71.380  1.00  0.00    -0.253 C  
ENDBRANCH  17  26
ENDBRANCH  15  17
ENDBRANCH  13  15
ENDBRANCH  12  13
ENDBRANCH   9  12
ENDBRANCH   5   6
ENDBRANCH   4   5
TORSDOF 9
ENDMDL
MODEL      311
REMARK 921   NORMALIZED FREE ENERGY PREDICTED BY IDOCK:   -3.25 KCAL/MOL
REMARK 922        TOTAL FREE ENERGY PREDICTED BY IDOCK:   -6.42 KCAL/MOL
REMARK 923 INTER-LIGAND FREE ENERGY PREDICTED BY IDOCK:   -5.18 KCAL/MOL
REMARK 924 INTRA-LIGAND FREE ENERGY PREDICTED BY IDOCK:   -1.25 KCAL/MOL
REMARK 927      BINDING AFFINITY PREDICTED BY RF-SCORE:    0.00 PKD
ROOT
HETATM    1  C   UNL     1     -12.410  15.579  64.209  1.00  0.00    -0.009 C  
HETATM    2  C   UNL     1     -11.004  15.171  64.652  1.00  0.00    -0.321 C  
HETATM    3  C   UNL     1     -10.504  16.107  65.750  1.00  0.00    -0.384 C  
HETATM    4  C   UNL     1     -10.935  13.687  65.059  1.00  0.00    -0.346 C  
ENDROOT
BRANCH   4   5
HETATM    5  O   UNL     1     -11.760  13.379  66.192  1.00  0.00    -0.337 OA 
BRANCH   5   6
HETATM    6  C   UNL     1     -11.404  12.241  66.876  1.00  0.00    -0.333 A  
HETATM    7  C   UNL     1     -11.441  12.097  68.266  1.00  0.00    -0.360 A  
HETATM    8  C   UNL     1     -10.836  10.986  68.885  1.00  0.00    -0.262 A  
HETATM    9  C   UNL     1     -10.217   9.992  68.118  1.00  0.00    -0.205 A  
HETATM   10  C   UNL     1     -10.344  10.063  66.720  1.00  0.00    -0.283 A  
HETATM   11  C   UNL     1     -10.930  11.179  66.107  1.00  0.00    -0.203 A  
BRANCH   9  12
HETATM   12  C   UNL     1      -9.236   9.018  68.736  1.00  0.00    -0.133 C  
BRANCH  12  13
HETATM   13  N   UNL     1      -9.783   7.752  69.174  1.00  0.00    -0.160 N  
HETATM   14  H   UNL     1     -10.648   7.393  68.771  1.00  0.00     0.000 HD 
BRANCH  13  15
HETATM   15  C   UNL     1      -9.116   7.046  70.143  1.00  0.00    -0.149 C  
HETATM   16  O   UNL     1      -9.514   7.052  71.311  1.00  0.00    -0.164 OA 
BRANCH  15  17
HETATM   17  N   UNL     1      -8.000   6.303  69.737  1.00  0.00    -0.116 N  
BRANCH  17  18
HETATM   18  C   UNL     1      -6.736   6.652  70.444  1.00  0.00    -0.057 C  
BRANCH  18  19
HETATM   19  C   UNL     1      -6.164   8.039  70.134  1.00  0.00    -0.032 A  
HETATM   20  C   UNL     1      -5.682  10.631  69.227  1.00  0.00    -0.041 A  
HETATM   21  C   UNL     1      -6.367   9.135  70.986  1.00  0.00    -0.071 A  
HETATM   22  C   UNL     1      -6.157  10.433  70.517  1.00  0.00    -0.116 A  
HETATM   23  F   UNL     1      -5.599  11.878  68.737  1.00  0.00    -0.050 F  
HETATM   24  C   UNL     1      -5.331   9.556  68.424  1.00  0.00    -0.036 A  
HETATM   25  C   UNL     1      -5.548   8.257  68.884  1.00  0.00    -0.039 A  
ENDBRANCH  18  19
ENDBRANCH  17  18
BRANCH  17  26
HETATM   26  C   UNL     1      -7.954   5.391  68.534  1.00  0.00    -0.091 C  
HETATM   27  C   UNL     1      -9.182   4.490  68.308  1.00  0.00    -0.174 C  
HETATM   28  C   UNL     1      -7.569   6.052  67.173  1.00  0.00    -0.092 C  
HETATM   29  C   UNL     1      -9.515   4.315  65.385  1.00  0.00    -0.177 C  
HETATM   30  C   UNL     1     -10.279   5.186  67.518  1.00  0.00    -0.156 C  
HETATM   31  N   UNL     1      -9.833   5.510  66.167  1.00  0.00    -0.138 NA 
HETATM   32  C   UNL     1      -8.721   6.455  66.243  1.00  0.00    -0.143 C  
ENDBRANCH  17  26
ENDBRANCH  15  17
ENDBRANCH  13  15
ENDBRANCH  12  13
ENDBRANCH   9  12
ENDBRANCH   5   6
ENDBRANCH   4   5
TORSDOF 9
ENDMDL
MODEL      312
REMARK 921   NORMALIZED FREE ENERGY PREDICTED BY IDOCK:   -3.23 KCAL/MOL
REMARK 922        TOTAL FREE ENERGY PREDICTED BY IDOCK:   -6.40 KCAL/MOL
REMARK 923 INTER-LIGAND FREE ENERGY PREDICTED BY IDOCK:   -5.66 KCAL/MOL
REMARK 924 INTRA-LIGAND FREE ENERGY PREDICTED BY IDOCK:   -0.74 KCAL/MOL
REMARK 927      BINDING AFFINITY PREDICTED BY RF-SCORE:    0.00 PKD
ROOT
HETATM    1  C   UNL     1      -8.733  18.324  67.968  1.00  0.00    -0.287 C  
HETATM    2  C   UNL     1     -10.208  18.493  68.337  1.00  0.00    -0.409 C  
HETATM    3  C   UNL     1     -10.879  19.484  67.389  1.00  0.00    -0.536 C  
HETATM    4  C   UNL     1     -10.944  17.141  68.401  1.00  0.00    -0.221 C  
ENDROOT
BRANCH   4   5
HETATM    5  O   UNL     1     -10.976  16.461  67.138  1.00  0.00    -0.226 OA 
BRANCH   5   6
HETATM    6  C   UNL     1     -10.866  15.093  67.214  1.00  0.00    -0.316 A  
HETATM    7  C   UNL     1     -11.939  14.199  67.162  1.00  0.00    -0.460 A  
HETATM    8  C   UNL     1     -11.753  12.840  67.484  1.00  0.00    -0.422 A  
HETATM    9  C   UNL     1     -10.486  12.357  67.829  1.00  0.00    -0.231 A  
HETATM   10  C   UNL     1      -9.391  13.229  67.705  1.00  0.00    -0.212 A  
HETATM   11  C   UNL     1      -9.582  14.584  67.402  1.00  0.00    -0.212 A  
BRANCH   9  12
HETATM   12  C   UNL     1     -10.317  11.036  68.550  1.00  0.00    -0.190 C  
BRANCH  12  13
HETATM   13  N   UNL     1     -10.870   9.874  67.890  1.00  0.00    -0.353 N  
HETATM   14  H   UNL     1     -11.848   9.618  68.022  1.00  0.00     0.000 HD 
BRANCH  13  15
HETATM   15  C   UNL     1     -10.052   9.121  67.084  1.00  0.00    -0.236 C  
HETATM   16  O   UNL     1     -10.531   8.318  66.279  1.00  0.00    -0.026 OA 
BRANCH  15  17
HETATM   17  N   UNL     1      -8.673   9.333  67.198  1.00  0.00    -0.127 N  
BRANCH  17  18
HETATM   18  C   UNL     1      -8.037   9.924  65.986  1.00  0.00    -0.120 C  
BRANCH  18  19
HETATM   19  C   UNL     1      -7.582   8.923  64.920  1.00  0.00    -0.108 A  
HETATM   20  C   UNL     1      -7.295   6.773  63.169  1.00  0.00    -0.075 A  
HETATM   21  C   UNL     1      -7.944   9.057  63.572  1.00  0.00    -0.150 A  
HETATM   22  C   UNL     1      -7.830   7.968  62.705  1.00  0.00    -0.140 A  
HETATM   23  F   UNL     1      -7.300   5.692  62.372  1.00  0.00    -0.041 F  
HETATM   24  C   UNL     1      -6.792   6.668  64.457  1.00  0.00    -0.046 A  
HETATM   25  C   UNL     1      -6.912   7.751  65.329  1.00  0.00    -0.059 A  
ENDBRANCH  18  19
ENDBRANCH  17  18
BRANCH  17  26
HETATM   26  C   UNL     1      -7.802   8.812  68.317  1.00  0.00    -0.101 C  
HETATM   27  C   UNL     1      -7.251   9.858  69.302  1.00  0.00    -0.073 C  
HETATM   28  C   UNL     1      -8.368   7.610  69.138  1.00  0.00    -0.131 C  
HETATM   29  C   UNL     1      -7.221   8.536  71.936  1.00  0.00    -0.091 C  
HETATM   30  C   UNL     1      -8.219  10.161  70.434  1.00  0.00     0.382 C  
HETATM   31  N   UNL     1      -8.443   8.985  71.268  1.00  0.00    -0.291 NA 
HETATM   32  C   UNL     1      -9.070   7.939  70.462  1.00  0.00    -0.154 C  
ENDBRANCH  17  26
ENDBRANCH  15  17
ENDBRANCH  13  15
ENDBRANCH  12  13
ENDBRANCH   9  12
ENDBRANCH   5   6
ENDBRANCH   4   5
TORSDOF 9
ENDMDL
MODEL      313
REMARK 921   NORMALIZED FREE ENERGY PREDICTED BY IDOCK:   -3.22 KCAL/MOL
REMARK 922        TOTAL FREE ENERGY PREDICTED BY IDOCK:   -6.38 KCAL/MOL
REMARK 923 INTER-LIGAND FREE ENERGY PREDICTED BY IDOCK:   -4.85 KCAL/MOL
REMARK 924 INTRA-LIGAND FREE ENERGY PREDICTED BY IDOCK:   -1.52 KCAL/MOL
REMARK 927      BINDING AFFINITY PREDICTED BY RF-SCORE:    0.00 PKD
ROOT
HETATM    1  C   UNL     1     -12.247  16.991  72.830  1.00  0.00     0.556 C  
HETATM    2  C   UNL     1     -11.506  15.677  73.083  1.00  0.00    -0.050 C  
HETATM    3  C   UNL     1     -12.196  14.886  74.192  1.00  0.00    -0.457 C  
HETATM    4  C   UNL     1     -11.331  14.856  71.791  1.00  0.00    -0.099 C  
ENDROOT
BRANCH   4   5
HETATM    5  O   UNL     1     -12.579  14.447  71.213  1.00  0.00    -0.309 OA 
BRANCH   5   6
HETATM    6  C   UNL     1     -12.762  13.088  71.135  1.00  0.00    -0.283 A  
HETATM    7  C   UNL     1     -13.436  12.314  72.085  1.00  0.00    -0.431 A  
HETATM    8  C   UNL     1     -13.369  10.908  72.040  1.00  0.00    -0.394 A  
HETATM    9  C   UNL     1     -12.653  10.262  71.025  1.00  0.00    -0.487 A  
HETATM   10  C   UNL     1     -12.132  11.047  69.982  1.00  0.00    -0.441 A  
HETATM   11  C   UNL     1     -12.186  12.445  70.040  1.00  0.00    -0.264 A  
BRANCH   9  12
HETATM   12  C   UNL     1     -12.231   8.814  71.160  1.00  0.00    -0.244 C  
BRANCH  12  13
HETATM   13  N   UNL     1     -10.808   8.569  71.244  1.00  0.00    -0.238 N  
HETATM   14  H   UNL     1     -10.307   8.707  72.122  1.00  0.00     0.000 HD 
BRANCH  13  15
HETATM   15  C   UNL     1     -10.143   8.146  70.119  1.00  0.00    -0.194 C  
HETATM   16  O   UNL     1     -10.768   7.810  69.111  1.00  0.00    -0.208 OA 
BRANCH  15  17
HETATM   17  N   UNL     1      -8.744   8.151  70.165  1.00  0.00    -0.129 N  
BRANCH  17  18
HETATM   18  C   UNL     1      -8.155   7.179  71.129  1.00  0.00    -0.104 C  
BRANCH  18  19
HETATM   19  C   UNL     1      -7.182   6.158  70.531  1.00  0.00    -0.083 A  
HETATM   20  C   UNL     1      -5.741   3.877  69.831  1.00  0.00    -0.017 A  
HETATM   21  C   UNL     1      -7.447   5.498  69.322  1.00  0.00    -0.078 A  
HETATM   22  C   UNL     1      -6.746   4.337  68.991  1.00  0.00    -0.046 A  
HETATM   23  F   UNL     1      -5.154   2.696  69.576  1.00  0.00    -0.005 F  
HETATM   24  C   UNL     1      -5.362   4.599  70.953  1.00  0.00    -0.004 A  
HETATM   25  C   UNL     1      -6.066   5.755  71.293  1.00  0.00    -0.034 A  
ENDBRANCH  18  19
ENDBRANCH  17  18
BRANCH  17  26
HETATM   26  C   UNL     1      -7.856   9.184  69.512  1.00  0.00    -0.082 C  
HETATM   27  C   UNL     1      -7.056   8.722  68.281  1.00  0.00    -0.078 C  
HETATM   28  C   UNL     1      -8.514  10.562  69.186  1.00  0.00    -0.152 C  
HETATM   29  C   UNL     1      -6.967  11.045  66.470  1.00  0.00    -0.138 C  
HETATM   30  C   UNL     1      -7.849   8.845  66.990  1.00  0.00    -0.102 C  
HETATM   31  N   UNL     1      -8.167  10.238  66.694  1.00  0.00    -0.123 NA 
HETATM   32  C   UNL     1      -9.022  10.770  67.753  1.00  0.00    -0.137 C  
ENDBRANCH  17  26
ENDBRANCH  15  17
ENDBRANCH  13  15
ENDBRANCH  12  13
ENDBRANCH   9  12
ENDBRANCH   5   6
ENDBRANCH   4   5
TORSDOF 9
ENDMDL
MODEL      314
REMARK 921   NORMALIZED FREE ENERGY PREDICTED BY IDOCK:   -3.11 KCAL/MOL
REMARK 922        TOTAL FREE ENERGY PREDICTED BY IDOCK:   -6.21 KCAL/MOL
REMARK 923 INTER-LIGAND FREE ENERGY PREDICTED BY IDOCK:   -4.57 KCAL/MOL
REMARK 924 INTRA-LIGAND FREE ENERGY PREDICTED BY IDOCK:   -1.64 KCAL/MOL
REMARK 927      BINDING AFFINITY PREDICTED BY RF-SCORE:    0.00 PKD
ROOT
HETATM    1  C   UNL     1      -5.489   2.337  67.310  1.00  0.00    -0.017 C  
HETATM    2  C   UNL     1      -6.955   2.459  66.892  1.00  0.00    -0.048 C  
HETATM    3  C   UNL     1      -7.835   1.596  67.793  1.00  0.00    -0.058 C  
HETATM    4  C   UNL     1      -7.419   3.928  66.839  1.00  0.00    -0.072 C  
ENDROOT
BRANCH   4   5
HETATM    5  O   UNL     1      -7.365   4.578  68.117  1.00  0.00    -0.064 OA 
BRANCH   5   6
HETATM    6  C   UNL     1      -6.734   5.798  68.120  1.00  0.00    -0.058 A  
HETATM    7  C   UNL     1      -6.006   6.321  69.193  1.00  0.00    -0.021 A  
HETATM    8  C   UNL     1      -5.598   7.669  69.190  1.00  0.00    -0.026 A  
HETATM    9  C   UNL     1      -5.886   8.498  68.100  1.00  0.00    -0.042 A  
HETATM   10  C   UNL     1      -6.460   7.912  66.959  1.00  0.00    -0.056 A  
HETATM   11  C   UNL     1      -6.881   6.576  66.972  1.00  0.00    -0.066 A  
BRANCH   9  12
HETATM   12  C   UNL     1      -5.823  10.006  68.220  1.00  0.00    -0.042 C  
BRANCH  12  13
HETATM   13  N   UNL     1      -6.944  10.738  67.672  1.00  0.00    -0.080 N  
HETATM   14  H   UNL     1      -6.919  11.085  66.714  1.00  0.00     0.000 HD 
BRANCH  13  15
HETATM   15  C   UNL     1      -8.042  10.956  68.467  1.00  0.00    -0.137 C  
HETATM   16  O   UNL     1      -8.267  12.076  68.932  1.00  0.00    -0.024 OA 
BRANCH  15  17
HETATM   17  N   UNL     1      -8.895   9.868  68.690  1.00  0.00    -0.124 N  
BRANCH  17  18
HETATM   18  C   UNL     1      -9.642   9.413  67.484  1.00  0.00    -0.141 C  
BRANCH  18  19
HETATM   19  C   UNL     1     -10.112  10.521  66.536  1.00  0.00    -0.280 A  
HETATM   20  C   UNL     1     -11.337  12.055  64.557  1.00  0.00    -0.330 A  
HETATM   21  C   UNL     1     -11.171  11.379  66.863  1.00  0.00    -0.331 A  
HETATM   22  C   UNL     1     -11.805  12.121  65.863  1.00  0.00    -0.342 A  
HETATM   23  F   UNL     1     -12.021  12.669  63.578  1.00  0.00    -0.462 F  
HETATM   24  C   UNL     1     -10.197  11.330  64.243  1.00  0.00    -0.383 A  
HETATM   25  C   UNL     1      -9.566  10.580  65.237  1.00  0.00    -0.303 A  
ENDBRANCH  18  19
ENDBRANCH  17  18
BRANCH  17  26
HETATM   26  C   UNL     1      -9.261   9.315  70.047  1.00  0.00    -0.210 C  
HETATM   27  C   UNL     1     -10.744   9.412  70.450  1.00  0.00    -0.317 C  
HETATM   28  C   UNL     1      -8.755   7.874  70.372  1.00  0.00    -0.137 C  
HETATM   29  C   UNL     1     -11.311   6.971  72.000  1.00  0.00    -0.264 C  
HETATM   30  C   UNL     1     -11.565   8.237  69.945  1.00  0.00     0.299 C  
HETATM   31  N   UNL     1     -11.123   6.984  70.549  1.00  0.00    -0.267 NA 
HETATM   32  C   UNL     1      -9.742   6.721  70.150  1.00  0.00    -0.167 C  
ENDBRANCH  17  26
ENDBRANCH  15  17
ENDBRANCH  13  15
ENDBRANCH  12  13
ENDBRANCH   9  12
ENDBRANCH   5   6
ENDBRANCH   4   5
TORSDOF 9
ENDMDL
MODEL      315
REMARK 921   NORMALIZED FREE ENERGY PREDICTED BY IDOCK:   -3.08 KCAL/MOL
REMARK 922        TOTAL FREE ENERGY PREDICTED BY IDOCK:   -6.16 KCAL/MOL
REMARK 923 INTER-LIGAND FREE ENERGY PREDICTED BY IDOCK:   -4.52 KCAL/MOL
REMARK 924 INTRA-LIGAND FREE ENERGY PREDICTED BY IDOCK:   -1.64 KCAL/MOL
REMARK 927      BINDING AFFINITY PREDICTED BY RF-SCORE:    0.00 PKD
ROOT
HETATM    1  C   UNL     1      -9.278  15.299  66.945  1.00  0.00    -0.255 C  
HETATM    2  C   UNL     1      -7.846  15.813  67.098  1.00  0.00    -0.247 C  
HETATM    3  C   UNL     1      -7.799  16.951  68.116  1.00  0.00    -0.189 C  
HETATM    4  C   UNL     1      -6.858  14.679  67.431  1.00  0.00    -0.055 C  
ENDROOT
BRANCH   4   5
HETATM    5  O   UNL     1      -7.136  14.045  68.688  1.00  0.00    -0.095 OA 
BRANCH   5   6
HETATM    6  C   UNL     1      -7.239  12.675  68.635  1.00  0.00    -0.108 A  
HETATM    7  C   UNL     1      -6.773  11.798  69.619  1.00  0.00    -0.034 A  
HETATM    8  C   UNL     1      -6.710  10.413  69.370  1.00  0.00    -0.069 A  
HETATM    9  C   UNL     1      -7.141   9.889  68.146  1.00  0.00    -0.077 A  
HETATM   10  C   UNL     1      -7.768  10.761  67.239  1.00  0.00    -0.109 A  
HETATM   11  C   UNL     1      -7.814  12.140  67.483  1.00  0.00    -0.162 A  
BRANCH   9  12
HETATM   12  C   UNL     1      -6.732   8.502  67.696  1.00  0.00    -0.066 C  
BRANCH  12  13
HETATM   13  N   UNL     1      -7.631   7.837  66.779  1.00  0.00    -0.096 N  
HETATM   14  H   UNL     1      -7.506   7.930  65.770  1.00  0.00     0.000 HD 
BRANCH  13  15
HETATM   15  C   UNL     1      -8.655   7.080  67.291  1.00  0.00    -0.121 C  
HETATM   16  O   UNL     1      -9.816   7.259  66.915  1.00  0.00    -0.184 OA 
BRANCH  15  17
HETATM   17  N   UNL     1      -8.313   6.089  68.220  1.00  0.00    -0.113 N  
BRANCH  17  18
HETATM   18  C   UNL     1      -7.423   5.021  67.683  1.00  0.00    -0.079 C  
BRANCH  18  19
HETATM   19  C   UNL     1      -7.889   4.360  66.382  1.00  0.00    -0.098 A  
HETATM   20  C   UNL     1      -9.117   3.694  63.969  1.00  0.00    -0.119 A  
HETATM   21  C   UNL     1      -7.210   4.545  65.169  1.00  0.00    -0.068 A  
HETATM   22  C   UNL     1      -7.841   4.242  63.961  1.00  0.00    -0.085 A  
HETATM   23  F   UNL     1      -9.770   3.520  62.809  1.00  0.00    -0.094 F  
HETATM   24  C   UNL     1      -9.743   3.363  65.162  1.00  0.00    -0.093 A  
HETATM   25  C   UNL     1      -9.121   3.673  66.372  1.00  0.00    -0.162 A  
ENDBRANCH  18  19
ENDBRANCH  17  18
BRANCH  17  26
HETATM   26  C   UNL     1      -8.945   5.918  69.581  1.00  0.00    -0.130 C  
HETATM   27  C   UNL     1      -8.808   7.104  70.554  1.00  0.00    -0.154 C  
HETATM   28  C   UNL     1     -10.427   5.428  69.605  1.00  0.00    -0.361 C  
HETATM   29  C   UNL     1     -11.326   7.173  72.084  1.00  0.00    -0.264 C  
HETATM   30  C   UNL     1      -9.905   8.140  70.370  1.00  0.00    -0.186 C  
HETATM   31  N   UNL     1     -11.216   7.583  70.684  1.00  0.00    -0.266 NA 
HETATM   32  C   UNL     1     -11.514   6.501  69.748  1.00  0.00    -0.379 C  
ENDBRANCH  17  26
ENDBRANCH  15  17
ENDBRANCH  13  15
ENDBRANCH  12  13
ENDBRANCH   9  12
ENDBRANCH   5   6
ENDBRANCH   4   5
TORSDOF 9
ENDMDL
MODEL      316
REMARK 921   NORMALIZED FREE ENERGY PREDICTED BY IDOCK:   -3.05 KCAL/MOL
REMARK 922        TOTAL FREE ENERGY PREDICTED BY IDOCK:   -6.12 KCAL/MOL
REMARK 923 INTER-LIGAND FREE ENERGY PREDICTED BY IDOCK:   -5.10 KCAL/MOL
REMARK 924 INTRA-LIGAND FREE ENERGY PREDICTED BY IDOCK:   -1.02 KCAL/MOL
REMARK 927      BINDING AFFINITY PREDICTED BY RF-SCORE:    0.00 PKD
ROOT
HETATM    1  C   UNL     1     -12.835  13.371  71.459  1.00  0.00    -0.427 C  
HETATM    2  C   UNL     1     -13.489  14.744  71.619  1.00  0.00    -0.468 C  
HETATM    3  C   UNL     1     -12.882  15.483  72.810  1.00  0.00    -0.539 C  
HETATM    4  C   UNL     1     -13.430  15.566  70.318  1.00  0.00     0.407 C  
ENDROOT
BRANCH   4   5
HETATM    5  O   UNL     1     -12.089  15.865  69.905  1.00  0.00    -0.326 OA 
BRANCH   5   6
HETATM    6  C   UNL     1     -11.670  15.206  68.774  1.00  0.00    -0.342 A  
HETATM    7  C   UNL     1     -12.498  14.463  67.928  1.00  0.00     0.210 A  
HETATM    8  C   UNL     1     -11.943  13.634  66.933  1.00  0.00    -0.454 A  
HETATM    9  C   UNL     1     -10.556  13.566  66.755  1.00  0.00    -0.272 A  
HETATM   10  C   UNL     1      -9.752  14.450  67.494  1.00  0.00    -0.215 A  
HETATM   11  C   UNL     1     -10.305  15.260  68.494  1.00  0.00    -0.231 A  
BRANCH   9  12
HETATM   12  C   UNL     1      -9.916  12.423  65.995  1.00  0.00    -0.255 C  
BRANCH  12  13
HETATM   13  N   UNL     1      -8.632  11.971  66.484  1.00  0.00    -0.340 N  
HETATM   14  H   UNL     1      -7.950  12.637  66.846  1.00  0.00     0.000 HD 
BRANCH  13  15
HETATM   15  C   UNL     1      -8.349  10.628  66.451  1.00  0.00    -0.151 C  
HETATM   16  O   UNL     1      -7.849  10.116  65.446  1.00  0.00    -0.131 OA 
BRANCH  15  17
HETATM   17  N   UNL     1      -8.622   9.889  67.609  1.00  0.00    -0.122 N  
BRANCH  17  18
HETATM   18  C   UNL     1      -9.703   8.875  67.453  1.00  0.00    -0.176 C  
BRANCH  18  19
HETATM   19  C   UNL     1      -9.297   7.424  67.733  1.00  0.00    -0.144 A  
HETATM   20  C   UNL     1      -8.223   5.057  68.739  1.00  0.00    -0.084 A  
HETATM   21  C   UNL     1     -10.084   6.571  68.521  1.00  0.00    -0.172 A  
HETATM   22  C   UNL     1      -9.531   5.403  69.051  1.00  0.00    -0.176 A  
HETATM   23  F   UNL     1      -7.655   4.003  69.347  1.00  0.00    -0.052 F  
HETATM   24  C   UNL     1      -7.481   5.808  67.840  1.00  0.00    -0.078 A  
HETATM   25  C   UNL     1      -8.025   6.981  67.315  1.00  0.00    -0.111 A  
ENDBRANCH  18  19
ENDBRANCH  17  18
BRANCH  17  26
HETATM   26  C   UNL     1      -8.086  10.202  68.985  1.00  0.00    -0.125 C  
HETATM   27  C   UNL     1      -7.230   9.110  69.653  1.00  0.00    -0.061 C  
HETATM   28  C   UNL     1      -7.359  11.573  69.155  1.00  0.00    -0.057 C  
HETATM   29  C   UNL     1      -5.157  10.544  71.179  1.00  0.00    -0.088 C  
HETATM   30  C   UNL     1      -5.765   9.193  69.257  1.00  0.00    -0.035 C  
HETATM   31  N   UNL     1      -5.162  10.439  69.720  1.00  0.00    -0.038 NA 
HETATM   32  C   UNL     1      -5.827  11.565  69.068  1.00  0.00    -0.049 C  
ENDBRANCH  17  26
ENDBRANCH  15  17
ENDBRANCH  13  15
ENDBRANCH  12  13
ENDBRANCH   9  12
ENDBRANCH   5   6
ENDBRANCH   4   5
TORSDOF 9
ENDMDL
MODEL      317
REMARK 921   NORMALIZED FREE ENERGY PREDICTED BY IDOCK:   -2.89 KCAL/MOL
REMARK 922        TOTAL FREE ENERGY PREDICTED BY IDOCK:   -5.88 KCAL/MOL
REMARK 923 INTER-LIGAND FREE ENERGY PREDICTED BY IDOCK:   -3.99 KCAL/MOL
REMARK 924 INTRA-LIGAND FREE ENERGY PREDICTED BY IDOCK:   -1.88 KCAL/MOL
REMARK 927      BINDING AFFINITY PREDICTED BY RF-SCORE:    0.00 PKD
ROOT
HETATM    1  C   UNL     1     -10.601  14.071  67.079  1.00  0.00    -0.279 C  
HETATM    2  C   UNL     1     -10.444  12.719  67.778  1.00  0.00    -0.228 C  
HETATM    3  C   UNL     1     -11.294  11.661  67.078  1.00  0.00    -0.373 C  
HETATM    4  C   UNL     1      -8.966  12.305  67.906  1.00  0.00    -0.186 C  
ENDROOT
BRANCH   4   5
HETATM    5  O   UNL     1      -8.325  12.116  66.636  1.00  0.00    -0.149 OA 
BRANCH   5   6
HETATM    6  C   UNL     1      -7.545  10.989  66.543  1.00  0.00    -0.146 A  
HETATM    7  C   UNL     1      -7.718   9.970  65.601  1.00  0.00    -0.136 A  
HETATM    8  C   UNL     1      -7.025   8.751  65.732  1.00  0.00    -0.076 A  
HETATM    9  C   UNL     1      -6.128   8.552  66.787  1.00  0.00    -0.054 A  
HETATM   10  C   UNL     1      -5.834   9.646  67.619  1.00  0.00    -0.044 A  
HETATM   11  C   UNL     1      -6.538  10.851  67.497  1.00  0.00    -0.063 A  
BRANCH   9  12
HETATM   12  C   UNL     1      -5.678   7.162  67.186  1.00  0.00    -0.025 C  
BRANCH  12  13
HETATM   13  N   UNL     1      -6.206   6.652  68.432  1.00  0.00    -0.029 N  
HETATM   14  H   UNL     1      -6.067   7.164  69.303  1.00  0.00     0.000 HD 
BRANCH  13  15
HETATM   15  C   UNL     1      -6.897   5.466  68.421  1.00  0.00    -0.056 C  
HETATM   16  O   UNL     1      -6.297   4.391  68.352  1.00  0.00    -0.034 OA 
BRANCH  15  17
HETATM   17  N   UNL     1      -8.292   5.540  68.524  1.00  0.00    -0.101 N  
BRANCH  17  18
HETATM   18  C   UNL     1      -8.963   6.195  67.366  1.00  0.00    -0.112 C  
BRANCH  18  19
HETATM   19  C   UNL     1      -9.089   5.339  66.101  1.00  0.00    -0.148 A  
HETATM   20  C   UNL     1      -9.711   4.275  63.601  1.00  0.00    -0.062 A  
HETATM   21  C   UNL     1      -8.171   5.433  65.045  1.00  0.00    -0.137 A  
HETATM   22  C   UNL     1      -8.500   4.929  63.785  1.00  0.00    -0.133 A  
HETATM   23  F   UNL     1     -10.080   3.901  62.365  1.00  0.00    -0.123 F  
HETATM   24  C   UNL     1     -10.565   4.039  64.668  1.00  0.00    -0.188 A  
HETATM   25  C   UNL     1     -10.245   4.550  65.927  1.00  0.00    -0.289 A  
ENDBRANCH  18  19
ENDBRANCH  17  18
BRANCH  17  26
HETATM   26  C   UNL     1      -9.089   5.229  69.769  1.00  0.00    -0.116 C  
HETATM   27  C   UNL     1      -9.588   3.781  69.921  1.00  0.00    -0.255 C  
HETATM   28  C   UNL     1      -8.465   5.681  71.127  1.00  0.00    -0.127 C  
HETATM   29  C   UNL     1      -9.448   3.187  72.804  1.00  0.00    -0.103 C  
HETATM   30  C   UNL     1      -8.556   2.872  70.569  1.00  0.00    -0.063 C  
HETATM   31  N   UNL     1      -8.272   3.286  71.938  1.00  0.00    -0.062 NA 
HETATM   32  C   UNL     1      -7.687   4.625  71.923  1.00  0.00    -0.097 C  
ENDBRANCH  17  26
ENDBRANCH  15  17
ENDBRANCH  13  15
ENDBRANCH  12  13
ENDBRANCH   9  12
ENDBRANCH   5   6
ENDBRANCH   4   5
TORSDOF 9
ENDMDL
MODEL      318
REMARK 921   NORMALIZED FREE ENERGY PREDICTED BY IDOCK:   -2.88 KCAL/MOL
REMARK 922        TOTAL FREE ENERGY PREDICTED BY IDOCK:   -5.87 KCAL/MOL
REMARK 923 INTER-LIGAND FREE ENERGY PREDICTED BY IDOCK:   -5.75 KCAL/MOL
REMARK 924 INTRA-LIGAND FREE ENERGY PREDICTED BY IDOCK:   -0.12 KCAL/MOL
REMARK 927      BINDING AFFINITY PREDICTED BY RF-SCORE:    0.00 PKD
ROOT
HETATM    1  C   UNL     1     -12.199   5.161  72.098  1.00  0.00     0.945 C  
HETATM    2  C   UNL     1     -10.859   5.092  72.832  1.00  0.00    -0.322 C  
HETATM    3  C   UNL     1     -10.296   3.674  72.770  1.00  0.00    -0.239 C  
HETATM    4  C   UNL     1      -9.863   6.149  72.316  1.00  0.00    -0.159 C  
ENDROOT
BRANCH   4   5
HETATM    5  O   UNL     1      -9.515   5.964  70.937  1.00  0.00    -0.162 OA 
BRANCH   5   6
HETATM    6  C   UNL     1      -9.077   7.096  70.293  1.00  0.00    -0.156 A  
HETATM    7  C   UNL     1      -8.133   7.118  69.262  1.00  0.00    -0.120 A  
HETATM    8  C   UNL     1      -7.575   8.336  68.830  1.00  0.00    -0.101 A  
HETATM    9  C   UNL     1      -7.979   9.548  69.402  1.00  0.00    -0.099 A  
HETATM   10  C   UNL     1      -9.052   9.523  70.310  1.00  0.00    -0.296 A  
HETATM   11  C   UNL     1      -9.593   8.308  70.751  1.00  0.00    -0.196 A  
BRANCH   9  12
HETATM   12  C   UNL     1      -7.145  10.804  69.258  1.00  0.00    -0.116 C  
BRANCH  12  13
HETATM   13  N   UNL     1      -7.873  12.031  69.023  1.00  0.00    -0.342 N  
HETATM   14  H   UNL     1      -7.751  12.834  69.640  1.00  0.00     0.000 HD 
BRANCH  13  15
HETATM   15  C   UNL     1      -8.733  12.094  67.954  1.00  0.00    -0.176 C  
HETATM   16  O   UNL     1      -8.725  11.214  67.090  1.00  0.00    -0.136 OA 
BRANCH  15  17
HETATM   17  N   UNL     1      -9.626  13.172  67.916  1.00  0.00    -0.211 N  
BRANCH  17  18
HETATM   18  C   UNL     1      -9.404  14.194  68.978  1.00  0.00     0.086 C  
BRANCH  18  19
HETATM   19  C   UNL     1     -10.612  14.498  69.869  1.00  0.00     0.057 A  
HETATM   20  C   UNL     1     -13.062  15.295  70.934  1.00  0.00    -0.464 A  
HETATM   21  C   UNL     1     -11.624  13.554  70.097  1.00  0.00    -0.190 A  
HETATM   22  C   UNL     1     -12.861  13.963  70.599  1.00  0.00    -0.291 A  
HETATM   23  F   UNL     1     -14.286  15.709  71.298  1.00  0.00    -0.535 F  
HETATM   24  C   UNL     1     -12.025  16.214  70.859  1.00  0.00    -0.269 A  
HETATM   25  C   UNL     1     -10.790  15.812  70.349  1.00  0.00    -0.345 A  
ENDBRANCH  18  19
ENDBRANCH  17  18
BRANCH  17  26
HETATM   26  C   UNL     1     -10.871  13.239  67.065  1.00  0.00    -0.269 C  
HETATM   27  C   UNL     1     -11.288  14.636  66.567  1.00  0.00    -0.353 C  
HETATM   28  C   UNL     1     -10.951  12.243  65.865  1.00  0.00    -0.338 C  
HETATM   29  C   UNL     1     -12.409  14.220  63.873  1.00  0.00    -0.133 C  
HETATM   30  C   UNL     1     -10.595  15.024  65.271  1.00  0.00    -0.397 C  
HETATM   31  N   UNL     1     -10.980  14.137  64.178  1.00  0.00    -0.063 NA 
HETATM   32  C   UNL     1     -10.541  12.778  64.486  1.00  0.00    -0.360 C  
ENDBRANCH  17  26
ENDBRANCH  15  17
ENDBRANCH  13  15
ENDBRANCH  12  13
ENDBRANCH   9  12
ENDBRANCH   5   6
ENDBRANCH   4   5
TORSDOF 9
ENDMDL
MODEL      319
REMARK 921   NORMALIZED FREE ENERGY PREDICTED BY IDOCK:   -2.87 KCAL/MOL
REMARK 922        TOTAL FREE ENERGY PREDICTED BY IDOCK:   -5.85 KCAL/MOL
REMARK 923 INTER-LIGAND FREE ENERGY PREDICTED BY IDOCK:   -4.10 KCAL/MOL
REMARK 924 INTRA-LIGAND FREE ENERGY PREDICTED BY IDOCK:   -1.74 KCAL/MOL
REMARK 927      BINDING AFFINITY PREDICTED BY RF-SCORE:    0.00 PKD
ROOT
HETATM    1  C   UNL     1      -6.528   2.118  71.835  1.00  0.00    -0.015 C  
HETATM    2  C   UNL     1      -7.340   2.192  70.541  1.00  0.00    -0.033 C  
HETATM    3  C   UNL     1      -8.475   3.204  70.687  1.00  0.00    -0.095 C  
HETATM    4  C   UNL     1      -6.449   2.472  69.316  1.00  0.00    -0.029 C  
ENDROOT
BRANCH   4   5
HETATM    5  O   UNL     1      -5.786   3.743  69.385  1.00  0.00    -0.016 OA 
BRANCH   5   6
HETATM    6  C   UNL     1      -6.353   4.734  68.620  1.00  0.00    -0.036 A  
HETATM    7  C   UNL     1      -6.441   6.079  68.989  1.00  0.00    -0.043 A  
HETATM    8  C   UNL     1      -7.244   6.971  68.252  1.00  0.00    -0.091 A  
HETATM    9  C   UNL     1      -7.941   6.533  67.120  1.00  0.00    -0.112 A  
HETATM   10  C   UNL     1      -7.701   5.226  66.662  1.00  0.00    -0.096 A  
HETATM   11  C   UNL     1      -6.916   4.336  67.408  1.00  0.00    -0.063 A  
BRANCH   9  12
HETATM   12  C   UNL     1      -9.095   7.329  66.548  1.00  0.00    -0.155 C  
BRANCH  12  13
HETATM   13  N   UNL     1     -10.065   7.822  67.502  1.00  0.00    -0.190 N  
HETATM   14  H   UNL     1     -10.583   7.175  68.096  1.00  0.00     0.000 HD 
BRANCH  13  15
HETATM   15  C   UNL     1     -10.275   9.176  67.590  1.00  0.00    -0.236 C  
HETATM   16  O   UNL     1     -10.711   9.807  66.624  1.00  0.00    -0.147 OA 
BRANCH  15  17
HETATM   17  N   UNL     1     -10.005   9.784  68.822  1.00  0.00    -0.163 N  
BRANCH  17  18
HETATM   18  C   UNL     1     -10.973   9.443  69.903  1.00  0.00    -0.229 C  
BRANCH  18  19
HETATM   19  C   UNL     1     -10.733   8.106  70.612  1.00  0.00    -0.238 A  
HETATM   20  C   UNL     1     -10.447   6.022  72.440  1.00  0.00    -0.201 A  
HETATM   21  C   UNL     1     -11.746   7.148  70.753  1.00  0.00    -0.363 A  
HETATM   22  C   UNL     1     -11.614   6.125  71.695  1.00  0.00    -0.317 A  
HETATM   23  F   UNL     1     -10.371   5.116  73.429  1.00  0.00    -0.175 F  
HETATM   24  C   UNL     1      -9.374   6.869  72.206  1.00  0.00    -0.148 A  
HETATM   25  C   UNL     1      -9.505   7.899  71.274  1.00  0.00    -0.184 A  
ENDBRANCH  18  19
ENDBRANCH  17  18
BRANCH  17  26
HETATM   26  C   UNL     1      -8.995  10.884  69.045  1.00  0.00    -0.094 C  
HETATM   27  C   UNL     1      -7.613  10.451  69.569  1.00  0.00    -0.158 C  
HETATM   28  C   UNL     1      -8.785  11.888  67.868  1.00  0.00    -0.167 C  
HETATM   29  C   UNL     1      -5.672  12.257  68.283  1.00  0.00    -0.057 C  
HETATM   30  C   UNL     1      -6.665  10.049  68.451  1.00  0.00    -0.055 C  
HETATM   31  N   UNL     1      -6.367  11.180  67.578  1.00  0.00    -0.061 NA 
HETATM   32  C   UNL     1      -7.599  11.624  66.930  1.00  0.00    -0.138 C  
ENDBRANCH  17  26
ENDBRANCH  15  17
ENDBRANCH  13  15
ENDBRANCH  12  13
ENDBRANCH   9  12
ENDBRANCH   5   6
ENDBRANCH   4   5
TORSDOF 9
ENDMDL
MODEL      320
REMARK 921   NORMALIZED FREE ENERGY PREDICTED BY IDOCK:   -2.86 KCAL/MOL
REMARK 922        TOTAL FREE ENERGY PREDICTED BY IDOCK:   -5.83 KCAL/MOL
REMARK 923 INTER-LIGAND FREE ENERGY PREDICTED BY IDOCK:   -4.72 KCAL/MOL
REMARK 924 INTRA-LIGAND FREE ENERGY PREDICTED BY IDOCK:   -1.11 KCAL/MOL
REMARK 927      BINDING AFFINITY PREDICTED BY RF-SCORE:    0.00 PKD
ROOT
HETATM    1  C   UNL     1      -6.911  19.674  69.263  1.00  0.00    -0.390 C  
HETATM    2  C   UNL     1      -6.735  18.707  68.090  1.00  0.00    -0.235 C  
HETATM    3  C   UNL     1      -5.252  18.439  67.844  1.00  0.00    -0.161 C  
HETATM    4  C   UNL     1      -7.548  17.413  68.283  1.00  0.00    -0.234 C  
ENDROOT
BRANCH   4   5
HETATM    5  O   UNL     1      -7.128  16.653  69.426  1.00  0.00    -0.232 OA 
BRANCH   5   6
HETATM    6  C   UNL     1      -6.599  15.418  69.138  1.00  0.00    -0.133 A  
HETATM    7  C   UNL     1      -6.344  14.936  67.851  1.00  0.00    -0.174 A  
HETATM    8  C   UNL     1      -6.026  13.579  67.646  1.00  0.00    -0.100 A  
HETATM    9  C   UNL     1      -5.929  12.699  68.730  1.00  0.00    -0.067 A  
HETATM   10  C   UNL     1      -6.014  13.236  70.026  1.00  0.00    -0.134 A  
HETATM   11  C   UNL     1      -6.347  14.582  70.225  1.00  0.00    -0.170 A  
BRANCH   9  12
HETATM   12  C   UNL     1      -5.985  11.199  68.533  1.00  0.00    -0.042 C  
BRANCH  12  13
HETATM   13  N   UNL     1      -7.206  10.545  68.948  1.00  0.00    -0.079 N  
HETATM   14  H   UNL     1      -8.024  11.092  69.215  1.00  0.00     0.000 HD 
BRANCH  13  15
HETATM   15  C   UNL     1      -7.243   9.172  68.976  1.00  0.00    -0.072 C  
HETATM   16  O   UNL     1      -6.263   8.526  69.354  1.00  0.00    -0.036 OA 
BRANCH  15  17
HETATM   17  N   UNL     1      -8.442   8.558  68.593  1.00  0.00    -0.130 N  
BRANCH  17  18
HETATM   18  C   UNL     1      -8.834   8.801  67.176  1.00  0.00    -0.127 C  
BRANCH  18  19
HETATM   19  C   UNL     1      -7.871   8.254  66.118  1.00  0.00    -0.098 A  
HETATM   20  C   UNL     1      -6.653   6.927  63.991  1.00  0.00    -0.039 A  
HETATM   21  C   UNL     1      -7.639   8.924  64.907  1.00  0.00    -0.108 A  
HETATM   22  C   UNL     1      -7.059   8.245  63.833  1.00  0.00    -0.087 A  
HETATM   23  F   UNL     1      -6.211   6.239  62.926  1.00  0.00    -0.025 F  
HETATM   24  C   UNL     1      -6.735   6.297  65.224  1.00  0.00    -0.047 A  
HETATM   25  C   UNL     1      -7.323   6.968  66.298  1.00  0.00    -0.076 A  
ENDBRANCH  18  19
ENDBRANCH  17  18
BRANCH  17  26
HETATM   26  C   UNL     1      -9.423   7.903  69.537  1.00  0.00    -0.160 C  
HETATM   27  C   UNL     1      -8.879   7.499  70.920  1.00  0.00    -0.144 C  
HETATM   28  C   UNL     1     -10.790   8.630  69.737  1.00  0.00    -0.185 C  
HETATM   29  C   UNL     1     -11.095   7.948  72.810  1.00  0.00    -0.400 C  
HETATM   30  C   UNL     1      -8.941   8.636  71.926  1.00  0.00    -0.231 C  
HETATM   31  N   UNL     1     -10.320   9.028  72.197  1.00  0.00    -0.249 NA 
HETATM   32  C   UNL     1     -10.924   9.537  70.967  1.00  0.00    -0.353 C  
ENDBRANCH  17  26
ENDBRANCH  15  17
ENDBRANCH  13  15
ENDBRANCH  12  13
ENDBRANCH   9  12
ENDBRANCH   5   6
ENDBRANCH   4   5
TORSDOF 9
ENDMDL
MODEL      321
REMARK 921   NORMALIZED FREE ENERGY PREDICTED BY IDOCK:   -2.73 KCAL/MOL
REMARK 922        TOTAL FREE ENERGY PREDICTED BY IDOCK:   -5.63 KCAL/MOL
REMARK 923 INTER-LIGAND FREE ENERGY PREDICTED BY IDOCK:   -3.99 KCAL/MOL
REMARK 924 INTRA-LIGAND FREE ENERGY PREDICTED BY IDOCK:   -1.64 KCAL/MOL
REMARK 927      BINDING AFFINITY PREDICTED BY RF-SCORE:    0.00 PKD
ROOT
HETATM    1  C   UNL     1     -10.588   8.478  66.865  1.00  0.00    -0.279 C  
HETATM    2  C   UNL     1      -9.675   9.393  66.048  1.00  0.00    -0.345 C  
HETATM    3  C   UNL     1     -10.478  10.547  65.454  1.00  0.00    -0.222 C  
HETATM    4  C   UNL     1      -8.460   9.873  66.865  1.00  0.00    -0.125 C  
ENDROOT
BRANCH   4   5
HETATM    5  O   UNL     1      -8.829  10.672  67.999  1.00  0.00    -0.126 OA 
BRANCH   5   6
HETATM    6  C   UNL     1      -8.270  10.277  69.191  1.00  0.00    -0.152 A  
HETATM    7  C   UNL     1      -6.950  10.528  69.579  1.00  0.00    -0.114 A  
HETATM    8  C   UNL     1      -6.402   9.885  70.706  1.00  0.00    -0.086 A  
HETATM    9  C   UNL     1      -7.179   9.009  71.474  1.00  0.00    -0.036 A  
HETATM   10  C   UNL     1      -8.548   8.905  71.174  1.00  0.00    -0.263 A  
HETATM   11  C   UNL     1      -9.085   9.533  70.042  1.00  0.00    -0.255 A  
BRANCH   9  12
HETATM   12  C   UNL     1      -6.540   8.018  72.424  1.00  0.00    -0.075 C  
BRANCH  12  13
HETATM   13  N   UNL     1      -5.814   6.925  71.815  1.00  0.00    -0.037 N  
HETATM   14  H   UNL     1      -4.810   6.821  71.965  1.00  0.00     0.000 HD 
BRANCH  13  15
HETATM   15  C   UNL     1      -6.501   6.032  71.031  1.00  0.00    -0.045 C  
HETATM   16  O   UNL     1      -6.810   6.323  69.873  1.00  0.00    -0.054 OA 
BRANCH  15  17
HETATM   17  N   UNL     1      -6.796   4.784  71.593  1.00  0.00    -0.042 N  
BRANCH  17  18
HETATM   18  C   UNL     1      -7.132   4.826  73.045  1.00  0.00    -0.079 C  
BRANCH  18  19
HETATM   19  C   UNL     1      -8.625   4.757  73.383  1.00  0.00    -0.102 A  
HETATM   20  C   UNL     1     -11.411   4.673  73.343  1.00  0.00    -0.305 A  
HETATM   21  C   UNL     1      -9.297   3.536  73.537  1.00  0.00    -0.120 A  
HETATM   22  C   UNL     1     -10.691   3.493  73.482  1.00  0.00    -0.307 A  
HETATM   23  F   UNL     1     -12.741   4.620  73.166  1.00  0.00    -0.183 F  
HETATM   24  C   UNL     1     -10.771   5.904  73.342  1.00  0.00    -0.293 A  
HETATM   25  C   UNL     1      -9.377   5.950  73.386  1.00  0.00    -0.134 A  
ENDBRANCH  18  19
ENDBRANCH  17  18
BRANCH  17  26
HETATM   26  C   UNL     1      -6.574   3.452  70.918  1.00  0.00    -0.031 C  
HETATM   27  C   UNL     1      -7.765   2.876  70.129  1.00  0.00    -0.044 C  
HETATM   28  C   UNL     1      -5.291   3.321  70.039  1.00  0.00    -0.008 C  
HETATM   29  C   UNL     1      -6.591   1.505  67.800  1.00  0.00    -0.028 C  
HETATM   30  C   UNL     1      -7.823   3.392  68.700  1.00  0.00    -0.054 C  
HETATM   31  N   UNL     1      -6.659   2.960  67.934  1.00  0.00    -0.036 NA 
HETATM   32  C   UNL     1      -5.454   3.535  68.528  1.00  0.00    -0.013 C  
ENDBRANCH  17  26
ENDBRANCH  15  17
ENDBRANCH  13  15
ENDBRANCH  12  13
ENDBRANCH   9  12
ENDBRANCH   5   6
ENDBRANCH   4   5
TORSDOF 9
ENDMDL
MODEL      322
REMARK 921   NORMALIZED FREE ENERGY PREDICTED BY IDOCK:   -2.50 KCAL/MOL
REMARK 922        TOTAL FREE ENERGY PREDICTED BY IDOCK:   -5.29 KCAL/MOL
REMARK 923 INTER-LIGAND FREE ENERGY PREDICTED BY IDOCK:   -5.71 KCAL/MOL
REMARK 924 INTRA-LIGAND FREE ENERGY PREDICTED BY IDOCK:    0.42 KCAL/MOL
REMARK 927      BINDING AFFINITY PREDICTED BY RF-SCORE:    0.00 PKD
ROOT
HETATM    1  C   UNL     1      -5.209  18.780  67.780  1.00  0.00    -0.170 C  
HETATM    2  C   UNL     1      -6.435  19.611  67.402  1.00  0.00    -0.216 C  
HETATM    3  C   UNL     1      -6.097  20.559  66.253  1.00  0.00    -0.241 C  
HETATM    4  C   UNL     1      -7.661  18.728  67.101  1.00  0.00    -0.230 C  
ENDROOT
BRANCH   4   5
HETATM    5  O   UNL     1      -7.464  17.863  65.973  1.00  0.00    -0.386 OA 
BRANCH   5   6
HETATM    6  C   UNL     1      -7.821  16.552  66.179  1.00  0.00    -0.099 A  
HETATM    7  C   UNL     1      -8.914  15.916  65.582  1.00  0.00     0.133 A  
HETATM    8  C   UNL     1      -9.338  14.651  66.032  1.00  0.00    -0.216 A  
HETATM    9  C   UNL     1      -8.653  13.995  67.062  1.00  0.00    -0.193 A  
HETATM   10  C   UNL     1      -7.456  14.567  67.527  1.00  0.00    -0.216 A  
HETATM   11  C   UNL     1      -7.048  15.834  67.090  1.00  0.00    -0.225 A  
BRANCH   9  12
HETATM   12  C   UNL     1      -9.288  12.854  67.828  1.00  0.00    -0.203 C  
BRANCH  12  13
HETATM   13  N   UNL     1     -10.665  12.554  67.502  1.00  0.00    -0.222 N  
HETATM   14  H   UNL     1     -10.937  12.345  66.541  1.00  0.00     0.000 HD 
BRANCH  13  15
HETATM   15  C   UNL     1     -11.598  12.555  68.509  1.00  0.00    -0.321 C  
HETATM   16  O   UNL     1     -12.117  11.500  68.884  1.00  0.00    -0.386 OA 
BRANCH  15  17
HETATM   17  N   UNL     1     -11.897  13.788  69.100  1.00  0.00    -0.334 N  
BRANCH  17  18
HETATM   18  C   UNL     1     -12.134  14.895  68.131  1.00  0.00    -0.085 C  
BRANCH  18  19
HETATM   19  C   UNL     1     -11.198  16.101  68.258  1.00  0.00    -0.343 A  
HETATM   20  C   UNL     1      -9.948  18.503  68.920  1.00  0.00    -0.347 A  
HETATM   21  C   UNL     1     -10.116  16.112  69.151  1.00  0.00    -0.252 A  
HETATM   22  C   UNL     1      -9.515  17.321  69.506  1.00  0.00     0.355 A  
HETATM   23  F   UNL     1      -9.455  19.675  69.352  1.00  0.00    -0.405 F  
HETATM   24  C   UNL     1     -10.912  18.494  67.922  1.00  0.00    -0.089 A  
HETATM   25  C   UNL     1     -11.523  17.289  67.572  1.00  0.00     0.640 A  
ENDBRANCH  18  19
ENDBRANCH  17  18
BRANCH  17  26
HETATM   26  C   UNL     1     -11.768  14.101  70.572  1.00  0.00    -0.216 C  
HETATM   27  C   UNL     1     -12.253  15.491  71.024  1.00  0.00    -0.449 C  
HETATM   28  C   UNL     1     -12.332  13.035  71.564  1.00  0.00    -0.014 C  
HETATM   29  C   UNL     1     -13.425  15.096  73.698  1.00  0.00     0.433 C  
HETATM   30  C   UNL     1     -13.742  15.519  71.329  1.00  0.00    -0.395 C  
HETATM   31  N   UNL     1     -14.066  14.655  72.459  1.00  0.00    -0.495 NA 
HETATM   32  C   UNL     1     -13.745  13.272  72.112  1.00  0.00    -0.526 C  
ENDBRANCH  17  26
ENDBRANCH  15  17
ENDBRANCH  13  15
ENDBRANCH  12  13
ENDBRANCH   9  12
ENDBRANCH   5   6
ENDBRANCH   4   5
TORSDOF 9
ENDMDL
MODEL      323
REMARK 921   NORMALIZED FREE ENERGY PREDICTED BY IDOCK:   -2.43 KCAL/MOL
REMARK 922        TOTAL FREE ENERGY PREDICTED BY IDOCK:   -5.18 KCAL/MOL
REMARK 923 INTER-LIGAND FREE ENERGY PREDICTED BY IDOCK:   -5.99 KCAL/MOL
REMARK 924 INTRA-LIGAND FREE ENERGY PREDICTED BY IDOCK:    0.80 KCAL/MOL
REMARK 927      BINDING AFFINITY PREDICTED BY RF-SCORE:    0.00 PKD
ROOT
HETATM    1  C   UNL     1      -8.848  11.866  66.609  1.00  0.00    -0.191 C  
HETATM    2  C   UNL     1      -8.016  10.653  66.187  1.00  0.00    -0.151 C  
HETATM    3  C   UNL     1      -7.578   9.860  67.416  1.00  0.00    -0.091 C  
HETATM    4  C   UNL     1      -8.750   9.784  65.149  1.00  0.00    -0.168 C  
ENDROOT
BRANCH   4   5
HETATM    5  O   UNL     1      -9.965   9.213  65.656  1.00  0.00    -0.232 OA 
BRANCH   5   6
HETATM    6  C   UNL     1      -9.792   8.183  66.549  1.00  0.00    -0.239 A  
HETATM    7  C   UNL     1      -9.165   6.967  66.259  1.00  0.00    -0.157 A  
HETATM    8  C   UNL     1      -9.245   5.889  67.161  1.00  0.00    -0.116 A  
HETATM    9  C   UNL     1      -9.925   6.026  68.377  1.00  0.00    -0.173 A  
HETATM   10  C   UNL     1     -10.395   7.303  68.730  1.00  0.00    -0.209 A  
HETATM   11  C   UNL     1     -10.330   8.368  67.822  1.00  0.00    -0.297 A  
BRANCH   9  12
HETATM   12  C   UNL     1     -10.367   4.816  69.173  1.00  0.00     0.063 C  
BRANCH  12  13
HETATM   13  N   UNL     1      -9.949   4.774  70.557  1.00  0.00    -0.228 N  
HETATM   14  H   UNL     1      -9.221   4.127  70.860  1.00  0.00     0.000 HD 
BRANCH  13  15
HETATM   15  C   UNL     1     -10.552   5.620  71.454  1.00  0.00    -0.253 C  
HETATM   16  O   UNL     1     -11.780   5.720  71.495  1.00  0.00    -0.104 OA 
BRANCH  15  17
HETATM   17  N   UNL     1      -9.714   6.325  72.327  1.00  0.00    -0.156 N  
BRANCH  17  18
HETATM   18  C   UNL     1     -10.397   7.395  73.108  1.00  0.00    -0.334 C  
BRANCH  18  19
HETATM   19  C   UNL     1     -11.141   8.449  72.282  1.00  0.00    -0.438 A  
HETATM   20  C   UNL     1     -12.319  10.765  71.273  1.00  0.00    -0.365 A  
HETATM   21  C   UNL     1     -10.508   9.178  71.264  1.00  0.00    -0.398 A  
HETATM   22  C   UNL     1     -11.085  10.356  70.785  1.00  0.00    -0.197 A  
HETATM   23  F   UNL     1     -12.814  11.958  70.905  1.00  0.00    -0.384 F  
HETATM   24  C   UNL     1     -13.030   9.979  72.168  1.00  0.00    -0.460 A  
HETATM   25  C   UNL     1     -12.453   8.806  72.656  1.00  0.00    -0.270 A  
ENDBRANCH  18  19
ENDBRANCH  17  18
BRANCH  17  26
HETATM   26  C   UNL     1      -8.207   6.233  72.350  1.00  0.00    -0.107 C  
HETATM   27  C   UNL     1      -7.608   4.888  72.801  1.00  0.00    -0.092 C  
HETATM   28  C   UNL     1      -7.460   6.697  71.060  1.00  0.00    -0.084 C  
HETATM   29  C   UNL     1      -5.178   4.512  71.178  1.00  0.00    -0.003 C  
HETATM   30  C   UNL     1      -7.475   3.895  71.659  1.00  0.00    -0.056 C  
HETATM   31  N   UNL     1      -6.535   4.372  70.650  1.00  0.00    -0.029 NA 
HETATM   32  C   UNL     1      -7.049   5.607  70.061  1.00  0.00    -0.067 C  
ENDBRANCH  17  26
ENDBRANCH  15  17
ENDBRANCH  13  15
ENDBRANCH  12  13
ENDBRANCH   9  12
ENDBRANCH   5   6
ENDBRANCH   4   5
TORSDOF 9
ENDMDL
MODEL      324
REMARK 921   NORMALIZED FREE ENERGY PREDICTED BY IDOCK:   -2.43 KCAL/MOL
REMARK 922        TOTAL FREE ENERGY PREDICTED BY IDOCK:   -5.17 KCAL/MOL
REMARK 923 INTER-LIGAND FREE ENERGY PREDICTED BY IDOCK:   -4.62 KCAL/MOL
REMARK 924 INTRA-LIGAND FREE ENERGY PREDICTED BY IDOCK:   -0.55 KCAL/MOL
REMARK 927      BINDING AFFINITY PREDICTED BY RF-SCORE:    0.00 PKD
ROOT
HETATM    1  C   UNL     1      -5.893  19.225  70.409  1.00  0.00    -0.229 C  
HETATM    2  C   UNL     1      -5.361  18.085  69.539  1.00  0.00    -0.200 C  
HETATM    3  C   UNL     1      -5.144  16.832  70.385  1.00  0.00    -0.215 C  
HETATM    4  C   UNL     1      -6.259  17.826  68.315  1.00  0.00    -0.176 C  
ENDROOT
BRANCH   4   5
HETATM    5  O   UNL     1      -7.583  17.404  68.671  1.00  0.00    -0.246 OA 
BRANCH   5   6
HETATM    6  C   UNL     1      -7.850  16.076  68.436  1.00  0.00    -0.149 A  
HETATM    7  C   UNL     1      -8.882  15.348  69.036  1.00  0.00    -0.231 A  
HETATM    8  C   UNL     1      -8.930  13.945  68.916  1.00  0.00     0.101 A  
HETATM    9  C   UNL     1      -7.966  13.261  68.167  1.00  0.00    -0.150 A  
HETATM   10  C   UNL     1      -7.043  14.021  67.428  1.00  0.00    -0.096 A  
HETATM   11  C   UNL     1      -6.986  15.414  67.565  1.00  0.00    -0.223 A  
BRANCH   9  12
HETATM   12  C   UNL     1      -7.750  11.772  68.334  1.00  0.00    -0.131 C  
BRANCH  12  13
HETATM   13  N   UNL     1      -8.629  11.100  69.266  1.00  0.00    -0.381 N  
HETATM   14  H   UNL     1      -8.284  10.793  70.176  1.00  0.00     0.000 HD 
BRANCH  13  15
HETATM   15  C   UNL     1      -9.935  10.883  68.903  1.00  0.00    -0.196 C  
HETATM   16  O   UNL     1     -10.835  11.605  69.339  1.00  0.00    -0.196 OA 
BRANCH  15  17
HETATM   17  N   UNL     1     -10.182   9.840  68.001  1.00  0.00    -0.179 N  
BRANCH  17  18
HETATM   18  C   UNL     1      -9.890   8.480  68.536  1.00  0.00    -0.173 C  
BRANCH  18  19
HETATM   19  C   UNL     1     -10.651   8.089  69.806  1.00  0.00    -0.238 A  
HETATM   20  C   UNL     1     -11.686   7.867  72.385  1.00  0.00    -0.367 A  
HETATM   21  C   UNL     1     -11.915   8.617  70.108  1.00  0.00     0.399 A  
HETATM   22  C   UNL     1     -12.415   8.533  71.409  1.00  0.00    -0.327 A  
HETATM   23  F   UNL     1     -12.107   7.894  73.660  1.00  0.00     0.447 F  
HETATM   24  C   UNL     1     -10.507   7.207  72.070  1.00  0.00    -0.232 A  
HETATM   25  C   UNL     1      -9.998   7.296  70.773  1.00  0.00    -0.187 A  
ENDBRANCH  18  19
ENDBRANCH  17  18
BRANCH  17  26
HETATM   26  C   UNL     1     -10.480  10.015  66.531  1.00  0.00    -0.153 C  
HETATM   27  C   UNL     1     -11.265  11.279  66.136  1.00  0.00    -0.133 C  
HETATM   28  C   UNL     1      -9.275   9.856  65.551  1.00  0.00    -0.255 C  
HETATM   29  C   UNL     1     -10.181  12.108  63.524  1.00  0.00    -0.424 C  
HETATM   30  C   UNL     1     -10.363  12.482  65.915  1.00  0.00    -0.263 C  
HETATM   31  N   UNL     1      -9.462  12.268  64.788  1.00  0.00     0.114 NA 
HETATM   32  C   UNL     1      -8.578  11.143  65.088  1.00  0.00     0.069 C  
ENDBRANCH  17  26
ENDBRANCH  15  17
ENDBRANCH  13  15
ENDBRANCH  12  13
ENDBRANCH   9  12
ENDBRANCH   5   6
ENDBRANCH   4   5
TORSDOF 9
ENDMDL
MODEL      325
REMARK 921   NORMALIZED FREE ENERGY PREDICTED BY IDOCK:   -2.11 KCAL/MOL
REMARK 922        TOTAL FREE ENERGY PREDICTED BY IDOCK:   -4.69 KCAL/MOL
REMARK 923 INTER-LIGAND FREE ENERGY PREDICTED BY IDOCK:   -4.02 KCAL/MOL
REMARK 924 INTRA-LIGAND FREE ENERGY PREDICTED BY IDOCK:   -0.67 KCAL/MOL
REMARK 927      BINDING AFFINITY PREDICTED BY RF-SCORE:    0.00 PKD
ROOT
HETATM    1  C   UNL     1     -10.275   9.254  68.310  1.00  0.00    -0.236 C  
HETATM    2  C   UNL     1     -11.157  10.483  68.080  1.00  0.00    -0.346 C  
HETATM    3  C   UNL     1     -11.195  11.348  69.338  1.00  0.00    -0.333 C  
HETATM    4  C   UNL     1     -10.731  11.273  66.829  1.00  0.00    -0.275 C  
ENDROOT
BRANCH   4   5
HETATM    5  O   UNL     1      -9.404  11.811  66.932  1.00  0.00    -0.183 OA 
BRANCH   5   6
HETATM    6  C   UNL     1      -8.396  10.927  66.629  1.00  0.00    -0.143 A  
HETATM    7  C   UNL     1      -8.248  10.270  65.404  1.00  0.00    -0.156 A  
HETATM    8  C   UNL     1      -7.329   9.211  65.268  1.00  0.00    -0.092 A  
HETATM    9  C   UNL     1      -6.527   8.822  66.347  1.00  0.00    -0.062 A  
HETATM   10  C   UNL     1      -6.562   9.605  67.513  1.00  0.00    -0.070 A  
HETATM   11  C   UNL     1      -7.490  10.646  67.651  1.00  0.00    -0.091 A  
BRANCH   9  12
HETATM   12  C   UNL     1      -5.836   7.474  66.368  1.00  0.00    -0.036 C  
BRANCH  12  13
HETATM   13  N   UNL     1      -6.682   6.319  66.162  1.00  0.00    -0.054 N  
HETATM   14  H   UNL     1      -7.243   6.230  65.314  1.00  0.00     0.000 HD 
BRANCH  13  15
HETATM   15  C   UNL     1      -6.716   5.345  67.129  1.00  0.00    -0.059 C  
HETATM   16  O   UNL     1      -5.670   4.864  67.571  1.00  0.00    -0.016 OA 
BRANCH  15  17
HETATM   17  N   UNL     1      -7.977   4.959  67.602  1.00  0.00    -0.094 N  
BRANCH  17  18
HETATM   18  C   UNL     1      -9.106   5.290  66.688  1.00  0.00    -0.122 C  
BRANCH  18  19
HETATM   19  C   UNL     1      -9.478   4.205  65.671  1.00  0.00    -0.177 A  
HETATM   20  C   UNL     1      -9.692   2.528  63.455  1.00  0.00    -0.117 A  
HETATM   21  C   UNL     1      -8.878   2.938  65.684  1.00  0.00    -0.136 A  
HETATM   22  C   UNL     1      -8.959   2.114  64.559  1.00  0.00    -0.118 A  
HETATM   23  F   UNL     1      -9.667   1.793  62.331  1.00  0.00    -0.087 F  
HETATM   24  C   UNL     1     -10.417   3.710  63.482  1.00  0.00    -0.255 A  
HETATM   25  C   UNL     1     -10.331   4.541  64.600  1.00  0.00     0.059 A  
ENDBRANCH  18  19
ENDBRANCH  17  18
BRANCH  17  26
HETATM   26  C   UNL     1      -8.268   4.473  69.001  1.00  0.00    -0.080 C  
HETATM   27  C   UNL     1      -7.104   4.538  70.007  1.00  0.00    -0.049 C  
HETATM   28  C   UNL     1      -9.546   5.051  69.688  1.00  0.00    -0.240 C  
HETATM   29  C   UNL     1      -8.327   5.212  72.602  1.00  0.00    -0.113 C  
HETATM   30  C   UNL     1      -6.996   5.892  70.689  1.00  0.00    -0.062 C  
HETATM   31  N   UNL     1      -8.174   6.169  71.505  1.00  0.00    -0.118 NA 
HETATM   32  C   UNL     1      -9.350   6.238  70.640  1.00  0.00    -0.162 C  
ENDBRANCH  17  26
ENDBRANCH  15  17
ENDBRANCH  13  15
ENDBRANCH  12  13
ENDBRANCH   9  12
ENDBRANCH   5   6
ENDBRANCH   4   5
TORSDOF 9
ENDMDL
MODEL      326
REMARK 921   NORMALIZED FREE ENERGY PREDICTED BY IDOCK:   -1.28 KCAL/MOL
REMARK 922        TOTAL FREE ENERGY PREDICTED BY IDOCK:   -3.42 KCAL/MOL
REMARK 923 INTER-LIGAND FREE ENERGY PREDICTED BY IDOCK:   -4.21 KCAL/MOL
REMARK 924 INTRA-LIGAND FREE ENERGY PREDICTED BY IDOCK:    0.79 KCAL/MOL
REMARK 927      BINDING AFFINITY PREDICTED BY RF-SCORE:    0.00 PKD
ROOT
HETATM    1  C   UNL     1      -7.560  14.676  70.012  1.00  0.00     0.294 C  
HETATM    2  C   UNL     1      -6.197  15.187  69.545  1.00  0.00    -0.125 C  
HETATM    3  C   UNL     1      -5.386  15.693  70.736  1.00  0.00    -0.131 C  
HETATM    4  C   UNL     1      -5.439  14.133  68.715  1.00  0.00    -0.083 C  
ENDROOT
BRANCH   4   5
HETATM    5  O   UNL     1      -5.129  12.949  69.463  1.00  0.00    -0.074 OA 
BRANCH   5   6
HETATM    6  C   UNL     1      -6.034  11.924  69.326  1.00  0.00    -0.079 A  
HETATM    7  C   UNL     1      -7.165  11.958  68.505  1.00  0.00    -0.100 A  
HETATM    8  C   UNL     1      -8.154  10.961  68.610  1.00  0.00    -0.143 A  
HETATM    9  C   UNL     1      -8.006   9.903  69.514  1.00  0.00    -0.149 A  
HETATM   10  C   UNL     1      -6.786   9.789  70.202  1.00  0.00    -0.109 A  
HETATM   11  C   UNL     1      -5.812  10.792  70.109  1.00  0.00    -0.093 A  
BRANCH   9  12
HETATM   12  C   UNL     1      -9.189   9.057  69.935  1.00  0.00    -0.173 C  
BRANCH  12  13
HETATM   13  N   UNL     1      -8.967   7.629  69.987  1.00  0.00    -0.143 N  
HETATM   14  H   UNL     1      -8.992   7.131  70.877  1.00  0.00     0.000 HD 
BRANCH  13  15
HETATM   15  C   UNL     1      -8.721   6.956  68.816  1.00  0.00    -0.129 C  
HETATM   16  O   UNL     1      -7.683   6.304  68.673  1.00  0.00    -0.097 OA 
BRANCH  15  17
HETATM   17  N   UNL     1      -9.707   7.020  67.824  1.00  0.00    -0.133 N  
BRANCH  17  18
HETATM   18  C   UNL     1     -10.759   8.048  68.065  1.00  0.00    -0.047 C  
BRANCH  18  19
HETATM   19  C   UNL     1     -10.704   9.281  67.158  1.00  0.00    -0.222 A  
HETATM   20  C   UNL     1     -10.159  11.732  65.948  1.00  0.00    -0.234 A  
HETATM   21  C   UNL     1      -9.858   9.345  66.041  1.00  0.00    -0.366 A  
HETATM   22  C   UNL     1      -9.561  10.579  65.458  1.00  0.00    -0.282 A  
HETATM   23  F   UNL     1      -9.779  12.928  65.470  1.00  0.00    -0.251 F  
HETATM   24  C   UNL     1     -11.114  11.671  66.952  1.00  0.00    -0.365 A  
HETATM   25  C   UNL     1     -11.407  10.441  67.544  1.00  0.00    -0.112 A  
ENDBRANCH  18  19
ENDBRANCH  17  18
BRANCH  17  26
HETATM   26  C   UNL     1      -9.890   6.013  66.714  1.00  0.00    -0.163 C  
HETATM   27  C   UNL     1      -8.784   5.961  65.644  1.00  0.00    -0.149 C  
HETATM   28  C   UNL     1     -10.225   4.551  67.148  1.00  0.00    -0.096 C  
HETATM   29  C   UNL     1      -8.544   3.125  64.880  1.00  0.00    -0.101 C  
HETATM   30  C   UNL     1      -7.631   5.053  66.038  1.00  0.00    -0.087 C  
HETATM   31  N   UNL     1      -8.067   3.666  66.154  1.00  0.00    -0.092 NA 
HETATM   32  C   UNL     1      -9.056   3.560  67.224  1.00  0.00    -0.170 C  
ENDBRANCH  17  26
ENDBRANCH  15  17
ENDBRANCH  13  15
ENDBRANCH  12  13
ENDBRANCH   9  12
ENDBRANCH   5   6
ENDBRANCH   4   5
TORSDOF 9
ENDMDL
MODEL      327
REMARK 921   NORMALIZED FREE ENERGY PREDICTED BY IDOCK:   -1.23 KCAL/MOL
REMARK 922        TOTAL FREE ENERGY PREDICTED BY IDOCK:   -3.34 KCAL/MOL
REMARK 923 INTER-LIGAND FREE ENERGY PREDICTED BY IDOCK:   -2.53 KCAL/MOL
REMARK 924 INTRA-LIGAND FREE ENERGY PREDICTED BY IDOCK:   -0.81 KCAL/MOL
REMARK 927      BINDING AFFINITY PREDICTED BY RF-SCORE:    0.00 PKD
ROOT
HETATM    1  C   UNL     1      -8.001  15.077  70.134  1.00  0.00     0.477 C  
HETATM    2  C   UNL     1      -6.623  15.299  69.506  1.00  0.00    -0.164 C  
HETATM    3  C   UNL     1      -5.577  15.524  70.596  1.00  0.00    -0.094 C  
HETATM    4  C   UNL     1      -6.240  14.162  68.541  1.00  0.00    -0.093 C  
ENDROOT
BRANCH   4   5
HETATM    5  O   UNL     1      -6.125  12.889  69.192  1.00  0.00    -0.080 OA 
BRANCH   5   6
HETATM    6  C   UNL     1      -6.591  11.821  68.463  1.00  0.00    -0.059 A  
HETATM    7  C   UNL     1      -7.526  10.886  68.919  1.00  0.00    -0.116 A  
HETATM    8  C   UNL     1      -7.762   9.701  68.195  1.00  0.00    -0.086 A  
HETATM    9  C   UNL     1      -7.091   9.455  66.993  1.00  0.00    -0.086 A  
HETATM   10  C   UNL     1      -6.291  10.481  66.461  1.00  0.00    -0.094 A  
HETATM   11  C   UNL     1      -6.043  11.651  67.192  1.00  0.00    -0.130 A  
BRANCH   9  12
HETATM   12  C   UNL     1      -7.014   8.062  66.405  1.00  0.00    -0.070 C  
BRANCH  12  13
HETATM   13  N   UNL     1      -8.277   7.404  66.153  1.00  0.00    -0.123 N  
HETATM   14  H   UNL     1      -9.157   7.855  66.403  1.00  0.00     0.000 HD 
BRANCH  13  15
HETATM   15  C   UNL     1      -8.270   6.160  65.572  1.00  0.00    -0.144 C  
HETATM   16  O   UNL     1      -8.244   6.041  64.345  1.00  0.00    -0.131 OA 
BRANCH  15  17
HETATM   17  N   UNL     1      -8.257   5.054  66.431  1.00  0.00    -0.108 N  
BRANCH  17  18
HETATM   18  C   UNL     1      -7.399   5.220  67.638  1.00  0.00    -0.076 C  
BRANCH  18  19
HETATM   19  C   UNL     1      -8.119   5.112  68.986  1.00  0.00    -0.085 A  
HETATM   20  C   UNL     1      -9.970   4.895  71.059  1.00  0.00    -0.212 A  
HETATM   21  C   UNL     1      -8.327   3.879  69.621  1.00  0.00    -0.078 A  
HETATM   22  C   UNL     1      -9.280   3.767  70.636  1.00  0.00    -0.201 A  
HETATM   23  F   UNL     1     -10.970   4.764  71.945  1.00  0.00    -0.208 F  
HETATM   24  C   UNL     1      -9.669   6.149  70.549  1.00  0.00    -0.203 A  
HETATM   25  C   UNL     1      -8.726   6.264  69.527  1.00  0.00    -0.132 A  
ENDBRANCH  18  19
ENDBRANCH  17  18
BRANCH  17  26
HETATM   26  C   UNL     1      -8.837   3.697  66.110  1.00  0.00    -0.127 C  
HETATM   27  C   UNL     1     -10.333   3.658  65.746  1.00  0.00     0.450 C  
HETATM   28  C   UNL     1      -8.054   2.833  65.071  1.00  0.00    -0.083 C  
HETATM   29  C   UNL     1     -10.600   1.561  63.693  1.00  0.00    -0.055 C  
HETATM   30  C   UNL     1     -10.582   3.919  64.270  1.00  0.00    -0.223 C  
HETATM   31  N   UNL     1      -9.997   2.870  63.441  1.00  0.00    -0.119 NA 
HETATM   32  C   UNL     1      -8.546   2.873  63.619  1.00  0.00    -0.086 C  
ENDBRANCH  17  26
ENDBRANCH  15  17
ENDBRANCH  13  15
ENDBRANCH  12  13
ENDBRANCH   9  12
ENDBRANCH   5   6
ENDBRANCH   4   5
TORSDOF 9
ENDMDL
MODEL      328
REMARK 921   NORMALIZED FREE ENERGY PREDICTED BY IDOCK:   -1.17 KCAL/MOL
REMARK 922        TOTAL FREE ENERGY PREDICTED BY IDOCK:   -3.25 KCAL/MOL
REMARK 923 INTER-LIGAND FREE ENERGY PREDICTED BY IDOCK:   -2.27 KCAL/MOL
REMARK 924 INTRA-LIGAND FREE ENERGY PREDICTED BY IDOCK:   -0.97 KCAL/MOL
REMARK 927      BINDING AFFINITY PREDICTED BY RF-SCORE:    0.00 PKD
ROOT
HETATM    1  C   UNL     1      -8.679   9.308  72.421  1.00  0.00     1.155 C  
HETATM    2  C   UNL     1      -7.974   8.537  71.304  1.00  0.00    -0.158 C  
HETATM    3  C   UNL     1      -7.872   7.057  71.667  1.00  0.00    -0.098 C  
HETATM    4  C   UNL     1      -8.641   8.767  69.935  1.00  0.00    -0.133 C  
ENDROOT
BRANCH   4   5
HETATM    5  O   UNL     1      -9.995   8.294  69.884  1.00  0.00    -0.185 OA 
BRANCH   5   6
HETATM    6  C   UNL     1     -10.211   7.251  69.016  1.00  0.00    -0.197 A  
HETATM    7  C   UNL     1      -9.847   5.923  69.252  1.00  0.00    -0.205 A  
HETATM    8  C   UNL     1      -9.895   4.973  68.213  1.00  0.00    -0.211 A  
HETATM    9  C   UNL     1     -10.338   5.336  66.936  1.00  0.00    -0.303 A  
HETATM   10  C   UNL     1     -10.866   6.627  66.763  1.00  0.00    -0.322 A  
HETATM   11  C   UNL     1     -10.800   7.574  67.794  1.00  0.00    -0.156 A  
BRANCH   9  12
HETATM   12  C   UNL     1     -10.036   4.479  65.725  1.00  0.00    -0.255 C  
BRANCH  12  13
HETATM   13  N   UNL     1      -8.725   4.642  65.137  1.00  0.00    -0.134 N  
HETATM   14  H   UNL     1      -7.895   4.697  65.726  1.00  0.00     0.000 HD 
BRANCH  13  15
HETATM   15  C   UNL     1      -8.621   4.724  63.770  1.00  0.00    -0.133 C  
HETATM   16  O   UNL     1      -9.610   4.550  63.054  1.00  0.00    -0.108 OA 
BRANCH  15  17
HETATM   17  N   UNL     1      -7.363   5.045  63.245  1.00  0.00    -0.048 N  
BRANCH  17  18
HETATM   18  C   UNL     1      -6.391   3.914  63.238  1.00  0.00    -0.022 C  
BRANCH  18  19
HETATM   19  C   UNL     1      -6.192   3.202  64.579  1.00  0.00    -0.023 A  
HETATM   20  C   UNL     1      -6.268   2.350  67.232  1.00  0.00    -0.028 A  
HETATM   21  C   UNL     1      -6.934   2.067  64.936  1.00  0.00    -0.043 A  
HETATM   22  C   UNL     1      -6.997   1.663  66.271  1.00  0.00    -0.042 A  
HETATM   23  F   UNL     1      -6.426   2.040  68.530  1.00  0.00    -0.027 F  
HETATM   24  C   UNL     1      -5.410   3.380  66.876  1.00  0.00    -0.012 A  
HETATM   25  C   UNL     1      -5.351   3.793  65.545  1.00  0.00    -0.009 A  
ENDBRANCH  18  19
ENDBRANCH  17  18
BRANCH  17  26
HETATM   26  C   UNL     1      -6.884   6.441  62.924  1.00  0.00    -0.042 C  
HETATM   27  C   UNL     1      -7.908   7.576  63.110  1.00  0.00    -0.133 C  
HETATM   28  C   UNL     1      -5.535   6.881  63.573  1.00  0.00    -0.032 C  
HETATM   29  C   UNL     1      -6.363   9.891  64.078  1.00  0.00    -0.126 C  
HETATM   30  C   UNL     1      -7.941   8.105  64.535  1.00  0.00    -0.142 C  
HETATM   31  N   UNL     1      -6.670   8.720  64.900  1.00  0.00    -0.069 NA 
HETATM   32  C   UNL     1      -5.618   7.706  64.864  1.00  0.00    -0.033 C  
ENDBRANCH  17  26
ENDBRANCH  15  17
ENDBRANCH  13  15
ENDBRANCH  12  13
ENDBRANCH   9  12
ENDBRANCH   5   6
ENDBRANCH   4   5
TORSDOF 9
ENDMDL
MODEL      329
REMARK 921   NORMALIZED FREE ENERGY PREDICTED BY IDOCK:    0.21 KCAL/MOL
REMARK 922        TOTAL FREE ENERGY PREDICTED BY IDOCK:   -1.15 KCAL/MOL
REMARK 923 INTER-LIGAND FREE ENERGY PREDICTED BY IDOCK:   -4.53 KCAL/MOL
REMARK 924 INTRA-LIGAND FREE ENERGY PREDICTED BY IDOCK:    3.38 KCAL/MOL
REMARK 927      BINDING AFFINITY PREDICTED BY RF-SCORE:    0.00 PKD
ROOT
HETATM    1  C   UNL     1      -7.304  10.251  62.354  1.00  0.00    -0.153 C  
HETATM    2  C   UNL     1      -8.752  10.088  62.819  1.00  0.00    -0.215 C  
HETATM    3  C   UNL     1      -8.792   9.476  64.218  1.00  0.00    -0.247 C  
HETATM    4  C   UNL     1      -9.540  11.408  62.726  1.00  0.00    -0.257 C  
ENDROOT
BRANCH   4   5
HETATM    5  O   UNL     1      -9.014  12.435  63.580  1.00  0.00     0.490 OA 
BRANCH   5   6
HETATM    6  C   UNL     1      -9.491  12.417  64.868  1.00  0.00     0.240 A  
HETATM    7  C   UNL     1      -8.915  11.708  65.927  1.00  0.00    -0.111 A  
HETATM    8  C   UNL     1      -9.604  11.561  67.146  1.00  0.00    -0.189 A  
HETATM    9  C   UNL     1     -10.861  12.149  67.330  1.00  0.00    -0.286 A  
HETATM   10  C   UNL     1     -11.344  13.002  66.324  1.00  0.00    -0.354 A  
HETATM   11  C   UNL     1     -10.665  13.132  65.105  1.00  0.00    -0.329 A  
BRANCH   9  12
HETATM   12  C   UNL     1     -11.786  11.697  68.441  1.00  0.00    -0.307 C  
BRANCH  12  13
HETATM   13  N   UNL     1     -11.857  10.271  68.674  1.00  0.00    -0.476 N  
HETATM   14  H   UNL     1     -12.325   9.659  68.006  1.00  0.00     0.000 HD 
BRANCH  13  15
HETATM   15  C   UNL     1     -11.283   9.759  69.810  1.00  0.00    -0.202 C  
HETATM   16  O   UNL     1     -11.506  10.269  70.911  1.00  0.00    -0.338 OA 
BRANCH  15  17
HETATM   17  N   UNL     1     -10.473   8.626  69.661  1.00  0.00    -0.219 N  
BRANCH  17  18
HETATM   18  C   UNL     1     -10.765   7.815  68.445  1.00  0.00    -0.036 C  
BRANCH  18  19
HETATM   19  C   UNL     1      -9.543   7.350  67.648  1.00  0.00    -0.164 A  
HETATM   20  C   UNL     1      -7.761   6.422  65.714  1.00  0.00    -0.092 A  
HETATM   21  C   UNL     1      -8.721   8.250  66.954  1.00  0.00    -0.141 A  
HETATM   22  C   UNL     1      -7.855   7.785  65.962  1.00  0.00    -0.100 A  
HETATM   23  F   UNL     1      -7.023   5.986  64.680  1.00  0.00    -0.046 F  
HETATM   24  C   UNL     1      -8.452   5.505  66.494  1.00  0.00    -0.113 A  
HETATM   25  C   UNL     1      -9.327   5.966  67.479  1.00  0.00    -0.110 A  
ENDBRANCH  18  19
ENDBRANCH  17  18
BRANCH  17  26
HETATM   26  C   UNL     1      -9.540   8.079  70.715  1.00  0.00    -0.162 C  
HETATM   27  C   UNL     1      -8.846   6.743  70.392  1.00  0.00    -0.152 C  
HETATM   28  C   UNL     1      -8.471   9.067  71.280  1.00  0.00    -0.196 C  
HETATM   29  C   UNL     1      -6.157   6.932  71.584  1.00  0.00    -0.038 C  
HETATM   30  C   UNL     1      -7.560   6.930  69.603  1.00  0.00    -0.101 C  
HETATM   31  N   UNL     1      -6.564   7.659  70.380  1.00  0.00    -0.038 NA 
HETATM   32  C   UNL     1      -7.066   9.001  70.666  1.00  0.00    -0.084 C  
ENDBRANCH  17  26
ENDBRANCH  15  17
ENDBRANCH  13  15
ENDBRANCH  12  13
ENDBRANCH   9  12
ENDBRANCH   5   6
ENDBRANCH   4   5
TORSDOF 9
ENDMDL
MODEL      330
REMARK 921   NORMALIZED FREE ENERGY PREDICTED BY IDOCK:    0.24 KCAL/MOL
REMARK 922        TOTAL FREE ENERGY PREDICTED BY IDOCK:   -1.09 KCAL/MOL
REMARK 923 INTER-LIGAND FREE ENERGY PREDICTED BY IDOCK:   -2.03 KCAL/MOL
REMARK 924 INTRA-LIGAND FREE ENERGY PREDICTED BY IDOCK:    0.94 KCAL/MOL
REMARK 927      BINDING AFFINITY PREDICTED BY RF-SCORE:    0.00 PKD
ROOT
HETATM    1  C   UNL     1      -9.118  18.161  69.688  1.00  0.00     0.851 C  
HETATM    2  C   UNL     1     -10.615  17.931  69.479  1.00  0.00     0.508 C  
HETATM    3  C   UNL     1     -11.078  18.600  68.186  1.00  0.00     0.348 C  
HETATM    4  C   UNL     1     -10.982  16.436  69.538  1.00  0.00    -0.317 C  
ENDROOT
BRANCH   4   5
HETATM    5  O   UNL     1     -10.363  15.666  68.498  1.00  0.00    -0.213 OA 
BRANCH   5   6
HETATM    6  C   UNL     1     -10.800  14.367  68.400  1.00  0.00    -0.248 A  
HETATM    7  C   UNL     1     -10.414  13.325  69.250  1.00  0.00     0.164 A  
HETATM    8  C   UNL     1     -10.726  11.990  68.931  1.00  0.00    -0.222 A  
HETATM    9  C   UNL     1     -11.455  11.685  67.775  1.00  0.00    -0.373 A  
HETATM   10  C   UNL     1     -11.985  12.752  67.029  1.00  0.00    -0.364 A  
HETATM   11  C   UNL     1     -11.658  14.078  67.340  1.00  0.00    -0.397 A  
BRANCH   9  12
HETATM   12  C   UNL     1     -11.467  10.285  67.198  1.00  0.00     0.582 C  
BRANCH  12  13
HETATM   13  N   UNL     1     -10.606   9.320  67.846  1.00  0.00    -0.342 N  
HETATM   14  H   UNL     1     -10.987   8.446  68.210  1.00  0.00     0.000 HD 
BRANCH  13  15
HETATM   15  C   UNL     1      -9.268   9.602  67.961  1.00  0.00    -0.125 C  
HETATM   16  O   UNL     1      -8.855  10.326  68.870  1.00  0.00    -0.138 OA 
BRANCH  15  17
HETATM   17  N   UNL     1      -8.408   9.007  67.029  1.00  0.00    -0.115 N  
BRANCH  17  18
HETATM   18  C   UNL     1      -7.539   7.934  67.589  1.00  0.00    -0.109 C  
BRANCH  18  19
HETATM   19  C   UNL     1      -8.187   7.042  68.653  1.00  0.00    -0.122 A  
HETATM   20  C   UNL     1      -8.807   5.074  70.527  1.00  0.00    -0.121 A  
HETATM   21  C   UNL     1      -8.058   7.308  70.024  1.00  0.00    -0.130 A  
HETATM   22  C   UNL     1      -8.338   6.308  70.958  1.00  0.00    -0.124 A  
HETATM   23  F   UNL     1      -8.956   4.077  71.414  1.00  0.00    -0.119 F  
HETATM   24  C   UNL     1      -9.084   4.845  69.188  1.00  0.00    -0.144 A  
HETATM   25  C   UNL     1      -8.797   5.837  68.249  1.00  0.00    -0.109 A  
ENDBRANCH  18  19
ENDBRANCH  17  18
BRANCH  17  26
HETATM   26  C   UNL     1      -8.154   9.519  65.631  1.00  0.00    -0.112 C  
HETATM   27  C   UNL     1      -6.772  10.146  65.370  1.00  0.00    -0.121 C  
HETATM   28  C   UNL     1      -8.480   8.539  64.460  1.00  0.00    -0.108 C  
HETATM   29  C   UNL     1      -6.066   9.402  62.607  1.00  0.00    -0.093 C  
HETATM   30  C   UNL     1      -5.723   9.113  64.993  1.00  0.00    -0.058 C  
HETATM   31  N   UNL     1      -6.052   8.462  63.729  1.00  0.00    -0.071 NA 
HETATM   32  C   UNL     1      -7.310   7.733  63.878  1.00  0.00    -0.096 C  
ENDBRANCH  17  26
ENDBRANCH  15  17
ENDBRANCH  13  15
ENDBRANCH  12  13
ENDBRANCH   9  12
ENDBRANCH   5   6
ENDBRANCH   4   5
TORSDOF 9
ENDMDL
MODEL      331
REMARK 921   NORMALIZED FREE ENERGY PREDICTED BY IDOCK:    0.30 KCAL/MOL
REMARK 922        TOTAL FREE ENERGY PREDICTED BY IDOCK:   -1.01 KCAL/MOL
REMARK 923 INTER-LIGAND FREE ENERGY PREDICTED BY IDOCK:   -2.53 KCAL/MOL
REMARK 924 INTRA-LIGAND FREE ENERGY PREDICTED BY IDOCK:    1.52 KCAL/MOL
REMARK 927      BINDING AFFINITY PREDICTED BY RF-SCORE:    0.00 PKD
ROOT
HETATM    1  C   UNL     1     -10.016   8.626  67.748  1.00  0.00    -0.240 C  
HETATM    2  C   UNL     1     -10.990   9.804  67.679  1.00  0.00    -0.226 C  
HETATM    3  C   UNL     1     -10.830  10.694  68.910  1.00  0.00    -0.272 C  
HETATM    4  C   UNL     1     -10.856  10.586  66.359  1.00  0.00    -0.024 C  
ENDROOT
BRANCH   4   5
HETATM    5  O   UNL     1      -9.565  11.192  66.196  1.00  0.00    -0.196 OA 
BRANCH   5   6
HETATM    6  C   UNL     1      -8.504  10.323  66.277  1.00  0.00    -0.135 A  
HETATM    7  C   UNL     1      -8.219   9.316  65.350  1.00  0.00    -0.129 A  
HETATM    8  C   UNL     1      -7.256   8.330  65.639  1.00  0.00    -0.071 A  
HETATM    9  C   UNL     1      -6.545   8.360  66.844  1.00  0.00    -0.058 A  
HETATM   10  C   UNL     1      -6.716   9.474  67.684  1.00  0.00    -0.063 A  
HETATM   11  C   UNL     1      -7.688  10.443  67.402  1.00  0.00    -0.095 A  
BRANCH   9  12
HETATM   12  C   UNL     1      -5.814   7.137  67.358  1.00  0.00    -0.025 C  
BRANCH  12  13
HETATM   13  N   UNL     1      -6.626   5.968  67.614  1.00  0.00    -0.054 N  
HETATM   14  H   UNL     1      -7.324   5.661  66.937  1.00  0.00     0.000 HD 
BRANCH  13  15
HETATM   15  C   UNL     1      -6.440   5.280  68.788  1.00  0.00    -0.039 C  
HETATM   16  O   UNL     1      -5.305   4.978  69.165  1.00  0.00    -0.003 OA 
BRANCH  15  17
HETATM   17  N   UNL     1      -7.583   4.975  69.537  1.00  0.00    -0.057 N  
BRANCH  17  18
HETATM   18  C   UNL     1      -8.867   5.141  68.798  1.00  0.00    -0.093 C  
BRANCH  18  19
HETATM   19  C   UNL     1      -9.120   4.134  67.671  1.00  0.00    -0.164 A  
HETATM   20  C   UNL     1      -9.337   2.785  65.242  1.00  0.00    -0.097 A  
HETATM   21  C   UNL     1      -8.172   3.164  67.315  1.00  0.00    -0.083 A  
HETATM   22  C   UNL     1      -8.266   2.515  66.082  1.00  0.00    -0.088 A  
HETATM   23  F   UNL     1      -9.361   2.255  64.008  1.00  0.00    -0.099 F  
HETATM   24  C   UNL     1     -10.364   3.627  65.643  1.00  0.00     0.370 A  
HETATM   25  C   UNL     1     -10.270   4.286  66.869  1.00  0.00     0.027 A  
ENDBRANCH  18  19
ENDBRANCH  17  18
BRANCH  17  26
HETATM   26  C   UNL     1      -7.606   4.732  71.027  1.00  0.00    -0.076 C  
HETATM   27  C   UNL     1      -8.980   4.825  71.716  1.00  0.00    -0.154 C  
HETATM   28  C   UNL     1      -6.885   3.445  71.536  1.00  0.00    -0.031 C  
HETATM   29  C   UNL     1      -8.946   2.784  73.842  1.00  0.00    -0.075 C  
HETATM   30  C   UNL     1      -9.746   3.513  71.669  1.00  0.00    -0.163 C  
HETATM   31  N   UNL     1      -9.054   2.469  72.416  1.00  0.00    -0.078 NA 
HETATM   32  C   UNL     1      -7.759   2.210  71.790  1.00  0.00    -0.041 C  
ENDBRANCH  17  26
ENDBRANCH  15  17
ENDBRANCH  13  15
ENDBRANCH  12  13
ENDBRANCH   9  12
ENDBRANCH   5   6
ENDBRANCH   4   5
TORSDOF 9
ENDMDL
MODEL      332
REMARK 921   NORMALIZED FREE ENERGY PREDICTED BY IDOCK:    2.09 KCAL/MOL
REMARK 922        TOTAL FREE ENERGY PREDICTED BY IDOCK:    1.72 KCAL/MOL
REMARK 923 INTER-LIGAND FREE ENERGY PREDICTED BY IDOCK:   -1.39 KCAL/MOL
REMARK 924 INTRA-LIGAND FREE ENERGY PREDICTED BY IDOCK:    3.11 KCAL/MOL
REMARK 927      BINDING AFFINITY PREDICTED BY RF-SCORE:    0.00 PKD
ROOT
HETATM    1  C   UNL     1      -9.122  18.160  69.693  1.00  0.00     0.851 C  
HETATM    2  C   UNL     1     -10.625  17.944  69.508  1.00  0.00     0.508 C  
HETATM    3  C   UNL     1     -11.101  18.614  68.221  1.00  0.00     0.502 C  
HETATM    4  C   UNL     1     -11.007  16.453  69.578  1.00  0.00    -0.317 C  
ENDROOT
BRANCH   4   5
HETATM    5  O   UNL     1     -10.412  15.674  68.530  1.00  0.00    -0.227 OA 
BRANCH   5   6
HETATM    6  C   UNL     1     -10.866  14.380  68.442  1.00  0.00    -0.248 A  
HETATM    7  C   UNL     1     -10.475  13.335  69.284  1.00  0.00     0.164 A  
HETATM    8  C   UNL     1     -10.809  12.002  68.972  1.00  0.00    -0.223 A  
HETATM    9  C   UNL     1     -11.564  11.706  67.831  1.00  0.00    -0.369 A  
HETATM   10  C   UNL     1     -12.096  12.778  67.095  1.00  0.00    -0.236 A  
HETATM   11  C   UNL     1     -11.748  14.101  67.398  1.00  0.00    -0.422 A  
BRANCH   9  12
HETATM   12  C   UNL     1     -11.603  10.306  67.256  1.00  0.00     0.836 C  
BRANCH  12  13
HETATM   13  N   UNL     1     -10.740   9.331  67.886  1.00  0.00    -0.420 N  
HETATM   14  H   UNL     1     -10.697   8.373  67.538  1.00  0.00     0.000 HD 
BRANCH  13  15
HETATM   15  C   UNL     1      -9.980   9.721  68.960  1.00  0.00    -0.184 C  
HETATM   16  O   UNL     1     -10.470   9.769  70.091  1.00  0.00    -0.247 OA 
BRANCH  15  17
HETATM   17  N   UNL     1      -8.634  10.021  68.715  1.00  0.00    -0.125 N  
BRANCH  17  18
HETATM   18  C   UNL     1      -7.670   9.022  69.258  1.00  0.00    -0.090 C  
BRANCH  18  19
HETATM   19  C   UNL     1      -8.115   7.559  69.180  1.00  0.00    -0.123 A  
HETATM   20  C   UNL     1      -8.310   4.778  69.244  1.00  0.00    -0.080 A  
HETATM   21  C   UNL     1      -8.764   6.920  70.247  1.00  0.00    -0.144 A  
HETATM   22  C   UNL     1      -8.829   5.526  70.292  1.00  0.00    -0.140 A  
HETATM   23  F   UNL     1      -8.262   3.440  69.345  1.00  0.00    -0.055 F  
HETATM   24  C   UNL     1      -7.802   5.395  68.110  1.00  0.00    -0.092 A  
HETATM   25  C   UNL     1      -7.725   6.788  68.065  1.00  0.00    -0.112 A  
ENDBRANCH  18  19
ENDBRANCH  17  18
BRANCH  17  26
HETATM   26  C   UNL     1      -8.121  11.334  68.175  1.00  0.00    -0.134 C  
HETATM   27  C   UNL     1      -7.354  12.231  69.164  1.00  0.00     0.091 C  
HETATM   28  C   UNL     1      -7.316  11.272  66.838  1.00  0.00    -0.145 C  
HETATM   29  C   UNL     1      -5.243  13.542  67.580  1.00  0.00     0.022 C  
HETATM   30  C   UNL     1      -5.875  11.886  69.238  1.00  0.00    -0.072 C  
HETATM   31  N   UNL     1      -5.210  12.130  67.962  1.00  0.00    -0.054 NA 
HETATM   32  C   UNL     1      -5.786  11.251  66.946  1.00  0.00    -0.107 C  
ENDBRANCH  17  26
ENDBRANCH  15  17
ENDBRANCH  13  15
ENDBRANCH  12  13
ENDBRANCH   9  12
ENDBRANCH   5   6
ENDBRANCH   4   5
TORSDOF 9
ENDMDL
MODEL      333
REMARK 921   NORMALIZED FREE ENERGY PREDICTED BY IDOCK:    2.23 KCAL/MOL
REMARK 922        TOTAL FREE ENERGY PREDICTED BY IDOCK:    1.94 KCAL/MOL
REMARK 923 INTER-LIGAND FREE ENERGY PREDICTED BY IDOCK:   -1.50 KCAL/MOL
REMARK 924 INTRA-LIGAND FREE ENERGY PREDICTED BY IDOCK:    3.44 KCAL/MOL
REMARK 927      BINDING AFFINITY PREDICTED BY RF-SCORE:    0.00 PKD
ROOT
HETATM    1  C   UNL     1     -12.212  17.803  72.728  1.00  0.00     3.455 C  
HETATM    2  C   UNL     1     -11.650  16.455  73.181  1.00  0.00     0.012 C  
HETATM    3  C   UNL     1     -12.621  15.773  74.142  1.00  0.00    -0.761 C  
HETATM    4  C   UNL     1     -11.269  15.558  71.987  1.00  0.00    -0.251 C  
ENDROOT
BRANCH   4   5
HETATM    5  O   UNL     1     -12.395  15.209  71.169  1.00  0.00    -0.291 OA 
BRANCH   5   6
HETATM    6  C   UNL     1     -12.563  13.861  70.960  1.00  0.00    -0.371 A  
HETATM    7  C   UNL     1     -13.105  12.968  71.889  1.00  0.00    -0.483 A  
HETATM    8  C   UNL     1     -13.019  11.578  71.678  1.00  0.00    -0.499 A  
HETATM    9  C   UNL     1     -12.418  11.069  70.521  1.00  0.00    -0.432 A  
HETATM   10  C   UNL     1     -12.039  11.979  69.520  1.00  0.00    -0.273 A  
HETATM   11  C   UNL     1     -12.109  13.360  69.740  1.00  0.00    -0.374 A  
BRANCH   9  12
HETATM   12  C   UNL     1     -11.958   9.628  70.442  1.00  0.00    -0.106 C  
BRANCH  12  13
HETATM   13  N   UNL     1     -10.531   9.408  70.535  1.00  0.00    -0.252 N  
HETATM   14  H   UNL     1     -10.133   8.912  71.332  1.00  0.00     0.000 HD 
BRANCH  13  15
HETATM   15  C   UNL     1      -9.725   9.878  69.528  1.00  0.00    -0.220 C  
HETATM   16  O   UNL     1     -10.215  10.380  68.514  1.00  0.00    -0.160 OA 
BRANCH  15  17
HETATM   17  N   UNL     1      -8.341   9.791  69.726  1.00  0.00    -0.162 N  
BRANCH  17  18
HETATM   18  C   UNL     1      -7.917   8.699  70.648  1.00  0.00    -0.110 C  
BRANCH  18  19
HETATM   19  C   UNL     1      -8.591   7.342  70.424  1.00  0.00    -0.144 A  
HETATM   20  C   UNL     1     -10.079   5.176  69.493  1.00  0.00    -0.246 A  
HETATM   21  C   UNL     1      -7.966   6.311  69.708  1.00  0.00    -0.118 A  
HETATM   22  C   UNL     1      -8.721   5.245  69.214  1.00  0.00    -0.108 A  
HETATM   23  F   UNL     1     -10.826   4.221  68.916  1.00  0.00     0.540 F  
HETATM   24  C   UNL     1     -10.684   6.105  70.327  1.00  0.00    -0.355 A  
HETATM   25  C   UNL     1      -9.936   7.177  70.815  1.00  0.00    -0.194 A  
ENDBRANCH  18  19
ENDBRANCH  17  18
BRANCH  17  26
HETATM   26  C   UNL     1      -7.332  10.821  69.278  1.00  0.00    -0.129 C  
HETATM   27  C   UNL     1      -6.148  10.304  68.440  1.00  0.00    -0.044 C  
HETATM   28  C   UNL     1      -7.902  12.102  68.591  1.00  0.00    -0.078 C  
HETATM   29  C   UNL     1      -5.561  12.434  66.490  1.00  0.00     0.881 C  
HETATM   30  C   UNL     1      -6.471  10.233  66.956  1.00  0.00    -0.073 C  
HETATM   31  N   UNL     1      -6.731  11.559  66.407  1.00  0.00    -0.017 NA 
HETATM   32  C   UNL     1      -7.913  12.124  67.057  1.00  0.00    -0.138 C  
ENDBRANCH  17  26
ENDBRANCH  15  17
ENDBRANCH  13  15
ENDBRANCH  12  13
ENDBRANCH   9  12
ENDBRANCH   5   6
ENDBRANCH   4   5
TORSDOF 9
ENDMDL
MODEL      334
REMARK 921   NORMALIZED FREE ENERGY PREDICTED BY IDOCK:    4.05 KCAL/MOL
REMARK 922        TOTAL FREE ENERGY PREDICTED BY IDOCK:    4.72 KCAL/MOL
REMARK 923 INTER-LIGAND FREE ENERGY PREDICTED BY IDOCK:   -1.39 KCAL/MOL
REMARK 924 INTRA-LIGAND FREE ENERGY PREDICTED BY IDOCK:    6.11 KCAL/MOL
REMARK 927      BINDING AFFINITY PREDICTED BY RF-SCORE:    0.00 PKD
ROOT
HETATM    1  C   UNL     1      -7.189  10.295  62.349  1.00  0.00    -0.153 C  
HETATM    2  C   UNL     1      -8.685  10.389  62.651  1.00  0.00    -0.236 C  
HETATM    3  C   UNL     1      -9.001   9.697  63.975  1.00  0.00    -0.261 C  
HETATM    4  C   UNL     1      -9.192  11.843  62.606  1.00  0.00     0.699 C  
ENDROOT
BRANCH   4   5
HETATM    5  O   UNL     1      -8.583  12.680  63.600  1.00  0.00     1.889 OA 
BRANCH   5   6
HETATM    6  C   UNL     1      -9.108  12.553  64.864  1.00  0.00     0.863 A  
HETATM    7  C   UNL     1      -8.654  11.655  65.834  1.00  0.00     0.065 A  
HETATM    8  C   UNL     1      -9.401  11.434  67.008  1.00  0.00    -0.183 A  
HETATM    9  C   UNL     1     -10.591  12.132  67.237  1.00  0.00    -0.255 A  
HETATM   10  C   UNL     1     -10.940  13.156  66.339  1.00  0.00    -0.305 A  
HETATM   11  C   UNL     1     -10.205  13.361  65.164  1.00  0.00    -0.316 A  
BRANCH   9  12
HETATM   12  C   UNL     1     -11.602  11.651  68.257  1.00  0.00    -0.310 C  
BRANCH  12  13
HETATM   13  N   UNL     1     -11.757  10.219  68.378  1.00  0.00    -0.477 N  
HETATM   14  H   UNL     1     -12.193   9.678  67.630  1.00  0.00     0.000 HD 
BRANCH  13  15
HETATM   15  C   UNL     1     -11.305   9.599  69.517  1.00  0.00    -0.040 C  
HETATM   16  O   UNL     1     -11.737   9.930  70.624  1.00  0.00    -0.284 OA 
BRANCH  15  17
HETATM   17  N   UNL     1     -10.372   8.568  69.356  1.00  0.00    -0.213 N  
BRANCH  17  18
HETATM   18  C   UNL     1     -10.569   7.408  70.271  1.00  0.00    -0.231 C  
BRANCH  18  19
HETATM   19  C   UNL     1      -9.496   7.222  71.348  1.00  0.00    -0.165 A  
HETATM   20  C   UNL     1      -7.706   6.246  73.249  1.00  0.00    -0.099 A  
HETATM   21  C   UNL     1      -8.140   7.067  71.026  1.00  0.00    -0.105 A  
HETATM   22  C   UNL     1      -7.253   6.546  71.971  1.00  0.00    -0.086 A  
HETATM   23  F   UNL     1      -6.884   5.631  74.115  1.00  0.00    -0.075 F  
HETATM   24  C   UNL     1      -9.008   6.535  73.631  1.00  0.00    -0.140 A  
HETATM   25  C   UNL     1      -9.901   7.046  72.687  1.00  0.00    -0.186 A  
ENDBRANCH  18  19
ENDBRANCH  17  18
BRANCH  17  26
HETATM   26  C   UNL     1      -9.113   8.657  68.527  1.00  0.00    -0.138 C  
HETATM   27  C   UNL     1      -8.129   7.478  68.644  1.00  0.00    -0.124 C  
HETATM   28  C   UNL     1      -9.296   8.998  67.014  1.00  0.00    -0.190 C  
HETATM   29  C   UNL     1      -6.965   7.139  65.958  1.00  0.00    -0.065 C  
HETATM   30  C   UNL     1      -8.463   6.341  67.693  1.00  0.00    -0.116 C  
HETATM   31  N   UNL     1      -8.337   6.761  66.301  1.00  0.00    -0.120 NA 
HETATM   32  C   UNL     1      -9.306   7.821  66.030  1.00  0.00    -0.037 C  
ENDBRANCH  17  26
ENDBRANCH  15  17
ENDBRANCH  13  15
ENDBRANCH  12  13
ENDBRANCH   9  12
ENDBRANCH   5   6
ENDBRANCH   4   5
TORSDOF 9
ENDMDL
MODEL      335
REMARK 921   NORMALIZED FREE ENERGY PREDICTED BY IDOCK:    4.31 KCAL/MOL
REMARK 922        TOTAL FREE ENERGY PREDICTED BY IDOCK:    5.11 KCAL/MOL
REMARK 923 INTER-LIGAND FREE ENERGY PREDICTED BY IDOCK:   -0.38 KCAL/MOL
REMARK 924 INTRA-LIGAND FREE ENERGY PREDICTED BY IDOCK:    5.49 KCAL/MOL
REMARK 927      BINDING AFFINITY PREDICTED BY RF-SCORE:    0.00 PKD
ROOT
HETATM    1  C   UNL     1     -13.001  13.206  68.381  1.00  0.00     2.151 C  
HETATM    2  C   UNL     1     -12.602  14.676  68.245  1.00  0.00     0.508 C  
HETATM    3  C   UNL     1     -11.794  15.119  69.463  1.00  0.00    -0.358 C  
HETATM    4  C   UNL     1     -11.874  14.955  66.916  1.00  0.00    -0.187 C  
ENDROOT
BRANCH   4   5
HETATM    5  O   UNL     1     -10.632  14.245  66.798  1.00  0.00    -0.275 OA 
BRANCH   5   6
HETATM    6  C   UNL     1     -10.708  12.899  67.063  1.00  0.00    -0.257 A  
HETATM    7  C   UNL     1     -11.893  12.193  67.292  1.00  0.00    -0.293 A  
HETATM    8  C   UNL     1     -11.855  10.874  67.786  1.00  0.00     0.117 A  
HETATM    9  C   UNL     1     -10.631  10.239  68.025  1.00  0.00    -0.272 A  
HETATM   10  C   UNL     1      -9.456  10.897  67.624  1.00  0.00    -0.170 A  
HETATM   11  C   UNL     1      -9.497  12.215  67.150  1.00  0.00    -0.190 A  
BRANCH   9  12
HETATM   12  C   UNL     1     -10.541   9.010  68.906  1.00  0.00    -0.180 C  
BRANCH  12  13
HETATM   13  N   UNL     1      -9.221   8.661  69.384  1.00  0.00    -0.149 N  
HETATM   14  H   UNL     1      -8.510   8.315  68.740  1.00  0.00     0.000 HD 
BRANCH  13  15
HETATM   15  C   UNL     1      -8.944   8.805  70.721  1.00  0.00    -0.192 C  
HETATM   16  O   UNL     1      -8.672   9.913  71.190  1.00  0.00     0.155 OA 
BRANCH  15  17
HETATM   17  N   UNL     1      -9.018   7.653  71.515  1.00  0.00    -0.130 N  
BRANCH  17  18
HETATM   18  C   UNL     1      -7.746   6.884  71.606  1.00  0.00    -0.095 C  
BRANCH  18  19
HETATM   19  C   UNL     1      -7.650   5.649  70.705  1.00  0.00    -0.090 A  
HETATM   20  C   UNL     1      -6.836   3.433  69.222  1.00  0.00    -0.041 A  
HETATM   21  C   UNL     1      -7.869   4.353  71.194  1.00  0.00    -0.072 A  
HETATM   22  C   UNL     1      -7.430   3.246  70.463  1.00  0.00    -0.040 A  
HETATM   23  F   UNL     1      -6.304   2.381  68.579  1.00  0.00    -0.027 F  
HETATM   24  C   UNL     1      -6.749   4.696  68.655  1.00  0.00    -0.050 A  
HETATM   25  C   UNL     1      -7.177   5.805  69.385  1.00  0.00    -0.066 A  
ENDBRANCH  18  19
ENDBRANCH  17  18
BRANCH  17  26
HETATM   26  C   UNL     1     -10.294   7.053  72.057  1.00  0.00    -0.198 C  
HETATM   27  C   UNL     1     -11.470   8.022  72.276  1.00  0.00    -0.419 C  
HETATM   28  C   UNL     1     -10.831   5.781  71.327  1.00  0.00    -0.313 C  
HETATM   29  C   UNL     1     -13.899   6.489  71.617  1.00  0.00     0.287 C  
HETATM   30  C   UNL     1     -12.305   8.220  71.021  1.00  0.00    -0.133 C  
HETATM   31  N   UNL     1     -12.951   6.977  70.614  1.00  0.00     0.027 NA 
HETATM   32  C   UNL     1     -11.926   5.993  70.273  1.00  0.00     0.572 C  
ENDBRANCH  17  26
ENDBRANCH  15  17
ENDBRANCH  13  15
ENDBRANCH  12  13
ENDBRANCH   9  12
ENDBRANCH   5   6
ENDBRANCH   4   5
TORSDOF 9
ENDMDL
MODEL      336
REMARK 921   NORMALIZED FREE ENERGY PREDICTED BY IDOCK:    4.87 KCAL/MOL
REMARK 922        TOTAL FREE ENERGY PREDICTED BY IDOCK:    5.97 KCAL/MOL
REMARK 923 INTER-LIGAND FREE ENERGY PREDICTED BY IDOCK:    0.41 KCAL/MOL
REMARK 924 INTRA-LIGAND FREE ENERGY PREDICTED BY IDOCK:    5.55 KCAL/MOL
REMARK 927      BINDING AFFINITY PREDICTED BY RF-SCORE:    0.00 PKD
ROOT
HETATM    1  C   UNL     1     -10.089   8.555  67.727  1.00  0.00    -0.266 C  
HETATM    2  C   UNL     1     -10.871   9.854  67.524  1.00  0.00    -0.307 C  
HETATM    3  C   UNL     1     -10.694  10.771  68.732  1.00  0.00    -0.243 C  
HETATM    4  C   UNL     1     -10.506  10.545  66.196  1.00  0.00    -0.168 C  
ENDROOT
BRANCH   4   5
HETATM    5  O   UNL     1      -9.132  10.952  66.136  1.00  0.00    -0.171 OA 
BRANCH   5   6
HETATM    6  C   UNL     1      -8.238  10.057  66.672  1.00  0.00    -0.122 A  
HETATM    7  C   UNL     1      -7.770   8.908  66.026  1.00  0.00    -0.098 A  
HETATM    8  C   UNL     1      -7.046   7.933  66.740  1.00  0.00    -0.077 A  
HETATM    9  C   UNL     1      -6.756   8.112  68.097  1.00  0.00    -0.061 A  
HETATM   10  C   UNL     1      -7.079   9.347  68.684  1.00  0.00    -0.070 A  
HETATM   11  C   UNL     1      -7.815  10.308  67.976  1.00  0.00    -0.100 A  
BRANCH   9  12
HETATM   12  C   UNL     1      -6.344   6.948  68.974  1.00  0.00    -0.028 C  
BRANCH  12  13
HETATM   13  N   UNL     1      -7.276   5.844  69.049  1.00  0.00    -0.080 N  
HETATM   14  H   UNL     1      -7.671   5.439  68.201  1.00  0.00     0.000 HD 
BRANCH  13  15
HETATM   15  C   UNL     1      -7.618   5.352  70.284  1.00  0.00    -0.076 C  
HETATM   16  O   UNL     1      -6.888   5.544  71.260  1.00  0.00    -0.053 OA 
BRANCH  15  17
HETATM   17  N   UNL     1      -8.833   4.663  70.383  1.00  0.00    -0.096 N  
BRANCH  17  18
HETATM   18  C   UNL     1      -9.560   4.507  69.091  1.00  0.00    -0.180 C  
BRANCH  18  19
HETATM   19  C   UNL     1      -8.685   4.217  67.868  1.00  0.00    -0.118 A  
HETATM   20  C   UNL     1      -6.860   4.294  65.762  1.00  0.00    -0.057 A  
HETATM   21  C   UNL     1      -7.455   3.552  67.974  1.00  0.00    -0.061 A  
HETATM   22  C   UNL     1      -6.530   3.622  66.930  1.00  0.00    -0.041 A  
HETATM   23  F   UNL     1      -5.928   4.466  64.811  1.00  0.00    -0.019 F  
HETATM   24  C   UNL     1      -8.128   4.827  65.579  1.00  0.00    -0.111 A  
HETATM   25  C   UNL     1      -9.052   4.769  66.623  1.00  0.00    -0.117 A  
ENDBRANCH  18  19
ENDBRANCH  17  18
BRANCH  17  26
HETATM   26  C   UNL     1      -9.524   4.300  71.676  1.00  0.00    -0.148 C  
HETATM   27  C   UNL     1      -9.077   5.069  72.932  1.00  0.00    -0.127 C  
HETATM   28  C   UNL     1     -11.085   4.267  71.647  1.00  0.00     0.892 C  
HETATM   29  C   UNL     1     -11.507   5.416  74.563  1.00  0.00     2.712 C  
HETATM   30  C   UNL     1      -9.821   6.383  73.109  1.00  0.00    -0.168 C  
HETATM   31  N   UNL     1     -11.246   6.158  73.329  1.00  0.00    -0.129 NA 
HETATM   32  C   UNL     1     -11.819   5.519  72.146  1.00  0.00     0.104 C  
ENDBRANCH  17  26
ENDBRANCH  15  17
ENDBRANCH  13  15
ENDBRANCH  12  13
ENDBRANCH   9  12
ENDBRANCH   5   6
ENDBRANCH   4   5
TORSDOF 9
ENDMDL
MODEL      337
REMARK 921   NORMALIZED FREE ENERGY PREDICTED BY IDOCK:    5.42 KCAL/MOL
REMARK 922        TOTAL FREE ENERGY PREDICTED BY IDOCK:    6.81 KCAL/MOL
REMARK 923 INTER-LIGAND FREE ENERGY PREDICTED BY IDOCK:    7.28 KCAL/MOL
REMARK 924 INTRA-LIGAND FREE ENERGY PREDICTED BY IDOCK:   -0.47 KCAL/MOL
REMARK 927      BINDING AFFINITY PREDICTED BY RF-SCORE:    0.00 PKD
ROOT
HETATM    1  C   UNL     1     -12.408   5.095  72.216  1.00  0.00     0.890 C  
HETATM    2  C   UNL     1     -10.895   4.909  72.343  1.00  0.00    -0.204 C  
HETATM    3  C   UNL     1     -10.538   3.426  72.275  1.00  0.00     0.062 C  
HETATM    4  C   UNL     1     -10.122   5.754  71.313  1.00  0.00    -0.201 C  
ENDROOT
BRANCH   4   5
HETATM    5  O   UNL     1     -10.406   5.381  69.957  1.00  0.00    -0.252 OA 
BRANCH   5   6
HETATM    6  C   UNL     1     -10.108   6.340  69.018  1.00  0.00    -0.172 A  
HETATM    7  C   UNL     1      -9.638   6.079  67.727  1.00  0.00    -0.113 A  
HETATM    8  C   UNL     1      -9.139   7.123  66.924  1.00  0.00    -0.159 A  
HETATM    9  C   UNL     1      -9.133   8.442  67.393  1.00  0.00    -0.152 A  
HETATM   10  C   UNL     1      -9.769   8.710  68.617  1.00  0.00    -0.171 A  
HETATM   11  C   UNL     1     -10.248   7.667  69.421  1.00  0.00    -0.206 A  
BRANCH   9  12
HETATM   12  C   UNL     1      -8.266   9.502  66.747  1.00  0.00    -0.113 C  
BRANCH  12  13
HETATM   13  N   UNL     1      -8.853  10.818  66.622  1.00  0.00    -0.142 N  
HETATM   14  H   UNL     1      -8.345  11.645  66.935  1.00  0.00     0.000 HD 
BRANCH  13  15
HETATM   15  C   UNL     1     -10.106  10.932  66.074  1.00  0.00    -0.249 C  
HETATM   16  O   UNL     1     -10.688   9.940  65.627  1.00  0.00     0.090 OA 
BRANCH  15  17
HETATM   17  N   UNL     1     -10.692  12.204  66.080  1.00  0.00    -0.264 N  
BRANCH  17  18
HETATM   18  C   UNL     1     -10.237  13.087  67.190  1.00  0.00    -0.243 C  
BRANCH  18  19
HETATM   19  C   UNL     1     -11.081  13.035  68.468  1.00  0.00    -0.298 A  
HETATM   20  C   UNL     1     -12.253  12.403  70.917  1.00  0.00    -0.193 A  
HETATM   21  C   UNL     1     -10.720  13.739  69.626  1.00  0.00     0.171 A  
HETATM   22  C   UNL     1     -11.285  13.396  70.857  1.00  0.00     1.500 A  
HETATM   23  F   UNL     1     -12.704  11.990  72.113  1.00  0.00    -0.346 F  
HETATM   24  C   UNL     1     -12.733  11.802  69.762  1.00  0.00     0.266 A  
HETATM   25  C   UNL     1     -12.164  12.134  68.531  1.00  0.00     0.099 A  
ENDBRANCH  18  19
ENDBRANCH  17  18
BRANCH  17  26
HETATM   26  C   UNL     1     -11.862  12.626  65.223  1.00  0.00    -0.408 C  
HETATM   27  C   UNL     1     -12.156  14.136  65.159  1.00  0.00    -0.416 C  
HETATM   28  C   UNL     1     -11.906  12.052  63.772  1.00  0.00    -0.581 C  
HETATM   29  C   UNL     1     -13.088  14.651  62.411  1.00  0.00     5.210 C  
HETATM   30  C   UNL     1     -11.343  14.844  64.088  1.00  0.00     0.100 C  
HETATM   31  N   UNL     1     -11.694  14.366  62.755  1.00  0.00     1.683 NA 
HETATM   32  C   UNL     1     -11.360  12.947  62.651  1.00  0.00     2.087 C  
ENDBRANCH  17  26
ENDBRANCH  15  17
ENDBRANCH  13  15
ENDBRANCH  12  13
ENDBRANCH   9  12
ENDBRANCH   5   6
ENDBRANCH   4   5
TORSDOF 9
ENDMDL
MODEL      338
REMARK 921   NORMALIZED FREE ENERGY PREDICTED BY IDOCK:    6.44 KCAL/MOL
REMARK 922        TOTAL FREE ENERGY PREDICTED BY IDOCK:    8.37 KCAL/MOL
REMARK 923 INTER-LIGAND FREE ENERGY PREDICTED BY IDOCK:   -1.06 KCAL/MOL
REMARK 924 INTRA-LIGAND FREE ENERGY PREDICTED BY IDOCK:    9.43 KCAL/MOL
REMARK 927      BINDING AFFINITY PREDICTED BY RF-SCORE:    0.00 PKD
ROOT
HETATM    1  C   UNL     1      -9.701   7.834  69.852  1.00  0.00    -0.176 C  
HETATM    2  C   UNL     1     -10.170   6.695  70.759  1.00  0.00    -0.221 C  
HETATM    3  C   UNL     1     -10.321   5.407  69.953  1.00  0.00    -0.377 C  
HETATM    4  C   UNL     1      -9.258   6.523  71.988  1.00  0.00    -0.147 C  
ENDROOT
BRANCH   4   5
HETATM    5  O   UNL     1      -7.913   6.161  71.641  1.00  0.00    -0.101 OA 
BRANCH   5   6
HETATM    6  C   UNL     1      -7.546   6.468  70.353  1.00  0.00    -0.096 A  
HETATM    7  C   UNL     1      -6.291   6.954  69.972  1.00  0.00    -0.035 A  
HETATM    8  C   UNL     1      -6.085   7.460  68.673  1.00  0.00    -0.027 A  
HETATM    9  C   UNL     1      -7.123   7.456  67.735  1.00  0.00    -0.085 A  
HETATM   10  C   UNL     1      -8.321   6.805  68.077  1.00  0.00    -0.120 A  
HETATM   11  C   UNL     1      -8.528   6.318  69.375  1.00  0.00    -0.125 A  
BRANCH   9  12
HETATM   12  C   UNL     1      -7.069   8.328  66.498  1.00  0.00    -0.072 C  
BRANCH  12  13
HETATM   13  N   UNL     1      -6.343   9.573  66.625  1.00  0.00    -0.065 N  
HETATM   14  H   UNL     1      -5.345   9.573  66.839  1.00  0.00     0.000 HD 
BRANCH  13  15
HETATM   15  C   UNL     1      -7.021  10.753  66.452  1.00  0.00    -0.134 C  
HETATM   16  O   UNL     1      -6.811  11.460  65.463  1.00  0.00     0.380 OA 
BRANCH  15  17
HETATM   17  N   UNL     1      -7.973  11.090  67.423  1.00  0.00    -0.116 N  
BRANCH  17  18
HETATM   18  C   UNL     1      -7.398  11.479  68.742  1.00  0.00    -0.115 C  
BRANCH  18  19
HETATM   19  C   UNL     1      -7.251  12.984  68.984  1.00  0.00     0.014 A  
HETATM   20  C   UNL     1      -6.370  15.620  69.202  1.00  0.00    -0.127 A  
HETATM   21  C   UNL     1      -7.612  13.932  68.015  1.00  0.00    -0.144 A  
HETATM   22  C   UNL     1      -7.141  15.243  68.110  1.00  0.00    -0.126 A  
HETATM   23  F   UNL     1      -5.816  16.843  69.230  1.00  0.00    -0.139 F  
HETATM   24  C   UNL     1      -6.131  14.738  70.245  1.00  0.00    -0.167 A  
HETATM   25  C   UNL     1      -6.591  13.424  70.150  1.00  0.00     0.201 A  
ENDBRANCH  18  19
ENDBRANCH  17  18
BRANCH  17  26
HETATM   26  C   UNL     1      -9.461  10.866  67.295  1.00  0.00    -0.159 C  
HETATM   27  C   UNL     1     -10.331  12.123  67.105  1.00  0.00    -0.233 C  
HETATM   28  C   UNL     1      -9.918   9.789  66.262  1.00  0.00    -0.331 C  
HETATM   29  C   UNL     1     -12.515  11.317  65.299  1.00  0.00     2.380 C  
HETATM   30  C   UNL     1     -10.446  12.538  65.648  1.00  0.00    -0.273 C  
HETATM   31  N   UNL     1     -11.133  11.520  64.861  1.00  0.00    -0.256 NA 
HETATM   32  C   UNL     1     -10.344  10.290  64.875  1.00  0.00    -0.070 C  
ENDBRANCH  17  26
ENDBRANCH  15  17
ENDBRANCH  13  15
ENDBRANCH  12  13
ENDBRANCH   9  12
ENDBRANCH   5   6
ENDBRANCH   4   5
TORSDOF 9
ENDMDL
MODEL      339
REMARK 921   NORMALIZED FREE ENERGY PREDICTED BY IDOCK:    7.19 KCAL/MOL
REMARK 922        TOTAL FREE ENERGY PREDICTED BY IDOCK:    9.51 KCAL/MOL
REMARK 923 INTER-LIGAND FREE ENERGY PREDICTED BY IDOCK:    0.07 KCAL/MOL
REMARK 924 INTRA-LIGAND FREE ENERGY PREDICTED BY IDOCK:    9.44 KCAL/MOL
REMARK 927      BINDING AFFINITY PREDICTED BY RF-SCORE:    0.00 PKD
ROOT
HETATM    1  C   UNL     1      -6.615  17.842  72.365  1.00  0.00     5.055 C  
HETATM    2  C   UNL     1      -5.439  17.660  71.404  1.00  0.00     0.241 C  
HETATM    3  C   UNL     1      -5.140  16.175  71.211  1.00  0.00    -0.110 C  
HETATM    4  C   UNL     1      -5.665  18.398  70.071  1.00  0.00    -0.241 C  
ENDROOT
BRANCH   4   5
HETATM    5  O   UNL     1      -6.794  17.899  69.339  1.00  0.00    -0.225 OA 
BRANCH   5   6
HETATM    6  C   UNL     1      -6.632  16.641  68.810  1.00  0.00    -0.169 A  
HETATM    7  C   UNL     1      -7.503  16.036  67.899  1.00  0.00    -0.142 A  
HETATM    8  C   UNL     1      -7.383  14.666  67.598  1.00  0.00    -0.204 A  
HETATM    9  C   UNL     1      -6.370  13.895  68.180  1.00  0.00    -0.127 A  
HETATM   10  C   UNL     1      -5.400  14.555  68.953  1.00  0.00    -0.088 A  
HETATM   11  C   UNL     1      -5.532  15.914  69.264  1.00  0.00    -0.112 A  
BRANCH   9  12
HETATM   12  C   UNL     1      -6.445  12.382  68.199  1.00  0.00    -0.072 C  
BRANCH  12  13
HETATM   13  N   UNL     1      -7.772  11.809  68.249  1.00  0.00    -0.122 N  
HETATM   14  H   UNL     1      -7.909  10.843  68.548  1.00  0.00     0.000 HD 
BRANCH  13  15
HETATM   15  C   UNL     1      -8.842  12.588  67.887  1.00  0.00    -0.185 C  
HETATM   16  O   UNL     1      -8.831  13.804  68.093  1.00  0.00    -0.172 OA 
BRANCH  15  17
HETATM   17  N   UNL     1      -9.913  11.947  67.251  1.00  0.00    -0.186 N  
BRANCH  17  18
HETATM   18  C   UNL     1     -10.396  10.720  67.944  1.00  0.00    -0.185 C  
BRANCH  18  19
HETATM   19  C   UNL     1     -11.371  10.952  69.103  1.00  0.00    -0.350 A  
HETATM   20  C   UNL     1     -12.592  11.403  71.568  1.00  0.00    -0.288 A  
HETATM   21  C   UNL     1     -11.840  12.231  69.435  1.00  0.00    -0.370 A  
HETATM   22  C   UNL     1     -12.420  12.461  70.685  1.00  0.00    -0.320 A  
HETATM   23  F   UNL     1     -13.034  11.646  72.813  1.00  0.00     0.061 F  
HETATM   24  C   UNL     1     -12.274  10.105  71.198  1.00  0.00    -0.490 A  
HETATM   25  C   UNL     1     -11.685   9.872  69.954  1.00  0.00    -0.131 A  
ENDBRANCH  18  19
ENDBRANCH  17  18
BRANCH  17  26
HETATM   26  C   UNL     1     -10.420  12.269  65.865  1.00  0.00    -0.256 C  
HETATM   27  C   UNL     1     -11.917  12.017  65.607  1.00  0.00    -0.151 C  
HETATM   28  C   UNL     1     -10.050  13.675  65.297  1.00  0.00    -0.297 C  
HETATM   29  C   UNL     1     -12.782  14.161  63.779  1.00  0.00     0.447 C  
HETATM   30  C   UNL     1     -12.785  13.199  66.007  1.00  0.00     0.063 C  
HETATM   31  N   UNL     1     -12.486  14.374  65.196  1.00  0.00    -0.445 NA 
HETATM   32  C   UNL     1     -11.103  14.782  65.435  1.00  0.00    -0.357 C  
ENDBRANCH  17  26
ENDBRANCH  15  17
ENDBRANCH  13  15
ENDBRANCH  12  13
ENDBRANCH   9  12
ENDBRANCH   5   6
ENDBRANCH   4   5
TORSDOF 9
ENDMDL
MODEL      340
REMARK 921   NORMALIZED FREE ENERGY PREDICTED BY IDOCK:    7.49 KCAL/MOL
REMARK 922        TOTAL FREE ENERGY PREDICTED BY IDOCK:    9.96 KCAL/MOL
REMARK 923 INTER-LIGAND FREE ENERGY PREDICTED BY IDOCK:    7.55 KCAL/MOL
REMARK 924 INTRA-LIGAND FREE ENERGY PREDICTED BY IDOCK:    2.41 KCAL/MOL
REMARK 927      BINDING AFFINITY PREDICTED BY RF-SCORE:    0.00 PKD
ROOT
HETATM    1  C   UNL     1     -12.501  18.268  72.580  1.00  0.00     7.973 C  
HETATM    2  C   UNL     1     -12.033  16.966  73.234  1.00  0.00    -0.073 C  
HETATM    3  C   UNL     1     -12.966  16.587  74.382  1.00  0.00     0.195 C  
HETATM    4  C   UNL     1     -11.866  15.832  72.205  1.00  0.00    -0.498 C  
ENDROOT
BRANCH   4   5
HETATM    5  O   UNL     1     -13.096  15.475  71.560  1.00  0.00    -0.439 OA 
BRANCH   5   6
HETATM    6  C   UNL     1     -13.473  14.163  71.718  1.00  0.00    -0.390 A  
HETATM    7  C   UNL     1     -13.900  13.590  72.920  1.00  0.00     0.092 A  
HETATM    8  C   UNL     1     -14.037  12.193  73.038  1.00  0.00     2.226 A  
HETATM    9  C   UNL     1     -13.779  11.358  71.945  1.00  0.00     0.114 A  
HETATM   10  C   UNL     1     -13.524  11.960  70.700  1.00  0.00     1.140 A  
HETATM   11  C   UNL     1     -13.371  13.348  70.591  1.00  0.00     0.315 A  
BRANCH   9  12
HETATM   12  C   UNL     1     -13.530   9.876  72.128  1.00  0.00    -0.356 C  
BRANCH  12  13
HETATM   13  N   UNL     1     -12.151   9.446  72.065  1.00  0.00    -0.345 N  
HETATM   14  H   UNL     1     -11.741   8.900  72.822  1.00  0.00     0.000 HD 
BRANCH  13  15
HETATM   15  C   UNL     1     -11.403   9.789  70.965  1.00  0.00    -0.387 C  
HETATM   16  O   UNL     1     -11.928  10.349  69.999  1.00  0.00    -0.268 OA 
BRANCH  15  17
HETATM   17  N   UNL     1     -10.032   9.506  71.012  1.00  0.00    -0.256 N  
BRANCH  17  18
HETATM   18  C   UNL     1      -9.602   8.736  72.214  1.00  0.00    -0.200 C  
BRANCH  18  19
HETATM   19  C   UNL     1      -8.747   7.496  71.937  1.00  0.00    -0.132 A  
HETATM   20  C   UNL     1      -7.281   5.414  70.803  1.00  0.00    -0.070 A  
HETATM   21  C   UNL     1      -7.346   7.548  71.916  1.00  0.00    -0.072 A  
HETATM   22  C   UNL     1      -6.616   6.519  71.317  1.00  0.00    -0.051 A  
HETATM   23  F   UNL     1      -6.592   4.486  70.119  1.00  0.00    -0.031 F  
HETATM   24  C   UNL     1      -8.653   5.273  70.950  1.00  0.00    -0.133 A  
HETATM   25  C   UNL     1      -9.387   6.304  71.539  1.00  0.00    -0.155 A  
ENDBRANCH  18  19
ENDBRANCH  17  18
BRANCH  17  26
HETATM   26  C   UNL     1      -8.990  10.102  70.096  1.00  0.00     0.143 C  
HETATM   27  C   UNL     1      -7.962   9.124  69.497  1.00  0.00    -0.098 C  
HETATM   28  C   UNL     1      -9.513  11.029  68.954  1.00  0.00    -0.166 C  
HETATM   29  C   UNL     1      -7.406  10.117  66.779  1.00  0.00    -0.104 C  
HETATM   30  C   UNL     1      -8.457   8.469  68.218  1.00  0.00    -0.135 C  
HETATM   31  N   UNL     1      -8.654   9.455  67.161  1.00  0.00    -0.127 NA 
HETATM   32  C   UNL     1      -9.696  10.394  67.570  1.00  0.00    -0.169 C  
ENDBRANCH  17  26
ENDBRANCH  15  17
ENDBRANCH  13  15
ENDBRANCH  12  13
ENDBRANCH   9  12
ENDBRANCH   5   6
ENDBRANCH   4   5
TORSDOF 9
ENDMDL
MODEL      341
REMARK 921   NORMALIZED FREE ENERGY PREDICTED BY IDOCK:   11.49 KCAL/MOL
REMARK 922        TOTAL FREE ENERGY PREDICTED BY IDOCK:   16.06 KCAL/MOL
REMARK 923 INTER-LIGAND FREE ENERGY PREDICTED BY IDOCK:    7.95 KCAL/MOL
REMARK 924 INTRA-LIGAND FREE ENERGY PREDICTED BY IDOCK:    8.11 KCAL/MOL
REMARK 927      BINDING AFFINITY PREDICTED BY RF-SCORE:    0.00 PKD
ROOT
HETATM    1  C   UNL     1      -6.969  17.720  72.840  1.00  0.00     8.065 C  
HETATM    2  C   UNL     1      -5.969  17.945  71.705  1.00  0.00     1.563 C  
HETATM    3  C   UNL     1      -5.136  16.686  71.477  1.00  0.00     0.118 C  
HETATM    4  C   UNL     1      -6.658  18.442  70.420  1.00  0.00     0.724 C  
ENDROOT
BRANCH   4   5
HETATM    5  O   UNL     1      -7.588  17.492  69.881  1.00  0.00     0.665 OA 
BRANCH   5   6
HETATM    6  C   UNL     1      -7.099  16.215  69.746  1.00  0.00     0.048 A  
HETATM    7  C   UNL     1      -7.537  15.285  68.798  1.00  0.00    -0.139 A  
HETATM    8  C   UNL     1      -7.147  13.934  68.889  1.00  0.00    -0.110 A  
HETATM    9  C   UNL     1      -6.290  13.508  69.910  1.00  0.00    -0.071 A  
HETATM   10  C   UNL     1      -5.721  14.484  70.745  1.00  0.00    -0.177 A  
HETATM   11  C   UNL     1      -6.124  15.824  70.663  1.00  0.00     0.201 A  
BRANCH   9  12
HETATM   12  C   UNL     1      -6.169  12.043  70.275  1.00  0.00    -0.008 C  
BRANCH  12  13
HETATM   13  N   UNL     1      -7.176  11.162  69.725  1.00  0.00    -0.354 N  
HETATM   14  H   UNL     1      -8.103  11.516  69.490  1.00  0.00     0.000 HD 
BRANCH  13  15
HETATM   15  C   UNL     1      -6.860   9.841  69.528  1.00  0.00    -0.060 C  
HETATM   16  O   UNL     1      -5.693   9.499  69.318  1.00  0.00    -0.035 OA 
BRANCH  15  17
HETATM   17  N   UNL     1      -7.908   8.915  69.609  1.00  0.00    -0.087 N  
BRANCH  17  18
HETATM   18  C   UNL     1      -9.186   9.375  68.997  1.00  0.00    -0.145 C  
BRANCH  18  19
HETATM   19  C   UNL     1      -9.194   9.472  67.468  1.00  0.00    -0.142 A  
HETATM   20  C   UNL     1      -9.042  10.275  64.803  1.00  0.00    -0.219 A  
HETATM   21  C   UNL     1      -8.068   9.151  66.697  1.00  0.00    -0.111 A  
HETATM   22  C   UNL     1      -7.981   9.584  65.373  1.00  0.00    -0.113 A  
HETATM   23  F   UNL     1      -8.908  10.798  63.573  1.00  0.00    -0.174 F  
HETATM   24  C   UNL     1     -10.225  10.468  65.502  1.00  0.00    -0.325 A  
HETATM   25  C   UNL     1     -10.313  10.046  66.829  1.00  0.00    -0.283 A  
ENDBRANCH  18  19
ENDBRANCH  17  18
BRANCH  17  26
HETATM   26  C   UNL     1      -7.890   7.653  70.438  1.00  0.00    -0.092 C  
HETATM   27  C   UNL     1      -7.035   7.685  71.718  1.00  0.00    -0.062 C  
HETATM   28  C   UNL     1      -9.277   7.028  70.786  1.00  0.00    -0.157 C  
HETATM   29  C   UNL     1      -8.499   6.062  73.695  1.00  0.00    -0.118 C  
HETATM   30  C   UNL     1      -7.791   8.247  72.911  1.00  0.00    -0.130 C  
HETATM   31  N   UNL     1      -8.921   7.397  73.269  1.00  0.00    -0.149 NA 
HETATM   32  C   UNL     1      -9.871   7.368  72.159  1.00  0.00    -0.172 C  
ENDBRANCH  17  26
ENDBRANCH  15  17
ENDBRANCH  13  15
ENDBRANCH  12  13
ENDBRANCH   9  12
ENDBRANCH   5   6
ENDBRANCH   4   5
TORSDOF 9
ENDMDL
MODEL      342
REMARK 921   NORMALIZED FREE ENERGY PREDICTED BY IDOCK:   13.89 KCAL/MOL
REMARK 922        TOTAL FREE ENERGY PREDICTED BY IDOCK:   19.72 KCAL/MOL
REMARK 923 INTER-LIGAND FREE ENERGY PREDICTED BY IDOCK:   18.13 KCAL/MOL
REMARK 924 INTRA-LIGAND FREE ENERGY PREDICTED BY IDOCK:    1.59 KCAL/MOL
REMARK 927      BINDING AFFINITY PREDICTED BY RF-SCORE:    0.00 PKD
ROOT
HETATM    1  C   UNL     1     -11.617   6.461  67.597  1.00  0.00     0.586 C  
HETATM    2  C   UNL     1     -11.536   7.133  66.226  1.00  0.00     2.599 C  
HETATM    3  C   UNL     1     -12.930   7.263  65.617  1.00  0.00    14.293 C  
HETATM    4  C   UNL     1     -10.788   8.479  66.287  1.00  0.00     1.192 C  
ENDROOT
BRANCH   4   5
HETATM    5  O   UNL     1     -11.448   9.449  67.113  1.00  0.00     0.543 OA 
BRANCH   5   6
HETATM    6  C   UNL     1     -10.801   9.745  68.288  1.00  0.00    -0.210 A  
HETATM    7  C   UNL     1      -9.744  10.652  68.416  1.00  0.00    -0.172 A  
HETATM    8  C   UNL     1      -8.994  10.712  69.606  1.00  0.00     0.136 A  
HETATM    9  C   UNL     1      -9.314   9.889  70.692  1.00  0.00     0.153 A  
HETATM   10  C   UNL     1     -10.483   9.113  70.611  1.00  0.00    -0.305 A  
HETATM   11  C   UNL     1     -11.216   9.042  69.419  1.00  0.00     0.102 A  
BRANCH   9  12
HETATM   12  C   UNL     1      -8.322   9.639  71.809  1.00  0.00     1.539 C  
BRANCH  12  13
HETATM   13  N   UNL     1      -6.978   9.289  71.404  1.00  0.00    -0.017 N  
HETATM   14  H   UNL     1      -6.182   9.506  72.002  1.00  0.00     0.000 HD 
BRANCH  13  15
HETATM   15  C   UNL     1      -6.796   8.659  70.197  1.00  0.00    -0.039 C  
HETATM   16  O   UNL     1      -6.672   9.314  69.160  1.00  0.00    -0.049 OA 
BRANCH  15  17
HETATM   17  N   UNL     1      -6.725   7.260  70.212  1.00  0.00    -0.050 N  
BRANCH  17  18
HETATM   18  C   UNL     1      -7.148   6.635  71.497  1.00  0.00    -0.080 C  
BRANCH  18  19
HETATM   19  C   UNL     1      -8.626   6.244  71.590  1.00  0.00    -0.133 A  
HETATM   20  C   UNL     1     -11.403   6.184  71.831  1.00  0.00    -0.296 A  
HETATM   21  C   UNL     1      -9.432   6.105  70.450  1.00  0.00    -0.179 A  
HETATM   22  C   UNL     1     -10.823   6.109  70.572  1.00  0.00    -0.364 A  
HETATM   23  F   UNL     1     -12.735   6.313  71.940  1.00  0.00    -0.377 F  
HETATM   24  C   UNL     1     -10.623   6.169  72.979  1.00  0.00    -0.263 A  
HETATM   25  C   UNL     1      -9.232   6.175  72.861  1.00  0.00    -0.134 A  
ENDBRANCH  18  19
ENDBRANCH  17  18
BRANCH  17  26
HETATM   26  C   UNL     1      -6.060   6.413  69.154  1.00  0.00    -0.029 C  
HETATM   27  C   UNL     1      -6.930   5.324  68.499  1.00  0.00    -0.057 C  
HETATM   28  C   UNL     1      -5.295   7.177  68.028  1.00  0.00    -0.020 C  
HETATM   29  C   UNL     1      -6.066   5.197  65.685  1.00  0.00    -0.033 C  
HETATM   30  C   UNL     1      -7.735   5.850  67.322  1.00  0.00    -0.101 C  
HETATM   31  N   UNL     1      -6.861   6.293  66.240  1.00  0.00    -0.060 NA 
HETATM   32  C   UNL     1      -6.045   7.410  66.709  1.00  0.00    -0.043 C  
ENDBRANCH  17  26
ENDBRANCH  15  17
ENDBRANCH  13  15
ENDBRANCH  12  13
ENDBRANCH   9  12
ENDBRANCH   5   6
ENDBRANCH   4   5
TORSDOF 9
ENDMDL
MODEL      343
REMARK 921   NORMALIZED FREE ENERGY PREDICTED BY IDOCK:   14.03 KCAL/MOL
REMARK 922        TOTAL FREE ENERGY PREDICTED BY IDOCK:   19.95 KCAL/MOL
REMARK 923 INTER-LIGAND FREE ENERGY PREDICTED BY IDOCK:   18.28 KCAL/MOL
REMARK 924 INTRA-LIGAND FREE ENERGY PREDICTED BY IDOCK:    1.67 KCAL/MOL
REMARK 927      BINDING AFFINITY PREDICTED BY RF-SCORE:    0.00 PKD
ROOT
HETATM    1  C   UNL     1     -11.635   6.475  67.593  1.00  0.00     0.523 C  
HETATM    2  C   UNL     1     -11.591   7.135  66.214  1.00  0.00     3.093 C  
HETATM    3  C   UNL     1     -12.995   7.204  65.617  1.00  0.00    13.559 C  
HETATM    4  C   UNL     1     -10.895   8.509  66.254  1.00  0.00     1.192 C  
ENDROOT
BRANCH   4   5
HETATM    5  O   UNL     1     -11.585   9.462  67.075  1.00  0.00     0.957 OA 
BRANCH   5   6
HETATM    6  C   UNL     1     -10.775  10.373  67.710  1.00  0.00    -0.279 A  
HETATM    7  C   UNL     1     -10.277  11.543  67.129  1.00  0.00    -0.233 A  
HETATM    8  C   UNL     1      -9.270  12.289  67.773  1.00  0.00    -0.191 A  
HETATM    9  C   UNL     1      -8.775  11.888  69.020  1.00  0.00     0.296 A  
HETATM   10  C   UNL     1      -9.409  10.814  69.667  1.00  0.00     0.215 A  
HETATM   11  C   UNL     1     -10.397  10.064  69.016  1.00  0.00    -0.223 A  
BRANCH   9  12
HETATM   12  C   UNL     1      -7.456  12.411  69.548  1.00  0.00     0.567 C  
BRANCH  12  13
HETATM   13  N   UNL     1      -6.377  12.506  68.590  1.00  0.00    -0.068 N  
HETATM   14  H   UNL     1      -5.622  13.180  68.722  1.00  0.00     0.000 HD 
BRANCH  13  15
HETATM   15  C   UNL     1      -6.387  11.673  67.499  1.00  0.00    -0.087 C  
HETATM   16  O   UNL     1      -6.966  12.003  66.462  1.00  0.00     0.064 OA 
BRANCH  15  17
HETATM   17  N   UNL     1      -5.688  10.464  67.613  1.00  0.00    -0.044 N  
BRANCH  17  18
HETATM   18  C   UNL     1      -5.289  10.111  69.005  1.00  0.00    -0.035 C  
BRANCH  18  19
HETATM   19  C   UNL     1      -6.295   9.264  69.790  1.00  0.00    -0.039 A  
HETATM   20  C   UNL     1      -7.824   7.222  70.913  1.00  0.00    -0.094 A  
HETATM   21  C   UNL     1      -6.038   8.827  71.098  1.00  0.00    -0.048 A  
HETATM   22  C   UNL     1      -6.784   7.780  71.644  1.00  0.00    -0.046 A  
HETATM   23  F   UNL     1      -8.458   6.137  71.387  1.00  0.00    -0.122 F  
HETATM   24  C   UNL     1      -8.191   7.743  69.681  1.00  0.00    -0.127 A  
HETATM   25  C   UNL     1      -7.442   8.782  69.127  1.00  0.00    -0.076 A  
ENDBRANCH  18  19
ENDBRANCH  17  18
BRANCH  17  26
HETATM   26  C   UNL     1      -5.141   9.664  66.455  1.00  0.00    -0.039 C  
HETATM   27  C   UNL     1      -5.591   8.194  66.363  1.00  0.00    -0.032 C  
HETATM   28  C   UNL     1      -5.269  10.310  65.040  1.00  0.00    -0.098 C  
HETATM   29  C   UNL     1      -5.838   7.616  63.484  1.00  0.00    -0.053 C  
HETATM   30  C   UNL     1      -6.908   8.033  65.622  1.00  0.00    -0.056 C  
HETATM   31  N   UNL     1      -6.786   8.446  64.228  1.00  0.00    -0.066 NA 
HETATM   32  C   UNL     1      -6.459   9.870  64.177  1.00  0.00    -0.126 C  
ENDBRANCH  17  26
ENDBRANCH  15  17
ENDBRANCH  13  15
ENDBRANCH  12  13
ENDBRANCH   9  12
ENDBRANCH   5   6
ENDBRANCH   4   5
TORSDOF 9
ENDMDL
MODEL      344
REMARK 921   NORMALIZED FREE ENERGY PREDICTED BY IDOCK:   14.69 KCAL/MOL
REMARK 922        TOTAL FREE ENERGY PREDICTED BY IDOCK:   20.95 KCAL/MOL
REMARK 923 INTER-LIGAND FREE ENERGY PREDICTED BY IDOCK:   16.73 KCAL/MOL
REMARK 924 INTRA-LIGAND FREE ENERGY PREDICTED BY IDOCK:    4.22 KCAL/MOL
REMARK 927      BINDING AFFINITY PREDICTED BY RF-SCORE:    0.00 PKD
ROOT
HETATM    1  C   UNL     1      -7.443   6.641  66.465  1.00  0.00    -0.078 C  
HETATM    2  C   UNL     1      -6.989   5.213  66.774  1.00  0.00    -0.064 C  
HETATM    3  C   UNL     1      -5.515   5.038  66.413  1.00  0.00    -0.016 C  
HETATM    4  C   UNL     1      -7.295   4.814  68.230  1.00  0.00    -0.066 C  
ENDROOT
BRANCH   4   5
HETATM    5  O   UNL     1      -6.595   5.617  69.190  1.00  0.00    -0.049 OA 
BRANCH   5   6
HETATM    6  C   UNL     1      -7.382   6.153  70.181  1.00  0.00    -0.082 A  
HETATM    7  C   UNL     1      -6.925   6.550  71.441  1.00  0.00    -0.075 A  
HETATM    8  C   UNL     1      -7.839   6.865  72.466  1.00  0.00    -0.095 A  
HETATM    9  C   UNL     1      -9.217   6.816  72.231  1.00  0.00    -0.138 A  
HETATM   10  C   UNL     1      -9.655   6.588  70.915  1.00  0.00    -0.186 A  
HETATM   11  C   UNL     1      -8.744   6.258  69.902  1.00  0.00    -0.141 A  
BRANCH   9  12
HETATM   12  C   UNL     1     -10.209   6.755  73.374  1.00  0.00    -0.268 C  
BRANCH  12  13
HETATM   13  N   UNL     1     -11.141   7.857  73.470  1.00  0.00    -0.063 N  
HETATM   14  H   UNL     1     -12.069   7.719  73.870  1.00  0.00     0.000 HD 
BRANCH  13  15
HETATM   15  C   UNL     1     -10.752   9.092  73.013  1.00  0.00     2.129 C  
HETATM   16  O   UNL     1      -9.621   9.522  73.252  1.00  0.00     2.380 OA 
BRANCH  15  17
HETATM   17  N   UNL     1     -11.679   9.810  72.247  1.00  0.00     0.363 N  
BRANCH  17  18
HETATM   18  C   UNL     1     -11.692   9.451  70.800  1.00  0.00    -0.282 C  
BRANCH  18  19
HETATM   19  C   UNL     1     -11.188  10.536  69.843  1.00  0.00    -0.374 A  
HETATM   20  C   UNL     1     -10.850  12.790  68.239  1.00  0.00    -0.248 A  
HETATM   21  C   UNL     1     -10.388  11.601  70.281  1.00  0.00     1.872 A  
HETATM   22  C   UNL     1     -10.249  12.743  69.489  1.00  0.00     0.792 A  
HETATM   23  F   UNL     1     -10.819  13.932  67.533  1.00  0.00    -0.256 F  
HETATM   24  C   UNL     1     -11.517  11.688  67.725  1.00  0.00    -0.373 A  
HETATM   25  C   UNL     1     -11.667  10.549  68.517  1.00  0.00    -0.125 A  
ENDBRANCH  18  19
ENDBRANCH  17  18
BRANCH  17  26
HETATM   26  C   UNL     1     -12.451  11.017  72.723  1.00  0.00     3.117 C  
HETATM   27  C   UNL     1     -11.747  12.380  72.583  1.00  0.00     5.589 C  
HETATM   28  C   UNL     1     -13.914  11.161  72.198  1.00  0.00     0.502 C  
HETATM   29  C   UNL     1     -13.874  14.312  71.926  1.00  0.00    -0.457 C  
HETATM   30  C   UNL     1     -11.955  13.007  71.214  1.00  0.00     0.550 C  
HETATM   31  N   UNL     1     -13.362  13.317  70.982  1.00  0.00     0.007 NA 
HETATM   32  C   UNL     1     -14.134  12.076  70.987  1.00  0.00     2.861 C  
ENDBRANCH  17  26
ENDBRANCH  15  17
ENDBRANCH  13  15
ENDBRANCH  12  13
ENDBRANCH   9  12
ENDBRANCH   5   6
ENDBRANCH   4   5
TORSDOF 9
ENDMDL
MODEL      345
REMARK 921   NORMALIZED FREE ENERGY PREDICTED BY IDOCK:   19.21 KCAL/MOL
REMARK 922        TOTAL FREE ENERGY PREDICTED BY IDOCK:   27.85 KCAL/MOL
REMARK 923 INTER-LIGAND FREE ENERGY PREDICTED BY IDOCK:   26.63 KCAL/MOL
REMARK 924 INTRA-LIGAND FREE ENERGY PREDICTED BY IDOCK:    1.22 KCAL/MOL
REMARK 927      BINDING AFFINITY PREDICTED BY RF-SCORE:    0.00 PKD
ROOT
HETATM    1  C   UNL     1      -8.612  18.390  71.244  1.00  0.00     7.782 C  
HETATM    2  C   UNL     1      -7.834  17.272  71.939  1.00  0.00    11.357 C  
HETATM    3  C   UNL     1      -8.127  15.930  71.272  1.00  0.00     4.691 C  
HETATM    4  C   UNL     1      -6.326  17.580  72.015  1.00  0.00     3.550 C  
ENDROOT
BRANCH   4   5
HETATM    5  O   UNL     1      -5.710  17.682  70.723  1.00  0.00    -0.128 OA 
BRANCH   5   6
HETATM    6  C   UNL     1      -5.785  16.546  69.955  1.00  0.00    -0.201 A  
HETATM    7  C   UNL     1      -5.333  15.282  70.347  1.00  0.00    -0.132 A  
HETATM    8  C   UNL     1      -5.235  14.235  69.410  1.00  0.00    -0.086 A  
HETATM    9  C   UNL     1      -5.619  14.433  68.078  1.00  0.00    -0.128 A  
HETATM   10  C   UNL     1      -6.234  15.651  67.743  1.00  0.00    -0.179 A  
HETATM   11  C   UNL     1      -6.314  16.696  68.673  1.00  0.00    -0.148 A  
BRANCH   9  12
HETATM   12  C   UNL     1      -5.169  13.491  66.981  1.00  0.00     0.943 C  
BRANCH  12  13
HETATM   13  N   UNL     1      -5.398  12.082  67.216  1.00  0.00    -0.109 N  
HETATM   14  H   UNL     1      -4.614  11.434  67.294  1.00  0.00     0.000 HD 
BRANCH  13  15
HETATM   15  C   UNL     1      -6.690  11.634  67.330  1.00  0.00    -0.108 C  
HETATM   16  O   UNL     1      -7.636  12.423  67.270  1.00  0.00    -0.148 OA 
BRANCH  15  17
HETATM   17  N   UNL     1      -6.876  10.254  67.482  1.00  0.00    -0.072 N  
BRANCH  17  18
HETATM   18  C   UNL     1      -6.662   9.462  66.238  1.00  0.00    -0.075 C  
BRANCH  18  19
HETATM   19  C   UNL     1      -6.157   8.030  66.440  1.00  0.00    -0.045 A  
HETATM   20  C   UNL     1      -5.775   5.372  67.189  1.00  0.00    -0.017 A  
HETATM   21  C   UNL     1      -6.490   6.992  65.557  1.00  0.00    -0.047 A  
HETATM   22  C   UNL     1      -6.328   5.662  65.949  1.00  0.00    -0.039 A  
HETATM   23  F   UNL     1      -5.735   4.099  67.615  1.00  0.00    -0.018 F  
HETATM   24  C   UNL     1      -5.300   6.382  68.012  1.00  0.00    -0.008 A  
HETATM   25  C   UNL     1      -5.468   7.714  67.629  1.00  0.00    -0.031 A  
ENDBRANCH  18  19
ENDBRANCH  17  18
BRANCH  17  26
HETATM   26  C   UNL     1      -7.475   9.586  68.697  1.00  0.00    -0.079 C  
HETATM   27  C   UNL     1      -7.819  10.503  69.885  1.00  0.00     0.033 C  
HETATM   28  C   UNL     1      -8.684   8.632  68.443  1.00  0.00    -0.142 C  
HETATM   29  C   UNL     1     -10.271   9.383  71.073  1.00  0.00    -0.299 C  
HETATM   30  C   UNL     1      -9.201  11.123  69.762  1.00  0.00     0.953 C  
HETATM   31  N   UNL     1     -10.243  10.102  69.799  1.00  0.00    -0.246 NA 
HETATM   32  C   UNL     1     -10.088   9.216  68.647  1.00  0.00    -0.194 C  
ENDBRANCH  17  26
ENDBRANCH  15  17
ENDBRANCH  13  15
ENDBRANCH  12  13
ENDBRANCH   9  12
ENDBRANCH   5   6
ENDBRANCH   4   5
TORSDOF 9
ENDMDL
MODEL      346
REMARK 921   NORMALIZED FREE ENERGY PREDICTED BY IDOCK:   22.32 KCAL/MOL
REMARK 922        TOTAL FREE ENERGY PREDICTED BY IDOCK:   32.59 KCAL/MOL
REMARK 923 INTER-LIGAND FREE ENERGY PREDICTED BY IDOCK:   27.94 KCAL/MOL
REMARK 924 INTRA-LIGAND FREE ENERGY PREDICTED BY IDOCK:    4.65 KCAL/MOL
REMARK 927      BINDING AFFINITY PREDICTED BY RF-SCORE:    0.00 PKD
ROOT
HETATM    1  C   UNL     1      -8.410  10.943  73.835  1.00  0.00    13.382 C  
HETATM    2  C   UNL     1      -8.027  10.566  72.403  1.00  0.00     7.679 C  
HETATM    3  C   UNL     1      -7.792   9.061  72.298  1.00  0.00     0.348 C  
HETATM    4  C   UNL     1      -9.056  11.080  71.377  1.00  0.00     7.849 C  
ENDROOT
BRANCH   4   5
HETATM    5  O   UNL     1     -10.357  10.503  71.553  1.00  0.00     1.645 OA 
BRANCH   5   6
HETATM    6  C   UNL     1     -10.399   9.131  71.473  1.00  0.00    -0.344 A  
HETATM    7  C   UNL     1      -9.794   8.257  72.381  1.00  0.00    -0.375 A  
HETATM    8  C   UNL     1      -9.689   6.883  72.089  1.00  0.00    -0.158 A  
HETATM    9  C   UNL     1     -10.217   6.366  70.901  1.00  0.00    -0.226 A  
HETATM   10  C   UNL     1     -10.973   7.225  70.085  1.00  0.00    -0.280 A  
HETATM   11  C   UNL     1     -11.060   8.594  70.370  1.00  0.00    -0.250 A  
BRANCH   9  12
HETATM   12  C   UNL     1      -9.788   5.012  70.374  1.00  0.00    -0.230 C  
BRANCH  12  13
HETATM   13  N   UNL     1      -8.602   4.995  69.547  1.00  0.00    -0.090 N  
HETATM   14  H   UNL     1      -7.707   5.318  69.915  1.00  0.00     0.000 HD 
BRANCH  13  15
HETATM   15  C   UNL     1      -8.703   4.536  68.257  1.00  0.00    -0.100 C  
HETATM   16  O   UNL     1      -9.619   3.776  67.931  1.00  0.00    -0.181 OA 
BRANCH  15  17
HETATM   17  N   UNL     1      -7.749   4.994  67.339  1.00  0.00    -0.091 N  
BRANCH  17  18
HETATM   18  C   UNL     1      -6.365   4.504  67.592  1.00  0.00    -0.037 C  
BRANCH  18  19
HETATM   19  C   UNL     1      -6.009   4.246  69.059  1.00  0.00    -0.023 A  
HETATM   20  C   UNL     1      -5.873   4.179  71.843  1.00  0.00    -0.012 A  
HETATM   21  C   UNL     1      -6.515   3.145  69.765  1.00  0.00    -0.033 A  
HETATM   22  C   UNL     1      -6.476   3.131  71.161  1.00  0.00    -0.019 A  
HETATM   23  F   UNL     1      -5.945   4.225  73.183  1.00  0.00    -0.009 F  
HETATM   24  C   UNL     1      -5.232   5.202  71.158  1.00  0.00    -0.004 A  
HETATM   25  C   UNL     1      -5.278   5.225  69.764  1.00  0.00    -0.004 A  
ENDBRANCH  18  19
ENDBRANCH  17  18
BRANCH  17  26
HETATM   26  C   UNL     1      -7.981   6.079  66.314  1.00  0.00    -0.106 C  
HETATM   27  C   UNL     1      -7.876   7.531  66.816  1.00  0.00    -0.110 C  
HETATM   28  C   UNL     1      -7.180   5.959  64.980  1.00  0.00    -0.066 C  
HETATM   29  C   UNL     1      -6.689   9.059  64.594  1.00  0.00    -0.077 C  
HETATM   30  C   UNL     1      -6.450   8.056  66.791  1.00  0.00    -0.056 C  
HETATM   31  N   UNL     1      -5.935   8.122  65.428  1.00  0.00    -0.044 NA 
HETATM   32  C   UNL     1      -5.884   6.773  64.868  1.00  0.00    -0.035 C  
ENDBRANCH  17  26
ENDBRANCH  15  17
ENDBRANCH  13  15
ENDBRANCH  12  13
ENDBRANCH   9  12
ENDBRANCH   5   6
ENDBRANCH   4   5
TORSDOF 9
ENDMDL
MODEL      347
REMARK 921   NORMALIZED FREE ENERGY PREDICTED BY IDOCK:   53.72 KCAL/MOL
REMARK 922        TOTAL FREE ENERGY PREDICTED BY IDOCK:   80.51 KCAL/MOL
REMARK 923 INTER-LIGAND FREE ENERGY PREDICTED BY IDOCK:   50.64 KCAL/MOL
REMARK 924 INTRA-LIGAND FREE ENERGY PREDICTED BY IDOCK:   29.87 KCAL/MOL
REMARK 927      BINDING AFFINITY PREDICTED BY RF-SCORE:    0.00 PKD
ROOT
HETATM    1  C   UNL     1     -10.928   8.284  67.323  1.00  0.00     0.095 C  
HETATM    2  C   UNL     1     -12.346   8.778  67.034  1.00  0.00     8.530 C  
HETATM    3  C   UNL     1     -12.457  10.271  67.337  1.00  0.00     4.967 C  
HETATM    4  C   UNL     1     -12.799   8.428  65.603  1.00  0.00    18.413 C  
ENDROOT
BRANCH   4   5
HETATM    5  O   UNL     1     -11.998   9.057  64.593  1.00  0.00    10.772 OA 
BRANCH   5   6
HETATM    6  C   UNL     1     -10.640   8.954  64.783  1.00  0.00     4.490 A  
HETATM    7  C   UNL     1      -9.849   7.888  64.346  1.00  0.00     3.625 A  
HETATM    8  C   UNL     1      -8.518   7.757  64.790  1.00  0.00     0.015 A  
HETATM    9  C   UNL     1      -7.958   8.708  65.650  1.00  0.00    -0.105 A  
HETATM   10  C   UNL     1      -8.707   9.862  65.937  1.00  0.00    -0.154 A  
HETATM   11  C   UNL     1     -10.036   9.980  65.508  1.00  0.00    -0.367 A  
BRANCH   9  12
HETATM   12  C   UNL     1      -6.706   8.406  66.448  1.00  0.00    -0.066 C  
BRANCH  12  13
HETATM   13  N   UNL     1      -5.753   7.512  65.829  1.00  0.00    -0.036 N  
HETATM   14  H   UNL     1      -4.936   7.880  65.342  1.00  0.00     0.000 HD 
BRANCH  13  15
HETATM   15  C   UNL     1      -5.970   6.159  65.907  1.00  0.00    -0.029 C  
HETATM   16  O   UNL     1      -6.069   5.602  67.004  1.00  0.00    -0.024 OA 
BRANCH  15  17
HETATM   17  N   UNL     1      -6.106   5.463  64.700  1.00  0.00    -0.022 N  
BRANCH  17  18
HETATM   18  C   UNL     1      -5.991   6.314  63.481  1.00  0.00    -0.022 C  
BRANCH  18  19
HETATM   19  C   UNL     1      -5.952   7.825  63.728  1.00  0.00    -0.057 A  
HETATM   20  C   UNL     1      -6.522  10.491  64.307  1.00  0.00     0.059 A  
HETATM   21  C   UNL     1      -5.608   8.366  64.975  1.00  0.00    -0.044 A  
HETATM   22  C   UNL     1      -5.926   9.693  65.273  1.00  0.00    -0.069 A  
HETATM   23  F   UNL     1      -6.939  11.726  64.633  1.00  0.00     1.556 F  
HETATM   24  C   UNL     1      -6.731  10.019  63.019  1.00  0.00    -0.129 A  
HETATM   25  C   UNL     1      -6.424   8.691  62.719  1.00  0.00    -0.091 A  
ENDBRANCH  18  19
ENDBRANCH  17  18
BRANCH  17  26
HETATM   26  C   UNL     1      -6.571   4.032  64.568  1.00  0.00    -0.043 C  
HETATM   27  C   UNL     1      -7.477   3.499  65.693  1.00  0.00    -0.077 C  
HETATM   28  C   UNL     1      -7.195   3.624  63.197  1.00  0.00    -0.049 C  
HETATM   29  C   UNL     1      -9.391   1.682  64.382  1.00  0.00    -0.132 C  
HETATM   30  C   UNL     1      -8.946   3.812  65.457  1.00  0.00    -0.135 C  
HETATM   31  N   UNL     1      -9.444   3.140  64.262  1.00  0.00    -0.136 NA 
HETATM   32  C   UNL     1      -8.726   3.643  63.094  1.00  0.00    -0.095 C  
ENDBRANCH  17  26
ENDBRANCH  15  17
ENDBRANCH  13  15
ENDBRANCH  12  13
ENDBRANCH   9  12
ENDBRANCH   5   6
ENDBRANCH   4   5
TORSDOF 9
ENDMDL
MODEL      348
REMARK 921   NORMALIZED FREE ENERGY PREDICTED BY IDOCK:   58.50 KCAL/MOL
REMARK 922        TOTAL FREE ENERGY PREDICTED BY IDOCK:   87.81 KCAL/MOL
REMARK 923 INTER-LIGAND FREE ENERGY PREDICTED BY IDOCK:   56.44 KCAL/MOL
REMARK 924 INTRA-LIGAND FREE ENERGY PREDICTED BY IDOCK:   31.38 KCAL/MOL
REMARK 927      BINDING AFFINITY PREDICTED BY RF-SCORE:    0.00 PKD
ROOT
HETATM    1  C   UNL     1     -10.928   8.284  67.323  1.00  0.00     0.095 C  
HETATM    2  C   UNL     1     -12.346   8.778  67.034  1.00  0.00     8.530 C  
HETATM    3  C   UNL     1     -12.457  10.271  67.337  1.00  0.00     4.967 C  
HETATM    4  C   UNL     1     -12.799   8.428  65.603  1.00  0.00    18.413 C  
ENDROOT
BRANCH   4   5
HETATM    5  O   UNL     1     -11.998   9.057  64.593  1.00  0.00    10.772 OA 
BRANCH   5   6
HETATM    6  C   UNL     1     -10.786   9.536  65.030  1.00  0.00     2.311 A  
HETATM    7  C   UNL     1      -9.606   8.789  65.099  1.00  0.00     0.362 A  
HETATM    8  C   UNL     1      -8.480   9.293  65.778  1.00  0.00    -0.144 A  
HETATM    9  C   UNL     1      -8.512  10.562  66.366  1.00  0.00    -0.143 A  
HETATM   10  C   UNL     1      -9.640  11.368  66.136  1.00  0.00    -0.242 A  
HETATM   11  C   UNL     1     -10.765  10.857  65.476  1.00  0.00    -0.182 A  
BRANCH   9  12
HETATM   12  C   UNL     1      -7.499  10.969  67.416  1.00  0.00    -0.106 C  
BRANCH  12  13
HETATM   13  N   UNL     1      -6.178  10.393  67.286  1.00  0.00    -0.057 N  
HETATM   14  H   UNL     1      -5.422  10.921  66.851  1.00  0.00     0.000 HD 
BRANCH  13  15
HETATM   15  C   UNL     1      -5.963   9.123  67.760  1.00  0.00    -0.049 C  
HETATM   16  O   UNL     1      -6.173   8.850  68.944  1.00  0.00    -0.043 OA 
BRANCH  15  17
HETATM   17  N   UNL     1      -5.532   8.162  66.836  1.00  0.00    -0.032 N  
BRANCH  17  18
HETATM   18  C   UNL     1      -5.367   8.673  65.446  1.00  0.00    -0.035 C  
BRANCH  18  19
HETATM   19  C   UNL     1      -5.884  10.093  65.195  1.00  0.00    -0.117 A  
HETATM   20  C   UNL     1      -7.415  12.386  64.779  1.00  0.00     5.344 A  
HETATM   21  C   UNL     1      -6.087  11.006  66.240  1.00  0.00    -0.136 A  
HETATM   22  C   UNL     1      -6.882  12.136  66.037  1.00  0.00     1.563 A  
HETATM   23  F   UNL     1      -8.278  13.401  64.615  1.00  0.00     3.623 F  
HETATM   24  C   UNL     1      -7.100  11.576  63.697  1.00  0.00     2.166 A  
HETATM   25  C   UNL     1      -6.313  10.441  63.897  1.00  0.00    -0.043 A  
ENDBRANCH  18  19
ENDBRANCH  17  18
BRANCH  17  26
HETATM   26  C   UNL     1      -5.458   6.677  67.098  1.00  0.00    -0.013 C  
HETATM   27  C   UNL     1      -6.417   6.120  68.166  1.00  0.00    -0.049 C  
HETATM   28  C   UNL     1      -5.518   5.745  65.847  1.00  0.00    -0.013 C  
HETATM   29  C   UNL     1      -7.211   3.448  67.210  1.00  0.00    -0.059 C  
HETATM   30  C   UNL     1      -7.784   5.773  67.600  1.00  0.00    -0.097 C  
HETATM   31  N   UNL     1      -7.694   4.696  66.620  1.00  0.00    -0.090 NA 
HETATM   32  C   UNL     1      -6.884   5.144  65.489  1.00  0.00    -0.061 C  
ENDBRANCH  17  26
ENDBRANCH  15  17
ENDBRANCH  13  15
ENDBRANCH  12  13
ENDBRANCH   9  12
ENDBRANCH   5   6
ENDBRANCH   4   5
TORSDOF 9
ENDMDL
