MODEL        1
REMARK 921   NORMALIZED FREE ENERGY PREDICTED BY IDOCK:   -5.74 KCAL/MOL
REMARK 922        TOTAL FREE ENERGY PREDICTED BY IDOCK:   -8.39 KCAL/MOL
REMARK 923 INTER-LIGAND FREE ENERGY PREDICTED BY IDOCK:   -7.42 KCAL/MOL
REMARK 924 INTRA-LIGAND FREE ENERGY PREDICTED BY IDOCK:   -0.98 KCAL/MOL
REMARK 927      BINDING AFFINITY PREDICTED BY RF-SCORE:    0.00 PKD
ROOT
HETATM    1  C   UNL     1      -9.210  15.202  67.431  1.00  0.00    -0.199 C  
HETATM    2 CL   UNL     1     -10.415  18.839  66.396  1.00  0.00    -0.470 Cl 
HETATM    3  C   UNL     1     -10.666  15.771  67.543  1.00  0.00    -0.317 C  
HETATM    4  C   UNL     1     -10.827  17.043  68.412  1.00  0.00    -0.333 C  
HETATM    5  C   UNL     1      -8.457  17.746  68.038  1.00  0.00    -0.253 C  
HETATM    6  C   UNL     1      -8.201  16.444  67.175  1.00  0.00    -0.209 C  
HETATM    7  C   UNL     1      -9.929  18.199  68.011  1.00  0.00    -0.345 C  
ENDROOT
BRANCH   1   8
HETATM    8  C   UNL     1      -9.058  13.687  66.630  1.00  0.00    -0.189 C  
HETATM    9  C   UNL     1      -8.070  12.699  66.589  1.00  0.00     0.181 C  
HETATM   10  C   UNL     1      -6.975  12.956  67.630  1.00  0.00    -0.152 C  
BRANCH   9  11
HETATM   11  C   UNL     1      -7.887  11.057  65.976  1.00  0.00    -0.077 C  
HETATM   12  C   UNL     1      -9.825   9.204  65.818  1.00  0.00    -0.248 C  
HETATM   13  O   UNL     1      -7.815  10.461  67.270  1.00  0.00    -0.105 OA 
HETATM   14  C   UNL     1      -6.865   9.530  67.339  1.00  0.00    -0.083 C  
HETATM   15  O   UNL     1      -6.040   9.294  66.467  1.00  0.00    -0.061 OA 
HETATM   16  H   UNL     1      -6.125   9.192  64.190  1.00  0.00     0.000 HD 
HETATM   17  C   UNL     1      -6.899   8.819  68.654  1.00  0.00    -0.063 C  
HETATM   18  C   UNL     1      -5.397   8.966  69.058  1.00  0.00    -0.036 C  
HETATM   19  C   UNL     1      -5.132  10.358  69.574  1.00  0.00    -0.038 C  
HETATM   20  C   UNL     1      -6.016  10.540  70.791  1.00  0.00    -0.073 C  
HETATM   21  C   UNL     1      -7.504  10.462  70.440  1.00  0.00     0.342 C  
HETATM   22  N   UNL     1      -7.890   9.264  69.721  1.00  0.00    -0.089 N  
HETATM   23  C   UNL     1      -9.293   8.923  69.900  1.00  0.00    -0.166 C  
HETATM   24  O   UNL     1     -10.073   9.669  70.510  1.00  0.00    -0.264 OA 
HETATM   25  C   UNL     1     -10.007   7.565  69.478  1.00  0.00    -0.180 C  
HETATM   26  C   UNL     1     -10.279   6.357  70.529  1.00  0.00    -0.189 C  
HETATM   27  O   UNL     1     -10.410   7.485  68.325  1.00  0.00    -0.188 OA 
HETATM   28  O   UNL     1     -11.007   5.343  69.777  1.00  0.00    -0.246 OA 
HETATM   29  O   UNL     1      -9.078   5.722  70.966  1.00  0.00    -0.143 OA 
HETATM   30  H   UNL     1     -11.166   4.636  70.391  1.00  0.00     0.000 HD 
HETATM   31  C   UNL     1      -8.266   6.595  71.719  1.00  0.00    -0.110 C  
HETATM   32  C   UNL     1      -6.804   6.126  71.686  1.00  0.00    -0.068 C  
HETATM   33  C   UNL     1      -8.924   7.029  73.043  1.00  0.00    -0.130 C  
HETATM   34  C   UNL     1      -8.620   9.692  65.030  1.00  0.00    -0.180 C  
HETATM   35  C   UNL     1      -6.259   5.957  70.230  1.00  0.00    -0.031 C  
HETATM   36  O   UNL     1      -6.383   8.278  64.153  1.00  0.00    -0.065 OA 
HETATM   37  C   UNL     1     -10.437   7.353  72.837  1.00  0.00    -0.344 C  
HETATM   38  C   UNL     1      -6.846   5.020  69.144  1.00  0.00    -0.054 C  
HETATM   39  C   UNL     1      -7.797   8.194  64.310  1.00  0.00    -0.137 C  
HETATM   40  C   UNL     1     -11.106   6.443  71.817  1.00  0.00    -0.311 C  
HETATM   41  C   UNL     1      -8.276   6.500  64.242  1.00  0.00     0.013 C  
HETATM   42  C   UNL     1      -8.105   5.428  68.347  1.00  0.00    -0.091 C  
HETATM   43  C   UNL     1     -12.603   6.666  71.601  1.00  0.00    -0.315 C  
HETATM   44  C   UNL     1      -5.778   4.703  68.076  1.00  0.00    -0.021 C  
HETATM   45  C   UNL     1      -6.342   3.620  67.129  1.00  0.00    -0.037 C  
HETATM   46  C   UNL     1      -6.352   3.996  65.835  1.00  0.00    -0.033 C  
HETATM   47  C   UNL     1      -7.112   2.489  67.782  1.00  0.00    -0.048 C  
HETATM   48  C   UNL     1      -7.272   3.766  64.657  1.00  0.00    -0.066 C  
HETATM   49  C   UNL     1      -7.274   5.230  63.918  1.00  0.00    -0.050 C  
HETATM   50  C   UNL     1      -8.618   3.026  64.868  1.00  0.00    -0.102 C  
HETATM   51  C   UNL     1      -8.942   1.986  63.777  1.00  0.00    -0.092 C  
HETATM   52  O   UNL     1      -6.409   5.393  63.036  1.00  0.00    -0.021 OA 
BRANCH  33  53
HETATM   53  O   UNL     1      -8.222   8.209  73.461  1.00  0.00    -0.188 OA 
HETATM   54  C   UNL     1      -7.344   8.019  74.558  1.00  0.00    -0.185 C  
ENDBRANCH  33  53
BRANCH  32  55
HETATM   55  O   UNL     1      -6.465   5.083  72.587  1.00  0.00    -0.040 OA 
HETATM   56  C   UNL     1      -5.300   5.268  73.367  1.00  0.00    -0.021 C  
ENDBRANCH  32  55
ENDBRANCH   9  11
ENDBRANCH   1   8
BRANCH   5  57
HETATM   57  O   UNL     1      -7.699  18.900  67.619  1.00  0.00    -0.236 OA 
HETATM   58  C   UNL     1      -6.560  19.239  68.388  1.00  0.00    -0.254 C  
ENDBRANCH   5  57
TORSDOF 5
ENDMDL
MODEL        2
REMARK 921   NORMALIZED FREE ENERGY PREDICTED BY IDOCK:   -0.68 KCAL/MOL
REMARK 922        TOTAL FREE ENERGY PREDICTED BY IDOCK:   -1.86 KCAL/MOL
REMARK 923 INTER-LIGAND FREE ENERGY PREDICTED BY IDOCK:   -2.00 KCAL/MOL
REMARK 924 INTRA-LIGAND FREE ENERGY PREDICTED BY IDOCK:    0.15 KCAL/MOL
REMARK 927      BINDING AFFINITY PREDICTED BY RF-SCORE:    0.00 PKD
ROOT
HETATM    1  C   UNL     1      -7.294  14.928  67.613  1.00  0.00    -0.208 C  
HETATM    2 CL   UNL     1      -6.516  18.685  68.629  1.00  0.00    -0.236 Cl 
HETATM    3  C   UNL     1      -5.880  15.547  67.888  1.00  0.00    -0.161 C  
HETATM    4  C   UNL     1      -5.488  16.751  66.995  1.00  0.00    -0.166 C  
HETATM    5  C   UNL     1      -7.873  17.380  66.584  1.00  0.00    -0.257 C  
HETATM    6  C   UNL     1      -8.354  16.142  67.445  1.00  0.00    -0.191 C  
HETATM    7  C   UNL     1      -6.485  17.896  67.006  1.00  0.00    -0.167 C  
ENDROOT
BRANCH   1   8
HETATM    8  C   UNL     1      -7.653  13.477  68.465  1.00  0.00    -0.129 C  
HETATM    9  C   UNL     1      -6.968  12.277  68.681  1.00  0.00    -0.097 C  
HETATM   10  C   UNL     1      -5.515  12.365  68.202  1.00  0.00    -0.064 C  
BRANCH   9  11
HETATM   11  C   UNL     1      -7.145  10.831  69.671  1.00  0.00    -0.136 C  
HETATM   12  C   UNL     1      -5.516   8.696  69.657  1.00  0.00    -0.030 C  
HETATM   13  O   UNL     1      -7.715  10.047  68.625  1.00  0.00    -0.082 OA 
HETATM   14  C   UNL     1      -8.745   9.318  69.050  1.00  0.00    -0.135 C  
HETATM   15  O   UNL     1      -9.259   9.397  70.157  1.00  0.00    -0.198 OA 
HETATM   16  H   UNL     1      -8.443   9.671  72.269  1.00  0.00     0.000 HD 
HETATM   17  C   UNL     1      -9.236   8.399  67.978  1.00  0.00    -0.136 C  
HETATM   18  C   UNL     1     -10.756   8.759  68.015  1.00  0.00    -0.151 C  
HETATM   19  C   UNL     1     -10.997  10.067  67.303  1.00  0.00    -0.225 C  
HETATM   20  C   UNL     1     -10.548   9.865  65.871  1.00  0.00     0.058 C  
HETATM   21  C   UNL     1      -9.050   9.564  65.773  1.00  0.00    -0.196 C  
HETATM   22  N   UNL     1      -8.604   8.456  66.593  1.00  0.00    -0.117 N  
HETATM   23  C   UNL     1      -7.394   7.827  66.088  1.00  0.00    -0.078 C  
HETATM   24  O   UNL     1      -6.770   8.294  65.123  1.00  0.00    -0.055 OA 
HETATM   25  C   UNL     1      -6.760   6.450  66.571  1.00  0.00    -0.056 C  
HETATM   26  C   UNL     1      -7.005   5.050  65.784  1.00  0.00    -0.066 C  
HETATM   27  O   UNL     1      -6.014   6.493  67.540  1.00  0.00    -0.015 OA 
HETATM   28  O   UNL     1      -6.206   4.059  66.493  1.00  0.00    -0.030 OA 
HETATM   29  O   UNL     1      -8.354   4.592  65.877  1.00  0.00    -0.112 OA 
HETATM   30  H   UNL     1      -6.349   3.240  66.033  1.00  0.00     0.000 HD 
HETATM   31  C   UNL     1      -9.251   5.462  65.223  1.00  0.00     0.005 C  
HETATM   32  C   UNL     1     -10.667   5.295  65.792  1.00  0.00     0.105 C  
HETATM   33  C   UNL     1      -9.015   5.529  63.702  1.00  0.00     0.352 C  
HETATM   34  C   UNL     1      -6.321   9.533  70.637  1.00  0.00    -0.086 C  
HETATM   35  C   UNL     1     -10.719   5.485  67.344  1.00  0.00    -0.224 C  
HETATM   36  O   UNL     1      -8.305   8.745  72.431  1.00  0.00    -0.387 OA 
HETATM   37  C   UNL     1      -7.491   5.587  63.372  1.00  0.00    -0.057 C  
HETATM   38  C   UNL     1      -9.931   4.653  68.387  1.00  0.00    -0.134 C  
HETATM   39  C   UNL     1      -7.045   8.367  71.885  1.00  0.00    -0.092 C  
HETATM   40  C   UNL     1      -6.645   4.754  64.324  1.00  0.00    -0.043 C  
HETATM   41  C   UNL     1      -6.790   6.649  72.184  1.00  0.00    -0.067 C  
HETATM   42  C   UNL     1      -8.439   4.943  68.662  1.00  0.00    -0.089 C  
HETATM   43  C   UNL     1      -5.145   4.720  64.031  1.00  0.00    -0.009 C  
HETATM   44  C   UNL     1     -10.619   4.734  69.766  1.00  0.00     0.289 C  
HETATM   45  C   UNL     1      -9.917   3.742  70.720  1.00  0.00    -0.070 C  
HETATM   46  C   UNL     1      -9.434   4.325  71.834  1.00  0.00    -0.201 C  
HETATM   47  C   UNL     1      -9.556   2.390  70.138  1.00  0.00    -0.076 C  
HETATM   48  C   UNL     1      -8.214   4.128  72.707  1.00  0.00    -0.096 C  
HETATM   49  C   UNL     1      -7.782   5.669  73.066  1.00  0.00    -0.101 C  
HETATM   50  C   UNL     1      -7.119   3.119  72.277  1.00  0.00    -0.035 C  
HETATM   51  C   UNL     1      -6.588   2.238  73.427  1.00  0.00    -0.018 C  
HETATM   52  O   UNL     1      -8.280   6.143  74.105  1.00  0.00    -0.108 OA 
BRANCH  33  53
HETATM   53  O   UNL     1      -9.660   6.732  63.258  1.00  0.00     2.440 OA 
HETATM   54  C   UNL     1      -8.890   7.528  62.373  1.00  0.00     0.430 C  
ENDBRANCH  33  53
BRANCH  32  55
HETATM   55  O   UNL     1     -11.413   4.198  65.289  1.00  0.00     0.238 OA 
HETATM   56  C   UNL     1     -11.158   3.810  63.953  1.00  0.00     0.099 C  
ENDBRANCH  32  55
ENDBRANCH   9  11
ENDBRANCH   1   8
BRANCH   5  57
HETATM   57  O   UNL     1      -8.741  18.530  66.654  1.00  0.00    -0.271 OA 
HETATM   58  C   UNL     1     -10.072  18.310  67.082  1.00  0.00    -0.356 C  
ENDBRANCH   5  57
TORSDOF 5
ENDMDL
MODEL        3
REMARK 921   NORMALIZED FREE ENERGY PREDICTED BY IDOCK:   15.68 KCAL/MOL
REMARK 922        TOTAL FREE ENERGY PREDICTED BY IDOCK:   19.29 KCAL/MOL
REMARK 923 INTER-LIGAND FREE ENERGY PREDICTED BY IDOCK:   17.55 KCAL/MOL
REMARK 924 INTRA-LIGAND FREE ENERGY PREDICTED BY IDOCK:    1.74 KCAL/MOL
REMARK 927      BINDING AFFINITY PREDICTED BY RF-SCORE:    0.00 PKD
ROOT
HETATM    1  C   UNL     1      -9.084  15.944  65.604  1.00  0.00    -0.003 C  
HETATM    2 CL   UNL     1      -7.365  18.883  67.644  1.00  0.00    -0.234 Cl 
HETATM    3  C   UNL     1      -7.834  16.781  65.162  1.00  0.00     3.409 C  
HETATM    4  C   UNL     1      -8.050  18.312  65.061  1.00  0.00     2.698 C  
HETATM    5  C   UNL     1      -9.917  18.279  66.724  1.00  0.00    -0.352 C  
HETATM    6  C   UNL     1      -9.789  16.706  66.847  1.00  0.00    -0.267 C  
HETATM    7  C   UNL     1      -8.593  18.956  66.324  1.00  0.00    -0.257 C  
ENDROOT
BRANCH   1   8
HETATM    8  C   UNL     1      -8.902  14.235  65.528  1.00  0.00     1.434 C  
HETATM    9  C   UNL     1      -9.380  13.239  64.671  1.00  0.00     1.030 C  
HETATM   10  C   UNL     1     -10.058  13.840  63.435  1.00  0.00     3.581 C  
BRANCH   9  11
HETATM   11  C   UNL     1      -9.113  11.521  64.385  1.00  0.00     0.193 C  
HETATM   12  C   UNL     1     -10.796   9.531  65.033  1.00  0.00     2.758 C  
HETATM   13  O   UNL     1      -8.719  11.243  65.727  1.00  0.00    -0.181 OA 
HETATM   14  C   UNL     1      -7.664  10.433  65.782  1.00  0.00    -0.146 C  
HETATM   15  O   UNL     1      -6.999  10.072  64.821  1.00  0.00    -0.127 OA 
HETATM   16  H   UNL     1      -7.505   9.446  62.687  1.00  0.00     0.000 HD 
HETATM   17  C   UNL     1      -7.356  10.040  67.191  1.00  0.00    -0.091 C  
HETATM   18  C   UNL     1      -5.835  10.396  67.224  1.00  0.00    -0.052 C  
HETATM   19  C   UNL     1      -5.654  11.886  67.372  1.00  0.00    -0.111 C  
HETATM   20  C   UNL     1      -6.303  12.269  68.686  1.00  0.00    -0.071 C  
HETATM   21  C   UNL     1      -7.809  11.992  68.687  1.00  0.00    -0.091 C  
HETATM   22  N   UNL     1      -8.172  10.636  68.331  1.00  0.00    -0.119 N  
HETATM   23  C   UNL     1      -9.460  10.232  68.873  1.00  0.00    -0.188 C  
HETATM   24  O   UNL     1     -10.196  11.031  69.469  1.00  0.00    -0.139 OA 
HETATM   25  C   UNL     1     -10.065   8.760  68.904  1.00  0.00    -0.198 C  
HETATM   26  C   UNL     1      -9.975   7.805  70.215  1.00  0.00    -0.189 C  
HETATM   27  O   UNL     1     -10.667   8.387  67.907  1.00  0.00    -0.182 OA 
HETATM   28  O   UNL     1     -10.700   6.591  69.863  1.00  0.00    -0.215 OA 
HETATM   29  O   UNL     1      -8.642   7.386  70.505  1.00  0.00    -0.136 OA 
HETATM   30  H   UNL     1     -10.648   6.032  70.630  1.00  0.00     0.000 HD 
HETATM   31  C   UNL     1      -7.817   8.471  70.869  1.00  0.00    -0.107 C  
HETATM   32  C   UNL     1      -6.342   8.126  70.621  1.00  0.00    -0.036 C  
HETATM   33  C   UNL     1      -8.260   9.141  72.185  1.00  0.00     0.594 C  
HETATM   34  C   UNL     1      -9.836   9.922  63.921  1.00  0.00     0.223 C  
HETATM   35  C   UNL     1      -6.069   7.674  69.149  1.00  0.00    -0.034 C  
HETATM   36  O   UNL     1      -7.648   8.530  62.895  1.00  0.00    -0.103 OA 
HETATM   37  C   UNL     1      -9.812   9.285  72.247  1.00  0.00     0.688 C  
HETATM   38  C   UNL     1      -6.730   6.470  68.432  1.00  0.00    -0.068 C  
HETATM   39  C   UNL     1      -8.983   8.371  63.366  1.00  0.00     0.701 C  
HETATM   40  C   UNL     1     -10.544   8.116  71.605  1.00  0.00    -0.292 C  
HETATM   41  C   UNL     1      -9.249   6.672  63.754  1.00  0.00     1.779 C  
HETATM   42  C   UNL     1      -8.160   6.582  67.858  1.00  0.00    -0.116 C  
HETATM   43  C   UNL     1     -12.070   8.162  71.673  1.00  0.00    -0.342 C  
HETATM   44  C   UNL     1      -5.856   6.005  67.249  1.00  0.00    -0.017 C  
HETATM   45  C   UNL     1      -6.449   4.693  66.689  1.00  0.00    -0.041 C  
HETATM   46  C   UNL     1      -6.755   4.762  65.379  1.00  0.00    -0.049 C  
HETATM   47  C   UNL     1      -6.931   3.682  67.711  1.00  0.00    -0.051 C  
HETATM   48  C   UNL     1      -7.847   4.196  64.499  1.00  0.00    -0.085 C  
HETATM   49  C   UNL     1      -8.175   5.447  63.492  1.00  0.00    -0.121 C  
HETATM   50  C   UNL     1      -9.023   3.417  65.143  1.00  0.00    -0.138 C  
HETATM   51  C   UNL     1      -9.416   2.132  64.385  1.00  0.00    -0.128 C  
HETATM   52  O   UNL     1      -7.523   5.474  62.430  1.00  0.00    -0.047 OA 
BRANCH  33  53
HETATM   53  O   UNL     1      -7.644  10.437  72.190  1.00  0.00     3.030 OA 
HETATM   54  C   UNL     1      -6.666  10.634  71.183  1.00  0.00     1.096 C  
ENDBRANCH  33  53
BRANCH  32  55
HETATM   55  O   UNL     1      -5.708   7.347  71.623  1.00  0.00    -0.036 OA 
HETATM   56  C   UNL     1      -5.482   7.974  72.871  1.00  0.00    -0.045 C  
ENDBRANCH  32  55
ENDBRANCH   9  11
ENDBRANCH   1   8
BRANCH   5  57
HETATM   57  O   UNL     1     -10.329  18.942  67.938  1.00  0.00    -0.374 OA 
HETATM   58  C   UNL     1     -10.563  20.336  67.866  1.00  0.00    -0.083 C  
ENDBRANCH   5  57
TORSDOF 5
ENDMDL
MODEL        4
REMARK 921   NORMALIZED FREE ENERGY PREDICTED BY IDOCK:   20.91 KCAL/MOL
REMARK 922        TOTAL FREE ENERGY PREDICTED BY IDOCK:   26.04 KCAL/MOL
REMARK 923 INTER-LIGAND FREE ENERGY PREDICTED BY IDOCK:   26.84 KCAL/MOL
REMARK 924 INTRA-LIGAND FREE ENERGY PREDICTED BY IDOCK:   -0.80 KCAL/MOL
REMARK 927      BINDING AFFINITY PREDICTED BY RF-SCORE:    0.00 PKD
ROOT
HETATM    1  C   UNL     1     -11.403  14.256  69.305  1.00  0.00    -0.322 C  
HETATM    2 CL   UNL     1     -10.116  15.990  65.975  1.00  0.00    -0.337 Cl 
HETATM    3  C   UNL     1     -12.043  14.131  67.880  1.00  0.00    -0.309 C  
HETATM    4  C   UNL     1     -12.488  15.462  67.223  1.00  0.00     1.223 C  
HETATM    5  C   UNL     1     -10.835  16.803  68.534  1.00  0.00    -0.345 C  
HETATM    6  C   UNL     1     -10.357  15.493  69.283  1.00  0.00    -0.252 C  
HETATM    7  C   UNL     1     -11.398  16.515  67.130  1.00  0.00     0.338 C  
ENDROOT
BRANCH   1   8
HETATM    8  C   UNL     1     -11.087  12.771  70.115  1.00  0.00     0.602 C  
HETATM    9  C   UNL     1     -10.316  11.643  69.820  1.00  0.00     0.657 C  
HETATM   10  C   UNL     1      -9.425  11.876  68.595  1.00  0.00    -0.087 C  
BRANCH   9  11
HETATM   11  C   UNL     1      -9.774  10.179  70.638  1.00  0.00     0.482 C  
HETATM   12  C   UNL     1      -7.322   9.095  70.477  1.00  0.00    -0.104 C  
HETATM   13  O   UNL     1      -9.906   9.350  69.485  1.00  0.00    -0.167 OA 
HETATM   14  C   UNL     1     -10.459   8.174  69.775  1.00  0.00    -0.227 C  
HETATM   15  O   UNL     1     -10.941   7.866  70.857  1.00  0.00    -0.235 OA 
HETATM   16  H   UNL     1     -10.342   8.242  73.025  1.00  0.00     0.000 HD 
HETATM   17  C   UNL     1     -10.458   7.267  68.586  1.00  0.00    -0.194 C  
HETATM   18  C   UNL     1     -11.965   6.854  68.584  1.00  0.00     1.350 C  
HETATM   19  C   UNL     1     -12.806   7.965  68.006  1.00  0.00    10.141 C  
HETATM   20  C   UNL     1     -12.325   8.174  66.585  1.00  0.00     8.981 C  
HETATM   21  C   UNL     1     -10.866   8.635  66.532  1.00  0.00     0.547 C  
HETATM   22  N   UNL     1      -9.939   7.783  67.250  1.00  0.00    -0.189 N  
HETATM   23  C   UNL     1      -8.579   7.870  66.743  1.00  0.00    -0.131 C  
HETATM   24  O   UNL     1      -8.260   8.689  65.868  1.00  0.00    -0.111 OA 
HETATM   25  C   UNL     1      -7.360   6.915  67.107  1.00  0.00    -0.090 C  
HETATM   26  C   UNL     1      -6.911   5.671  66.162  1.00  0.00    -0.060 C  
HETATM   27  O   UNL     1      -6.719   7.191  68.112  1.00  0.00    -0.056 OA 
HETATM   28  O   UNL     1      -5.731   5.104  66.800  1.00  0.00    -0.016 OA 
HETATM   29  O   UNL     1      -7.876   4.620  66.135  1.00  0.00    -0.094 OA 
HETATM   30  H   UNL     1      -5.468   4.377  66.248  1.00  0.00     0.000 HD 
HETATM   31  C   UNL     1      -9.084   5.030  65.534  1.00  0.00    -0.158 C  
HETATM   32  C   UNL     1     -10.244   4.143  66.008  1.00  0.00    -0.074 C  
HETATM   33  C   UNL     1      -8.919   5.382  64.043  1.00  0.00     0.232 C  
HETATM   34  C   UNL     1      -8.423   9.325  71.499  1.00  0.00     0.217 C  
HETATM   35  C   UNL     1     -10.370   4.099  67.566  1.00  0.00     0.453 C  
HETATM   36  O   UNL     1      -9.777   7.481  73.093  1.00  0.00    -0.198 OA 
HETATM   37  C   UNL     1      -7.610   6.197  63.800  1.00  0.00    -0.089 C  
HETATM   38  C   UNL     1      -9.274   3.624  68.553  1.00  0.00    -0.220 C  
HETATM   39  C   UNL     1      -8.493   7.815  72.575  1.00  0.00    -0.131 C  
HETATM   40  C   UNL     1      -6.463   5.759  64.699  1.00  0.00    -0.037 C  
HETATM   41  C   UNL     1      -7.446   6.403  72.700  1.00  0.00    -0.091 C  
HETATM   42  C   UNL     1      -8.100   4.553  68.934  1.00  0.00    -0.077 C  
HETATM   43  C   UNL     1      -5.131   6.478  64.482  1.00  0.00    -0.021 C  
HETATM   44  C   UNL     1      -9.908   3.203  69.895  1.00  0.00     0.156 C  
HETATM   45  C   UNL     1      -8.811   2.558  70.771  1.00  0.00    -0.137 C  
HETATM   46  C   UNL     1      -8.658   3.163  71.966  1.00  0.00    -0.098 C  
HETATM   47  C   UNL     1      -7.851   1.621  70.067  1.00  0.00    -0.047 C  
HETATM   48  C   UNL     1      -7.487   3.467  72.873  1.00  0.00    -0.059 C  
HETATM   49  C   UNL     1      -7.843   4.972  73.418  1.00  0.00    -0.100 C  
HETATM   50  C   UNL     1      -6.046   3.159  72.394  1.00  0.00    -0.009 C  
HETATM   51  C   UNL     1      -5.151   2.507  73.468  1.00  0.00     0.000 C  
HETATM   52  O   UNL     1      -8.500   5.025  74.476  1.00  0.00    -0.109 OA 
BRANCH  33  53
HETATM   53  O   UNL     1     -10.063   6.176  63.699  1.00  0.00     3.190 OA 
HETATM   54  C   UNL     1     -10.690   5.819  62.479  1.00  0.00     3.310 C  
ENDBRANCH  33  53
BRANCH  32  55
HETATM   55  O   UNL     1     -10.378   2.891  65.352  1.00  0.00     0.566 OA 
HETATM   56  C   UNL     1      -9.387   1.919  65.625  1.00  0.00     0.083 C  
ENDBRANCH  32  55
ENDBRANCH   9  11
ENDBRANCH   1   8
BRANCH   5  57
HETATM   57  O   UNL     1      -9.798  17.786  68.331  1.00  0.00    -0.309 OA 
HETATM   58  C   UNL     1     -10.098  19.124  68.684  1.00  0.00    -0.398 C  
ENDBRANCH   5  57
TORSDOF 5
ENDMDL
MODEL        5
REMARK 921   NORMALIZED FREE ENERGY PREDICTED BY IDOCK:   21.67 KCAL/MOL
REMARK 922        TOTAL FREE ENERGY PREDICTED BY IDOCK:   27.03 KCAL/MOL
REMARK 923 INTER-LIGAND FREE ENERGY PREDICTED BY IDOCK:   27.93 KCAL/MOL
REMARK 924 INTRA-LIGAND FREE ENERGY PREDICTED BY IDOCK:   -0.90 KCAL/MOL
REMARK 927      BINDING AFFINITY PREDICTED BY RF-SCORE:    0.00 PKD
ROOT
HETATM    1  C   UNL     1      -8.233   4.160  67.612  1.00  0.00    -0.095 C  
HETATM    2 CL   UNL     1      -5.141   3.815  65.148  1.00  0.00    -0.008 Cl 
HETATM    3  C   UNL     1      -6.799   3.641  67.979  1.00  0.00    -0.050 C  
HETATM    4  C   UNL     1      -6.305   2.409  67.180  1.00  0.00    -0.028 C  
HETATM    5  C   UNL     1      -7.775   2.932  65.227  1.00  0.00    -0.081 C  
HETATM    6  C   UNL     1      -8.364   4.183  65.998  1.00  0.00    -0.109 C  
HETATM    7  C   UNL     1      -6.344   2.578  65.672  1.00  0.00    -0.024 C  
ENDROOT
BRANCH   1   8
HETATM    8  C   UNL     1      -8.860   5.400  68.626  1.00  0.00    -0.107 C  
HETATM    9  C   UNL     1      -8.512   6.733  68.867  1.00  0.00    -0.120 C  
HETATM   10  C   UNL     1      -7.457   7.228  67.872  1.00  0.00    -0.102 C  
BRANCH   9  11
HETATM   11  C   UNL     1      -9.180   8.125  69.716  1.00  0.00    -0.151 C  
HETATM   12  C   UNL     1     -11.687   9.061  69.488  1.00  0.00     0.584 C  
HETATM   13  O   UNL     1      -9.052   9.008  68.603  1.00  0.00    -0.136 OA 
HETATM   14  C   UNL     1      -8.588  10.203  68.962  1.00  0.00    -0.156 C  
HETATM   15  O   UNL     1      -8.172  10.495  70.075  1.00  0.00     0.036 OA 
HETATM   16  H   UNL     1      -8.837   9.995  72.198  1.00  0.00     0.000 HD 
HETATM   17  C   UNL     1      -8.597  11.155  67.810  1.00  0.00    -0.131 C  
HETATM   18  C   UNL     1      -7.120  11.661  67.890  1.00  0.00    -0.081 C  
HETATM   19  C   UNL     1      -6.187  10.629  67.309  1.00  0.00    -0.056 C  
HETATM   20  C   UNL     1      -6.594  10.449  65.860  1.00  0.00    -0.123 C  
HETATM   21  C   UNL     1      -8.017   9.901  65.725  1.00  0.00    -0.120 C  
HETATM   22  N   UNL     1      -9.025  10.663  66.433  1.00  0.00    -0.158 N  
HETATM   23  C   UNL     1     -10.355  10.513  65.863  1.00  0.00    -0.206 C  
HETATM   24  O   UNL     1     -10.583   9.713  64.944  1.00  0.00     0.763 OA 
HETATM   25  C   UNL     1     -11.646  11.376  66.208  1.00  0.00     0.193 C  
HETATM   26  C   UNL     1     -12.133  12.626  65.293  1.00  0.00    -0.467 C  
HETATM   27  O   UNL     1     -12.310  11.019  67.172  1.00  0.00     0.739 OA 
HETATM   28  O   UNL     1     -13.373  13.093  65.899  1.00  0.00     0.072 OA 
HETATM   29  O   UNL     1     -11.237  13.736  65.349  1.00  0.00    -0.296 OA 
HETATM   30  H   UNL     1     -13.658  13.825  65.364  1.00  0.00     0.000 HD 
HETATM   31  C   UNL     1      -9.981  13.426  64.787  1.00  0.00    -0.130 C  
HETATM   32  C   UNL     1      -8.901  14.363  65.345  1.00  0.00     1.786 C  
HETATM   33  C   UNL     1     -10.061  13.126  63.277  1.00  0.00     1.979 C  
HETATM   34  C   UNL     1     -10.617   8.858  70.548  1.00  0.00    -0.262 C  
HETATM   35  C   UNL     1      -8.843  14.351  66.909  1.00  0.00    -0.246 C  
HETATM   36  O   UNL     1      -9.451  10.716  72.270  1.00  0.00     6.823 OA 
HETATM   37  C   UNL     1     -11.303  12.243  62.945  1.00  0.00     0.268 C  
HETATM   38  C   UNL     1     -10.007  14.717  67.863  1.00  0.00    -0.213 C  
HETATM   39  C   UNL     1     -10.689  10.324  71.683  1.00  0.00     1.650 C  
HETATM   40  C   UNL     1     -12.513  12.571  63.809  1.00  0.00    -0.552 C  
HETATM   41  C   UNL     1     -11.828  11.662  71.815  1.00  0.00     1.650 C  
HETATM   42  C   UNL     1     -11.135  13.702  68.155  1.00  0.00    -0.281 C  
HETATM   43  C   UNL     1     -13.786  11.781  63.505  1.00  0.00     1.345 C  
HETATM   44  C   UNL     1      -9.459  15.121  69.247  1.00  0.00    -0.212 C  
HETATM   45  C   UNL     1     -10.631  15.660  70.098  1.00  0.00    -0.348 C  
HETATM   46  C   UNL     1     -10.795  14.999  71.260  1.00  0.00     0.073 C  
HETATM   47  C   UNL     1     -11.618  16.564  69.388  1.00  0.00     0.090 C  
HETATM   48  C   UNL     1     -11.981  14.586  72.102  1.00  0.00    -0.176 C  
HETATM   49  C   UNL     1     -11.554  13.084  72.605  1.00  0.00     4.832 C  
HETATM   50  C   UNL     1     -13.418  14.823  71.572  1.00  0.00    -0.473 C  
HETATM   51  C   UNL     1     -14.396  15.374  72.629  1.00  0.00    -0.194 C  
HETATM   52  O   UNL     1     -10.939  13.029  73.687  1.00  0.00     8.340 OA 
BRANCH  33  53
HETATM   53  O   UNL     1      -8.854  12.419  62.955  1.00  0.00     0.673 OA 
HETATM   54  C   UNL     1      -9.052  11.157  62.339  1.00  0.00    -0.239 C  
ENDBRANCH  33  53
BRANCH  32  55
HETATM   55  O   UNL     1      -8.819  15.647  64.745  1.00  0.00     1.904 OA 
HETATM   56  C   UNL     1      -9.335  16.734  65.489  1.00  0.00     0.426 C  
ENDBRANCH  32  55
ENDBRANCH   9  11
ENDBRANCH   1   8
BRANCH   5  57
HETATM   57  O   UNL     1      -7.696   3.096  63.795  1.00  0.00    -0.070 OA 
HETATM   58  C   UNL     1      -8.876   3.497  63.124  1.00  0.00    -0.094 C  
ENDBRANCH   5  57
TORSDOF 5
ENDMDL
MODEL        6
REMARK 921   NORMALIZED FREE ENERGY PREDICTED BY IDOCK:   29.58 KCAL/MOL
REMARK 922        TOTAL FREE ENERGY PREDICTED BY IDOCK:   37.25 KCAL/MOL
REMARK 923 INTER-LIGAND FREE ENERGY PREDICTED BY IDOCK:   38.24 KCAL/MOL
REMARK 924 INTRA-LIGAND FREE ENERGY PREDICTED BY IDOCK:   -0.99 KCAL/MOL
REMARK 927      BINDING AFFINITY PREDICTED BY RF-SCORE:    0.00 PKD
ROOT
HETATM    1  C   UNL     1      -7.743  15.234  66.120  1.00  0.00     1.551 C  
HETATM    2 CL   UNL     1      -6.314  18.328  68.154  1.00  0.00    -0.186 Cl 
HETATM    3  C   UNL     1      -6.323  15.881  65.961  1.00  0.00     3.063 C  
HETATM    4  C   UNL     1      -6.307  17.385  65.590  1.00  0.00     0.259 C  
HETATM    5  C   UNL     1      -8.556  17.785  66.605  1.00  0.00    -0.258 C  
HETATM    6  C   UNL     1      -8.669  16.251  66.977  1.00  0.00    -0.220 C  
HETATM    7  C   UNL     1      -7.099  18.275  66.530  1.00  0.00    -0.224 C  
ENDROOT
BRANCH   1   8
HETATM    8  C   UNL     1      -7.766  13.528  66.340  1.00  0.00     1.522 C  
HETATM    9  C   UNL     1      -7.273  12.442  65.609  1.00  0.00     3.079 C  
HETATM   10  C   UNL     1      -6.363  12.902  64.465  1.00  0.00    11.957 C  
BRANCH   9  11
HETATM   11  C   UNL     1      -7.071  10.705  65.824  1.00  0.00    -0.096 C  
HETATM   12  C   UNL     1      -8.981   8.842  65.520  1.00  0.00    -0.246 C  
HETATM   13  O   UNL     1      -7.655  10.684  67.125  1.00  0.00    -0.095 OA 
HETATM   14  C   UNL     1      -6.971   9.914  67.968  1.00  0.00    -0.077 C  
HETATM   15  O   UNL     1      -5.890   9.392  67.732  1.00  0.00    -0.044 OA 
HETATM   16  H   UNL     1      -4.984   8.379  65.901  1.00  0.00     0.000 HD 
HETATM   17  C   UNL     1      -7.676   9.790  69.281  1.00  0.00    -0.101 C  
HETATM   18  C   UNL     1      -6.497  10.169  70.235  1.00  0.00    -0.128 C  
HETATM   19  C   UNL     1      -6.294  11.663  70.241  1.00  0.00     0.020 C  
HETATM   20  C   UNL     1      -7.586  12.271  70.748  1.00  0.00     5.009 C  
HETATM   21  C   UNL     1      -8.765  11.976  69.817  1.00  0.00     2.138 C  
HETATM   22  N   UNL     1      -8.961  10.572  69.519  1.00  0.00    -0.099 N  
HETATM   23  C   UNL     1     -10.333  10.255  69.154  1.00  0.00    -0.223 C  
HETATM   24  O   UNL     1     -11.189  11.139  69.005  1.00  0.00    -0.212 OA 
HETATM   25  C   UNL     1     -10.972   8.805  69.006  1.00  0.00     0.074 C  
HETATM   26  C   UNL     1     -11.841   8.108  70.189  1.00  0.00     0.315 C  
HETATM   27  O   UNL     1     -10.836   8.246  67.926  1.00  0.00    -0.117 OA 
HETATM   28  O   UNL     1     -12.300   6.839  69.639  1.00  0.00    -0.332 OA 
HETATM   29  O   UNL     1     -11.052   7.769  71.329  1.00  0.00    -0.240 OA 
HETATM   30  H   UNL     1     -12.808   6.431  70.330  1.00  0.00     0.000 HD 
HETATM   31  C   UNL     1     -10.539   8.914  71.972  1.00  0.00    -0.318 C  
HETATM   32  C   UNL     1      -9.291   8.552  72.790  1.00  0.00    -0.168 C  
HETATM   33  C   UNL     1     -11.643   9.807  72.572  1.00  0.00     1.515 C  
HETATM   34  C   UNL     1      -7.499   9.037  65.249  1.00  0.00    -0.093 C  
HETATM   35  C   UNL     1      -8.193   7.842  71.932  1.00  0.00    -0.128 C  
HETATM   36  O   UNL     1      -5.324   7.515  66.101  1.00  0.00    -0.024 OA 
HETATM   37  C   UNL     1     -12.852   9.937  71.594  1.00  0.00    -0.537 C  
HETATM   38  C   UNL     1      -8.370   6.517  71.148  1.00  0.00    -0.122 C  
HETATM   39  C   UNL     1      -6.660   7.424  65.616  1.00  0.00    -0.045 C  
HETATM   40  C   UNL     1     -13.126   8.659  70.815  1.00  0.00     0.361 C  
HETATM   41  C   UNL     1      -7.292   5.821  65.988  1.00  0.00    -0.077 C  
HETATM   42  C   UNL     1      -9.085   6.501  69.778  1.00  0.00    -0.142 C  
HETATM   43  C   UNL     1     -14.331   8.694  69.875  1.00  0.00     3.356 C  
HETATM   44  C   UNL     1      -6.999   5.857  70.896  1.00  0.00    -0.067 C  
HETATM   45  C   UNL     1      -7.236   4.456  70.290  1.00  0.00    -0.049 C  
HETATM   46  C   UNL     1      -6.627   4.279  69.101  1.00  0.00    -0.041 C  
HETATM   47  C   UNL     1      -8.363   3.642  70.895  1.00  0.00    -0.088 C  
HETATM   48  C   UNL     1      -6.962   3.545  67.821  1.00  0.00    -0.051 C  
HETATM   49  C   UNL     1      -6.437   4.585  66.668  1.00  0.00    -0.041 C  
HETATM   50  C   UNL     1      -8.352   2.879  67.660  1.00  0.00    -0.093 C  
HETATM   51  C   UNL     1      -8.308   1.472  67.031  1.00  0.00    -0.082 C  
HETATM   52  O   UNL     1      -5.260   4.427  66.290  1.00  0.00    -0.008 OA 
BRANCH  33  53
HETATM   53  O   UNL     1     -11.037  11.091  72.779  1.00  0.00     6.403 OA 
HETATM   54  C   UNL     1     -11.803  12.191  72.315  1.00  0.00     3.575 C  
ENDBRANCH  33  53
BRANCH  32  55
HETATM   55  O   UNL     1      -9.529   7.979  74.067  1.00  0.00    -0.026 OA 
HETATM   56  C   UNL     1      -8.617   6.988  74.501  1.00  0.00    -0.193 C  
ENDBRANCH  32  55
ENDBRANCH   9  11
ENDBRANCH   1   8
BRANCH   5  57
HETATM   57  O   UNL     1      -9.207  18.675  67.536  1.00  0.00    -0.277 OA 
HETATM   58  C   UNL     1     -10.027  18.085  68.528  1.00  0.00    -0.390 C  
ENDBRANCH   5  57
TORSDOF 5
ENDMDL
MODEL        7
REMARK 921   NORMALIZED FREE ENERGY PREDICTED BY IDOCK:   51.24 KCAL/MOL
REMARK 922        TOTAL FREE ENERGY PREDICTED BY IDOCK:   65.24 KCAL/MOL
REMARK 923 INTER-LIGAND FREE ENERGY PREDICTED BY IDOCK:   65.00 KCAL/MOL
REMARK 924 INTRA-LIGAND FREE ENERGY PREDICTED BY IDOCK:    0.24 KCAL/MOL
REMARK 927      BINDING AFFINITY PREDICTED BY RF-SCORE:    0.00 PKD
ROOT
HETATM    1  C   UNL     1     -10.772   6.749  67.419  1.00  0.00    -0.405 C  
HETATM    2 CL   UNL     1      -7.723   4.234  67.772  1.00  0.00    -0.079 Cl 
HETATM    3  C   UNL     1     -10.051   6.338  68.748  1.00  0.00    -0.191 C  
HETATM    4  C   UNL     1     -10.052   4.823  69.073  1.00  0.00    -0.171 C  
HETATM    5  C   UNL     1     -10.272   4.183  66.666  1.00  0.00     0.126 C  
HETATM    6  C   UNL     1     -10.325   5.711  66.258  1.00  0.00    -0.174 C  
HETATM    7  C   UNL     1      -9.492   3.941  67.972  1.00  0.00    -0.165 C  
ENDROOT
BRANCH   1   8
HETATM    8  C   UNL     1     -10.942   8.440  67.154  1.00  0.00     0.143 C  
HETATM    9  C   UNL     1     -10.199   9.399  66.456  1.00  0.00    -0.308 C  
HETATM   10  C   UNL     1      -9.106   8.750  65.601  1.00  0.00    -0.247 C  
BRANCH   9  11
HETATM   11  C   UNL     1     -10.372  11.082  65.964  1.00  0.00    -0.254 C  
HETATM   12  C   UNL     1      -8.395  12.892  65.800  1.00  0.00     1.594 C  
HETATM   13  O   UNL     1     -10.345  11.592  67.295  1.00  0.00    -0.198 OA 
HETATM   14  C   UNL     1     -11.260  12.540  67.487  1.00  0.00    -0.291 C  
HETATM   15  O   UNL     1     -12.132  12.854  66.687  1.00  0.00    -0.408 OA 
HETATM   16  H   UNL     1     -12.188  13.106  64.421  1.00  0.00     0.000 HD 
HETATM   17  C   UNL     1     -11.122  13.161  68.840  1.00  0.00    -0.266 C  
HETATM   18  C   UNL     1     -12.599  13.025  69.331  1.00  0.00     0.385 C  
HETATM   19  C   UNL     1     -12.872  11.609  69.772  1.00  0.00     0.415 C  
HETATM   20  C   UNL     1     -11.919  11.324  70.914  1.00  0.00    -0.319 C  
HETATM   21  C   UNL     1     -10.454  11.388  70.473  1.00  0.00     2.032 C  
HETATM   22  N   UNL     1     -10.079  12.621  69.809  1.00  0.00     1.284 N  
HETATM   23  C   UNL     1      -8.659  12.914  69.918  1.00  0.00     2.865 C  
HETATM   24  O   UNL     1      -7.864  12.109  70.426  1.00  0.00     2.345 OA 
HETATM   25  C   UNL     1      -7.933  14.278  69.539  1.00  0.00     0.321 C  
HETATM   26  C   UNL     1      -7.559  15.407  70.646  1.00  0.00     1.333 C  
HETATM   27  O   UNL     1      -7.602  14.425  68.370  1.00  0.00    -0.107 OA 
HETATM   28  O   UNL     1      -6.851  16.450  69.916  1.00  0.00    -0.103 OA 
HETATM   29  O   UNL     1      -8.712  16.041  71.201  1.00  0.00     3.347 OA 
HETATM   30  H   UNL     1      -6.633  17.110  70.563  1.00  0.00     0.000 HD 
HETATM   31  C   UNL     1      -9.500  15.141  71.947  1.00  0.00     4.352 C  
HETATM   32  C   UNL     1     -10.945  15.648  72.040  1.00  0.00     0.253 C  
HETATM   33  C   UNL     1      -8.771  14.603  73.194  1.00  0.00     9.234 C  
HETATM   34  C   UNL     1      -9.661  12.488  65.062  1.00  0.00     0.098 C  
HETATM   35  C   UNL     1     -11.577  15.927  70.636  1.00  0.00    -0.426 C  
HETATM   36  O   UNL     1     -11.906  14.013  64.427  1.00  0.00    -0.408 OA 
HETATM   37  C   UNL     1      -7.285  14.256  72.870  1.00  0.00     4.452 C  
HETATM   38  C   UNL     1     -11.033  16.919  69.577  1.00  0.00    -0.053 C  
HETATM   39  C   UNL     1     -10.484  14.051  64.496  1.00  0.00    -0.259 C  
HETATM   40  C   UNL     1      -6.656  15.214  71.870  1.00  0.00     1.635 C  
HETATM   41  C   UNL     1      -9.960  15.733  64.507  1.00  0.00     1.486 C  
HETATM   42  C   UNL     1      -9.839  16.533  68.676  1.00  0.00    -0.250 C  
HETATM   43  C   UNL     1      -5.183  14.968  71.542  1.00  0.00    -0.100 C  
HETATM   44  C   UNL     1     -12.156  17.333  68.604  1.00  0.00     2.300 C  
HETATM   45  C   UNL     1     -11.622  18.462  67.695  1.00  0.00     1.265 C  
HETATM   46  C   UNL     1     -11.705  18.173  66.382  1.00  0.00     2.447 C  
HETATM   47  C   UNL     1     -10.779  19.527  68.368  1.00  0.00    -0.042 C  
HETATM   48  C   UNL     1     -10.854  18.458  65.163  1.00  0.00     0.825 C  
HETATM   49  C   UNL     1     -10.943  17.047  64.332  1.00  0.00     1.008 C  
HETATM   50  C   UNL     1      -9.477  19.148  65.334  1.00  0.00     1.119 C  
HETATM   51  C   UNL     1      -9.193  20.250  64.293  1.00  0.00     4.416 C  
HETATM   52  O   UNL     1     -11.866  16.965  63.499  1.00  0.00     0.423 OA 
BRANCH  33  53
HETATM   53  O   UNL     1      -9.480  13.416  73.580  1.00  0.00    11.263 OA 
HETATM   54  C   UNL     1     -10.837  13.624  73.935  1.00  0.00     7.498 C  
ENDBRANCH  33  53
BRANCH  32  55
HETATM   55  O   UNL     1     -11.196  16.637  73.026  1.00  0.00     0.613 OA 
HETATM   56  C   UNL     1     -12.452  16.586  73.676  1.00  0.00    -0.380 C  
ENDBRANCH  32  55
ENDBRANCH   9  11
ENDBRANCH   1   8
BRANCH   5  57
HETATM   57  O   UNL     1      -9.648   3.324  65.688  1.00  0.00    -0.135 OA 
HETATM   58  C   UNL     1      -9.143   3.939  64.518  1.00  0.00    -0.137 C  
ENDBRANCH   5  57
TORSDOF 5
ENDMDL
MODEL        8
REMARK 921   NORMALIZED FREE ENERGY PREDICTED BY IDOCK:   55.89 KCAL/MOL
REMARK 922        TOTAL FREE ENERGY PREDICTED BY IDOCK:   71.25 KCAL/MOL
REMARK 923 INTER-LIGAND FREE ENERGY PREDICTED BY IDOCK:   72.04 KCAL/MOL
REMARK 924 INTRA-LIGAND FREE ENERGY PREDICTED BY IDOCK:   -0.79 KCAL/MOL
REMARK 927      BINDING AFFINITY PREDICTED BY RF-SCORE:    0.00 PKD
ROOT
HETATM    1  C   UNL     1     -11.516  17.246  67.760  1.00  0.00     0.544 C  
HETATM    2 CL   UNL     1     -11.393  17.912  63.849  1.00  0.00     4.779 Cl 
HETATM    3  C   UNL     1     -12.711  17.117  66.752  1.00  0.00     5.904 C  
HETATM    4  C   UNL     1     -13.061  18.399  65.957  1.00  0.00    12.300 C  
HETATM    5  C   UNL     1     -10.741  19.308  66.162  1.00  0.00    -0.386 C  
HETATM    6  C   UNL     1     -10.318  18.049  67.023  1.00  0.00    -0.377 C  
HETATM    7  C   UNL     1     -11.898  19.005  65.192  1.00  0.00     4.090 C  
ENDROOT
BRANCH   1   8
HETATM    8  C   UNL     1     -11.251  15.888  68.781  1.00  0.00    -0.359 C  
HETATM    9  C   UNL     1     -10.955  14.539  68.555  1.00  0.00    -0.261 C  
HETATM   10  C   UNL     1     -10.620  14.276  67.083  1.00  0.00    -0.279 C  
BRANCH   9  11
HETATM   11  C   UNL     1     -10.481  13.129  69.499  1.00  0.00     0.508 C  
HETATM   12  C   UNL     1      -8.008  12.094  69.661  1.00  0.00     1.224 C  
HETATM   13  O   UNL     1     -10.472  12.243  68.381  1.00  0.00    -0.221 OA 
HETATM   14  C   UNL     1     -11.033  11.070  68.668  1.00  0.00    -0.224 C  
HETATM   15  O   UNL     1     -11.626  10.804  69.704  1.00  0.00    -0.264 OA 
HETATM   16  H   UNL     1     -11.275  11.295  71.904  1.00  0.00     0.000 HD 
HETATM   17  C   UNL     1     -10.886  10.108  67.533  1.00  0.00    -0.290 C  
HETATM   18  C   UNL     1     -12.376   9.662  67.387  1.00  0.00     6.005 C  
HETATM   19  C   UNL     1     -13.168  10.724  66.666  1.00  0.00    10.866 C  
HETATM   20  C   UNL     1     -12.537  10.876  65.297  1.00  0.00     4.389 C  
HETATM   21  C   UNL     1     -11.089  11.367  65.381  1.00  0.00    -0.128 C  
HETATM   22  N   UNL     1     -10.232  10.572  66.237  1.00  0.00    -0.237 N  
HETATM   23  C   UNL     1      -8.826  10.665  65.877  1.00  0.00    -0.174 C  
HETATM   24  O   UNL     1      -8.428  11.448  65.002  1.00  0.00     0.175 OA 
HETATM   25  C   UNL     1      -7.638   9.755  66.419  1.00  0.00    -0.099 C  
HETATM   26  C   UNL     1      -7.067   8.479  65.592  1.00  0.00    -0.079 C  
HETATM   27  O   UNL     1      -7.117  10.093  67.473  1.00  0.00    -0.085 OA 
HETATM   28  O   UNL     1      -5.955   7.969  66.382  1.00  0.00    -0.040 OA 
HETATM   29  O   UNL     1      -8.005   7.406  65.512  1.00  0.00    -0.107 OA 
HETATM   30  H   UNL     1      -5.620   7.222  65.899  1.00  0.00     0.000 HD 
HETATM   31  C   UNL     1      -9.147   7.760  64.763  1.00  0.00     0.811 C  
HETATM   32  C   UNL     1     -10.336   6.870  65.151  1.00  0.00     3.574 C  
HETATM   33  C   UNL     1      -8.825   8.044  63.283  1.00  0.00     0.689 C  
HETATM   34  C   UNL     1      -9.219  12.347  70.544  1.00  0.00     6.566 C  
HETATM   35  C   UNL     1     -10.633   6.898  66.687  1.00  0.00    -0.197 C  
HETATM   36  O   UNL     1     -10.708  10.551  72.070  1.00  0.00     2.424 OA 
HETATM   37  C   UNL     1      -7.511   8.875  63.144  1.00  0.00    -0.101 C  
HETATM   38  C   UNL     1      -9.644   6.495  67.810  1.00  0.00    -0.125 C  
HETATM   39  C   UNL     1      -9.381  10.889  71.679  1.00  0.00     8.336 C  
HETATM   40  C   UNL     1      -6.463   8.507  64.183  1.00  0.00    -0.071 C  
HETATM   41  C   UNL     1      -8.330   9.509  71.988  1.00  0.00     1.415 C  
HETATM   42  C   UNL     1      -8.534   7.467  68.270  1.00  0.00    -0.125 C  
HETATM   43  C   UNL     1      -5.128   9.244  64.077  1.00  0.00    -0.058 C  
HETATM   44  C   UNL     1     -10.414   6.124  69.094  1.00  0.00    -0.310 C  
HETATM   45  C   UNL     1      -9.409   5.546  70.116  1.00  0.00    -0.185 C  
HETATM   46  C   UNL     1      -9.398   6.211  71.288  1.00  0.00    -0.170 C  
HETATM   47  C   UNL     1      -8.361   4.598  69.568  1.00  0.00    -0.080 C  
HETATM   48  C   UNL     1      -8.339   6.584  72.301  1.00  0.00    -0.106 C  
HETATM   49  C   UNL     1      -8.779   8.105  72.729  1.00  0.00    -0.217 C  
HETATM   50  C   UNL     1      -6.849   6.286  71.998  1.00  0.00    -0.072 C  
HETATM   51  C   UNL     1      -6.067   5.706  73.194  1.00  0.00    -0.051 C  
HETATM   52  O   UNL     1      -9.549   8.193  73.704  1.00  0.00    -0.168 OA 
BRANCH  33  53
HETATM   53  O   UNL     1      -9.938   8.795  62.778  1.00  0.00     2.433 OA 
HETATM   54  C   UNL     1      -9.625  10.114  62.361  1.00  0.00    -0.104 C  
ENDBRANCH  33  53
BRANCH  32  55
HETATM   55  O   UNL     1     -10.376   5.586  64.548  1.00  0.00     1.372 OA 
HETATM   56  C   UNL     1     -10.199   4.473  65.403  1.00  0.00    -0.202 C  
ENDBRANCH  32  55
ENDBRANCH   9  11
ENDBRANCH   1   8
BRANCH   5  57
HETATM   57  O   UNL     1      -9.688  19.850  65.337  1.00  0.00    -0.218 OA 
HETATM   58  C   UNL     1      -8.371  19.798  65.854  1.00  0.00    -0.195 C  
ENDBRANCH   5  57
TORSDOF 5
ENDMDL
MODEL        9
REMARK 921   NORMALIZED FREE ENERGY PREDICTED BY IDOCK:   88.10 KCAL/MOL
REMARK 922        TOTAL FREE ENERGY PREDICTED BY IDOCK:  112.87 KCAL/MOL
REMARK 923 INTER-LIGAND FREE ENERGY PREDICTED BY IDOCK:  111.28 KCAL/MOL
REMARK 924 INTRA-LIGAND FREE ENERGY PREDICTED BY IDOCK:    1.60 KCAL/MOL
REMARK 927      BINDING AFFINITY PREDICTED BY RF-SCORE:    0.00 PKD
ROOT
HETATM    1  C   UNL     1      -7.876   7.302  67.018  1.00  0.00    -0.112 C  
HETATM    2 CL   UNL     1      -9.821   4.111  65.681  1.00  0.00    -0.201 Cl 
HETATM    3  C   UNL     1      -7.310   6.196  66.061  1.00  0.00    -0.080 C  
HETATM    4  C   UNL     1      -7.334   4.750  66.615  1.00  0.00    -0.082 C  
HETATM    5  C   UNL     1      -9.243   5.241  68.154  1.00  0.00    -0.113 C  
HETATM    6  C   UNL     1      -9.251   6.749  67.672  1.00  0.00    -0.118 C  
HETATM    7  C   UNL     1      -8.699   4.277  67.084  1.00  0.00    -0.106 C  
ENDROOT
BRANCH   1   8
HETATM    8  C   UNL     1      -7.673   8.925  66.487  1.00  0.00    -0.099 C  
HETATM    9  C   UNL     1      -8.484  10.064  66.496  1.00  0.00    -0.128 C  
HETATM   10  C   UNL     1      -9.753   9.844  67.326  1.00  0.00    -0.213 C  
BRANCH   9  11
HETATM   11  C   UNL     1      -8.321  11.787  66.165  1.00  0.00     0.102 C  
HETATM   12  C   UNL     1      -6.352  13.387  67.045  1.00  0.00     0.779 C  
HETATM   13  O   UNL     1      -8.833  12.195  67.433  1.00  0.00    -0.167 OA 
HETATM   14  C   UNL     1      -9.680  13.216  67.326  1.00  0.00    -0.230 C  
HETATM   15  O   UNL     1     -10.104  13.677  66.275  1.00  0.00    -0.284 OA 
HETATM   16  H   UNL     1      -9.171  14.097  64.237  1.00  0.00     0.000 HD 
HETATM   17  C   UNL     1     -10.092  13.719  68.672  1.00  0.00    -0.193 C  
HETATM   18  C   UNL     1     -11.643  13.704  68.481  1.00  0.00    -0.371 C  
HETATM   19  C   UNL     1     -12.168  12.296  68.608  1.00  0.00     0.051 C  
HETATM   20  C   UNL     1     -11.815  11.831  70.006  1.00  0.00    -0.422 C  
HETATM   21  C   UNL     1     -10.301  11.773  70.228  1.00  0.00     2.117 C  
HETATM   22  N   UNL     1      -9.600  13.004  69.923  1.00  0.00     2.195 N  
HETATM   23  C   UNL     1      -8.347  13.138  70.649  1.00  0.00     6.153 C  
HETATM   24  O   UNL     1      -7.898  12.220  71.351  1.00  0.00     7.457 OA 
HETATM   25  C   UNL     1      -7.443  14.443  70.761  1.00  0.00     1.587 C  
HETATM   26  C   UNL     1      -7.506  15.443  72.040  1.00  0.00     4.916 C  
HETATM   27  O   UNL     1      -6.636  14.638  69.863  1.00  0.00    -0.154 OA 
HETATM   28  O   UNL     1      -6.489  16.456  71.794  1.00  0.00     2.482 OA 
HETATM   29  O   UNL     1      -8.742  16.153  72.127  1.00  0.00     8.318 OA 
HETATM   30  H   UNL     1      -6.526  17.041  72.541  1.00  0.00     0.000 HD 
HETATM   31  C   UNL     1      -9.829  15.288  72.370  1.00  0.00     4.613 C  
HETATM   32  C   UNL     1     -11.140  15.935  71.905  1.00  0.00     0.171 C  
HETATM   33  C   UNL     1      -9.739  14.587  73.741  1.00  0.00     8.315 C  
HETATM   34  C   UNL     1      -7.205  13.173  65.805  1.00  0.00     4.816 C  
HETATM   35  C   UNL     1     -11.092  16.381  70.406  1.00  0.00    -0.246 C  
HETATM   36  O   UNL     1      -8.861  14.967  64.460  1.00  0.00     3.068 OA 
HETATM   37  C   UNL     1      -8.282  14.111  74.033  1.00  0.00     8.665 C  
HETATM   38  C   UNL     1     -10.086  17.384  69.789  1.00  0.00     0.312 C  
HETATM   39  C   UNL     1      -7.605  14.850  65.122  1.00  0.00     8.920 C  
HETATM   40  C   UNL     1      -7.226  15.068  73.500  1.00  0.00     5.629 C  
HETATM   41  C   UNL     1      -7.029  16.463  65.537  1.00  0.00     3.105 C  
HETATM   42  C   UNL     1      -8.649  16.942  69.434  1.00  0.00     0.254 C  
HETATM   43  C   UNL     1      -5.773  14.693  73.795  1.00  0.00     0.164 C  
HETATM   44  C   UNL     1     -10.657  17.984  68.487  1.00  0.00    -0.186 C  
HETATM   45  C   UNL     1      -9.714  19.113  68.015  1.00  0.00    -0.414 C  
HETATM   46  C   UNL     1      -9.247  18.930  66.765  1.00  0.00    -0.335 C  
HETATM   47  C   UNL     1      -9.173  20.032  69.092  1.00  0.00     0.120 C  
HETATM   48  C   UNL     1      -7.942  19.212  66.054  1.00  0.00    -0.234 C  
HETATM   49  C   UNL     1      -7.757  17.882  65.112  1.00  0.00     1.982 C  
HETATM   50  C   UNL     1      -6.728  19.740  66.861  1.00  0.00    -0.213 C  
HETATM   51  C   UNL     1      -5.956  20.879  66.163  1.00  0.00    -0.290 C  
HETATM   52  O   UNL     1      -8.239  17.958  63.966  1.00  0.00     8.195 OA 
BRANCH  33  53
HETATM   53  O   UNL     1     -10.619  13.457  73.660  1.00  0.00     7.493 OA 
HETATM   54  C   UNL     1     -11.998  13.768  73.778  1.00  0.00     2.747 C  
ENDBRANCH  33  53
BRANCH  32  55
HETATM   55  O   UNL     1     -11.724  16.871  72.798  1.00  0.00    -0.336 OA 
HETATM   56  C   UNL     1     -12.503  17.902  72.222  1.00  0.00     6.916 C  
ENDBRANCH  32  55
ENDBRANCH   9  11
ENDBRANCH   1   8
BRANCH   5  57
HETATM   57  O   UNL     1     -10.542   4.720  68.507  1.00  0.00     0.108 OA 
HETATM   58  C   UNL     1     -11.136   3.802  67.608  1.00  0.00     4.852 C  
ENDBRANCH   5  57
TORSDOF 5
ENDMDL
MODEL       10
REMARK 921   NORMALIZED FREE ENERGY PREDICTED BY IDOCK:   99.65 KCAL/MOL
REMARK 922        TOTAL FREE ENERGY PREDICTED BY IDOCK:  127.81 KCAL/MOL
REMARK 923 INTER-LIGAND FREE ENERGY PREDICTED BY IDOCK:  128.68 KCAL/MOL
REMARK 924 INTRA-LIGAND FREE ENERGY PREDICTED BY IDOCK:   -0.87 KCAL/MOL
REMARK 927      BINDING AFFINITY PREDICTED BY RF-SCORE:    0.00 PKD
ROOT
HETATM    1  C   UNL     1      -9.489   6.539  67.803  1.00  0.00    -0.119 C  
HETATM    2 CL   UNL     1      -6.849   5.391  65.071  1.00  0.00    -0.048 Cl 
HETATM    3  C   UNL     1      -8.245   5.614  68.037  1.00  0.00    -0.100 C  
HETATM    4  C   UNL     1      -8.201   4.318  67.190  1.00  0.00    -0.100 C  
HETATM    5  C   UNL     1      -9.610   5.310  65.378  1.00  0.00     0.065 C  
HETATM    6  C   UNL     1      -9.741   6.652  66.207  1.00  0.00    -0.057 C  
HETATM    7  C   UNL     1      -8.314   4.540  65.692  1.00  0.00    -0.115 C  
ENDROOT
BRANCH   1   8
HETATM    8  C   UNL     1      -9.640   7.875  68.876  1.00  0.00    -0.155 C  
HETATM    9  C   UNL     1      -8.854   8.997  69.156  1.00  0.00    -0.142 C  
HETATM   10  C   UNL     1      -7.707   9.144  68.150  1.00  0.00    -0.092 C  
BRANCH   9  11
HETATM   11  C   UNL     1      -8.993  10.496  70.071  1.00  0.00     0.490 C  
HETATM   12  C   UNL     1     -11.246  11.903  70.465  1.00  0.00     0.844 C  
HETATM   13  O   UNL     1      -9.010  11.332  68.916  1.00  0.00    -0.142 OA 
HETATM   14  C   UNL     1      -8.250  12.415  69.070  1.00  0.00     0.354 C  
HETATM   15  O   UNL     1      -7.500  12.624  70.014  1.00  0.00     1.013 OA 
HETATM   16  H   UNL     1      -7.644  12.271  72.263  1.00  0.00     0.000 HD 
HETATM   17  C   UNL     1      -8.393  13.346  67.910  1.00  0.00    -0.166 C  
HETATM   18  C   UNL     1      -6.883  13.553  67.567  1.00  0.00    -0.156 C  
HETATM   19  C   UNL     1      -6.353  12.357  66.817  1.00  0.00     0.372 C  
HETATM   20  C   UNL     1      -7.164  12.255  65.542  1.00  0.00     3.064 C  
HETATM   21  C   UNL     1      -8.647  11.995  65.821  1.00  0.00     0.399 C  
HETATM   22  N   UNL     1      -9.264  12.943  66.727  1.00  0.00    -0.233 N  
HETATM   23  C   UNL     1     -10.702  13.053  66.540  1.00  0.00    -0.278 C  
HETATM   24  O   UNL     1     -11.317  12.310  65.762  1.00  0.00    -0.326 OA 
HETATM   25  C   UNL     1     -11.665  14.153  67.167  1.00  0.00    -0.403 C  
HETATM   26  C   UNL     1     -12.140  15.472  66.345  1.00  0.00     0.774 C  
HETATM   27  O   UNL     1     -12.097  13.937  68.292  1.00  0.00    -0.366 OA 
HETATM   28  O   UNL     1     -13.058  16.174  67.231  1.00  0.00     2.718 OA 
HETATM   29  O   UNL     1     -11.071  16.385  66.098  1.00  0.00    -0.030 OA 
HETATM   30  H   UNL     1     -13.336  16.945  66.751  1.00  0.00     0.000 HD 
HETATM   31  C   UNL     1     -10.096  15.833  65.241  1.00  0.00    -0.222 C  
HETATM   32  C   UNL     1      -8.749  16.543  65.438  1.00  0.00     1.260 C  
HETATM   33  C   UNL     1     -10.637  15.549  63.826  1.00  0.00     2.941 C  
HETATM   34  C   UNL     1      -9.986  11.499  71.213  1.00  0.00     7.591 C  
HETATM   35  C   UNL     1      -8.272  16.526  66.928  1.00  0.00    -0.250 C  
HETATM   36  O   UNL     1      -8.070  13.099  72.455  1.00  0.00    11.108 OA 
HETATM   37  C   UNL     1     -12.066  14.925  63.887  1.00  0.00     0.024 C  
HETATM   38  C   UNL     1      -9.043  17.115  68.135  1.00  0.00    -0.247 C  
HETATM   39  C   UNL     1      -9.471  12.955  72.241  1.00  0.00    19.208 C  
HETATM   40  C   UNL     1     -12.912  15.486  65.021  1.00  0.00     1.198 C  
HETATM   41  C   UNL     1     -10.260  14.490  72.595  1.00  0.00     4.757 C  
HETATM   42  C   UNL     1     -10.219  16.342  68.774  1.00  0.00    -0.249 C  
HETATM   43  C   UNL     1     -14.344  14.959  65.112  1.00  0.00     4.687 C  
HETATM   44  C   UNL     1      -8.074  17.409  69.298  1.00  0.00     0.154 C  
HETATM   45  C   UNL     1      -8.847  18.171  70.398  1.00  0.00     3.454 C  
HETATM   46  C   UNL     1      -8.810  17.558  71.597  1.00  0.00    11.219 C  
HETATM   47  C   UNL     1      -9.804  19.248  69.926  1.00  0.00     0.412 C  
HETATM   48  C   UNL     1      -9.779  17.388  72.747  1.00  0.00    10.662 C  
HETATM   49  C   UNL     1      -9.520  15.834  73.201  1.00  0.00    10.009 C  
HETATM   50  C   UNL     1     -11.235  17.900  72.604  1.00  0.00     2.367 C  
HETATM   51  C   UNL     1     -11.768  18.636  73.851  1.00  0.00     2.934 C  
HETATM   52  O   UNL     1      -8.656  15.664  74.083  1.00  0.00    12.875 OA 
BRANCH  33  53
HETATM   53  O   UNL     1      -9.719  14.618  63.235  1.00  0.00     5.845 OA 
HETATM   54  C   UNL     1     -10.275  13.353  62.921  1.00  0.00     4.390 C  
ENDBRANCH  33  53
BRANCH  32  55
HETATM   55  O   UNL     1      -8.595  17.783  64.765  1.00  0.00     2.941 OA 
HETATM   56  C   UNL     1      -8.573  18.947  65.570  1.00  0.00     0.945 C  
ENDBRANCH  32  55
ENDBRANCH   9  11
ENDBRANCH   1   8
BRANCH   5  57
HETATM   57  O   UNL     1      -9.606   5.490  63.946  1.00  0.00     0.738 OA 
HETATM   58  C   UNL     1     -10.623   4.837  63.210  1.00  0.00     0.861 C  
ENDBRANCH   5  57
TORSDOF 5
ENDMDL
