MODEL        1
REMARK 921   NORMALIZED FREE ENERGY PREDICTED BY IDOCK:   -7.92 KCAL/MOL
REMARK 922        TOTAL FREE ENERGY PREDICTED BY IDOCK:  -10.56 KCAL/MOL
REMARK 923 INTER-LIGAND FREE ENERGY PREDICTED BY IDOCK:   -9.77 KCAL/MOL
REMARK 924 INTRA-LIGAND FREE ENERGY PREDICTED BY IDOCK:   -0.79 KCAL/MOL
REMARK 927      BINDING AFFINITY PREDICTED BY RF-SCORE:    0.00 PKD
ROOT
HETATM    1  F   UNL     1     -14.279   9.823  73.059  1.00  0.00    -0.083 F  
HETATM    2  C   UNL     1     -13.552   9.019  72.271  1.00  0.00    -0.484 A  
HETATM    3  C   UNL     1     -14.149   7.924  71.664  1.00  0.00    -0.528 A  
HETATM    4  C   UNL     1     -13.383   7.076  70.856  1.00  0.00     0.062 A  
HETATM    5  C   UNL     1     -12.009   7.318  70.644  1.00  0.00    -0.259 A  
HETATM    6  C   UNL     1     -11.176   6.326  69.812  1.00  0.00    -0.499 C  
HETATM    7  C   UNL     1     -11.441   8.437  71.276  1.00  0.00    -0.325 A  
HETATM    8  C   UNL     1     -10.598   6.909  68.485  1.00  0.00    -0.247 C  
HETATM    9  C   UNL     1     -12.205   9.284  72.083  1.00  0.00    -0.377 A  
HETATM   10  C   UNL     1     -10.232   5.402  70.595  1.00  0.00    -0.323 A  
HETATM   11  C   UNL     1     -10.055   5.489  71.985  1.00  0.00    -0.233 A  
HETATM   12  F   UNL     1      -7.901   2.639  72.637  1.00  0.00    -0.049 F  
HETATM   13  C   UNL     1      -9.595   4.343  69.921  1.00  0.00    -0.275 A  
HETATM   14  C   UNL     1      -9.257   4.566  72.672  1.00  0.00    -0.145 A  
HETATM   15  C   UNL     1      -8.640   3.537  71.973  1.00  0.00    -0.086 A  
HETATM   16  C   UNL     1      -8.799   3.417  70.602  1.00  0.00    -0.143 A  
ENDROOT
BRANCH   8  17
HETATM   17  C   UNL     1      -9.667   8.128  68.487  1.00  0.00    -0.170 C  
BRANCH  17  18
HETATM   18  C   UNL     1      -9.914   9.252  67.475  1.00  0.00    -0.202 C  
BRANCH  18  19
HETATM   19  N   UNL     1      -9.701  10.634  67.905  1.00  0.00    -0.159 NA 
HETATM   20  C   UNL     1     -11.357  12.401  66.958  1.00  0.00    -0.388 C  
HETATM   21  C   UNL     1      -9.976  11.702  66.932  1.00  0.00    -0.202 C  
HETATM   22  C   UNL     1     -12.033  12.512  68.342  1.00  0.00    -0.221 C  
HETATM   23  C   UNL     1     -11.849  11.160  69.032  1.00  0.00    -0.418 C  
HETATM   24  C   UNL     1     -10.359  10.881  69.193  1.00  0.00    -0.208 C  
BRANCH  22  25
HETATM   25  N   UNL     1     -11.635  13.636  69.202  1.00  0.00    -0.287 N  
HETATM   26  C   UNL     1     -10.632  14.607  68.963  1.00  0.00    -0.247 C  
HETATM   27  O   UNL     1      -9.914  14.751  67.990  1.00  0.00    -0.214 OA 
HETATM   28  N   UNL     1     -10.593  15.436  70.095  1.00  0.00    -0.305 NA 
HETATM   29  C   UNL     1     -11.520  14.996  71.020  1.00  0.00    -0.300 A  
HETATM   30  C   UNL     1     -11.789  15.501  72.278  1.00  0.00    -0.560 A  
HETATM   31  C   UNL     1     -12.748  14.833  73.035  1.00  0.00    -0.548 A  
HETATM   32  C   UNL     1     -13.412  13.702  72.522  1.00  0.00    -0.675 A  
HETATM   33  C   UNL     1     -13.142  13.230  71.229  1.00  0.00    -0.299 A  
HETATM   34  C   UNL     1     -12.174  13.886  70.492  1.00  0.00    -0.373 A  
ENDBRANCH  22  25
ENDBRANCH  18  19
ENDBRANCH  17  18
ENDBRANCH   8  17
TORSDOF 4
ENDMDL
MODEL        2
REMARK 921   NORMALIZED FREE ENERGY PREDICTED BY IDOCK:   -7.76 KCAL/MOL
REMARK 922        TOTAL FREE ENERGY PREDICTED BY IDOCK:  -10.36 KCAL/MOL
REMARK 923 INTER-LIGAND FREE ENERGY PREDICTED BY IDOCK:  -10.18 KCAL/MOL
REMARK 924 INTRA-LIGAND FREE ENERGY PREDICTED BY IDOCK:   -0.18 KCAL/MOL
REMARK 927      BINDING AFFINITY PREDICTED BY RF-SCORE:    0.00 PKD
ROOT
HETATM    1  F   UNL     1      -7.387  19.704  68.203  1.00  0.00    -0.298 F  
HETATM    2  C   UNL     1      -8.346  18.769  68.214  1.00  0.00    -0.330 A  
HETATM    3  C   UNL     1      -9.661  19.128  67.956  1.00  0.00    -0.414 A  
HETATM    4  C   UNL     1     -10.665  18.152  67.986  1.00  0.00    -0.297 A  
HETATM    5  C   UNL     1     -10.361  16.805  68.273  1.00  0.00    -0.319 A  
HETATM    6  C   UNL     1     -11.495  15.768  68.373  1.00  0.00    -0.367 C  
HETATM    7  C   UNL     1      -9.018  16.481  68.529  1.00  0.00    -0.231 A  
HETATM    8  C   UNL     1     -11.454  14.645  67.291  1.00  0.00    -0.386 C  
HETATM    9  C   UNL     1      -8.016  17.454  68.499  1.00  0.00    -0.266 A  
HETATM   10  C   UNL     1     -11.878  15.309  69.788  1.00  0.00    -0.357 A  
HETATM   11  C   UNL     1     -11.194  15.731  70.940  1.00  0.00    -0.404 A  
HETATM   12  F   UNL     1     -13.209  14.255  73.577  1.00  0.00    -0.515 F  
HETATM   13  C   UNL     1     -13.031  14.522  69.965  1.00  0.00     0.068 A  
HETATM   14  C   UNL     1     -11.634  15.363  72.218  1.00  0.00    -0.554 A  
HETATM   15  C   UNL     1     -12.774  14.581  72.353  1.00  0.00    -0.333 A  
HETATM   16  C   UNL     1     -13.477  14.154  71.238  1.00  0.00    -0.341 A  
ENDROOT
BRANCH   8  17
HETATM   17  C   UNL     1     -10.238  13.721  67.146  1.00  0.00    -0.244 C  
BRANCH  17  18
HETATM   18  C   UNL     1     -10.297  12.573  66.132  1.00  0.00    -0.253 C  
BRANCH  18  19
HETATM   19  N   UNL     1     -10.531  11.216  66.631  1.00  0.00    -0.241 NA 
HETATM   20  C   UNL     1      -8.762  10.280  68.291  1.00  0.00    -0.126 C  
HETATM   21  C   UNL     1      -9.356  10.362  66.864  1.00  0.00    -0.162 C  
HETATM   22  C   UNL     1      -9.768  10.434  69.452  1.00  0.00    -0.200 C  
HETATM   23  C   UNL     1     -10.699  11.588  69.078  1.00  0.00    -0.233 C  
HETATM   24  C   UNL     1     -11.431  11.240  67.788  1.00  0.00    -0.275 C  
BRANCH  22  25
HETATM   25  N   UNL     1     -10.507   9.234  69.871  1.00  0.00    -0.215 N  
HETATM   26  C   UNL     1     -10.288   7.891  69.480  1.00  0.00    -0.217 C  
HETATM   27  O   UNL     1      -9.426   7.431  68.752  1.00  0.00    -0.144 OA 
HETATM   28  N   UNL     1     -11.280   7.119  70.105  1.00  0.00    -0.274 NA 
HETATM   29  C   UNL     1     -12.105   7.944  70.845  1.00  0.00    -0.165 A  
HETATM   30  C   UNL     1     -13.220   7.604  71.588  1.00  0.00    -0.395 A  
HETATM   31  C   UNL     1     -13.908   8.645  72.205  1.00  0.00    -0.459 A  
HETATM   32  C   UNL     1     -13.469   9.976  72.077  1.00  0.00    -0.448 A  
HETATM   33  C   UNL     1     -12.315  10.289  71.342  1.00  0.00    -0.502 A  
HETATM   34  C   UNL     1     -11.649   9.253  70.716  1.00  0.00    -0.285 A  
ENDBRANCH  22  25
ENDBRANCH  18  19
ENDBRANCH  17  18
ENDBRANCH   8  17
TORSDOF 4
ENDMDL
MODEL        3
REMARK 921   NORMALIZED FREE ENERGY PREDICTED BY IDOCK:   -7.73 KCAL/MOL
REMARK 922        TOTAL FREE ENERGY PREDICTED BY IDOCK:  -10.33 KCAL/MOL
REMARK 923 INTER-LIGAND FREE ENERGY PREDICTED BY IDOCK:   -9.63 KCAL/MOL
REMARK 924 INTRA-LIGAND FREE ENERGY PREDICTED BY IDOCK:   -0.70 KCAL/MOL
REMARK 927      BINDING AFFINITY PREDICTED BY RF-SCORE:    0.00 PKD
ROOT
HETATM    1  F   UNL     1     -13.244  11.056  72.242  1.00  0.00    -0.580 F  
HETATM    2  C   UNL     1     -12.435  10.875  71.190  1.00  0.00    -0.405 A  
HETATM    3  C   UNL     1     -11.543   9.813  71.179  1.00  0.00    -0.469 A  
HETATM    4  C   UNL     1     -10.687   9.637  70.086  1.00  0.00    -0.321 A  
HETATM    5  C   UNL     1     -10.717  10.522  68.988  1.00  0.00    -0.259 A  
HETATM    6  C   UNL     1      -9.712  10.347  67.835  1.00  0.00    -0.168 C  
HETATM    7  C   UNL     1     -11.634  11.586  69.035  1.00  0.00    -0.383 A  
HETATM    8  C   UNL     1     -10.352   9.991  66.457  1.00  0.00    -0.268 C  
HETATM    9  C   UNL     1     -12.489  11.763  70.127  1.00  0.00    -0.182 A  
HETATM   10  C   UNL     1      -8.549  11.350  67.784  1.00  0.00    -0.129 A  
HETATM   11  C   UNL     1      -8.428  12.427  68.677  1.00  0.00     0.019 A  
HETATM   12  F   UNL     1      -5.195  13.796  67.751  1.00  0.00    -0.104 F  
HETATM   13  C   UNL     1      -7.492  11.128  66.882  1.00  0.00    -0.138 A  
HETATM   14  C   UNL     1      -7.303  13.261  68.657  1.00  0.00    -0.101 A  
HETATM   15  C   UNL     1      -6.281  13.013  67.749  1.00  0.00    -0.149 A  
HETATM   16  C   UNL     1      -6.365  11.956  66.858  1.00  0.00    -0.107 A  
ENDROOT
BRANCH   8  17
HETATM   17  C   UNL     1     -11.385  10.911  65.794  1.00  0.00     0.353 C  
BRANCH  17  18
HETATM   18  C   UNL     1     -10.987  11.685  64.532  1.00  0.00    -0.314 C  
BRANCH  18  19
HETATM   19  N   UNL     1     -11.376  13.092  64.428  1.00  0.00    -0.347 NA 
HETATM   20  C   UNL     1     -12.099  14.253  66.640  1.00  0.00    -0.448 C  
HETATM   21  C   UNL     1     -12.461  13.567  65.300  1.00  0.00    -0.482 C  
HETATM   22  C   UNL     1     -10.777  15.049  66.655  1.00  0.00    -0.312 C  
HETATM   23  C   UNL     1      -9.738  14.194  65.931  1.00  0.00    -0.267 C  
HETATM   24  C   UNL     1     -10.196  13.960  64.496  1.00  0.00    -0.111 C  
BRANCH  22  25
HETATM   25  N   UNL     1     -10.812  16.430  66.151  1.00  0.00    -0.151 N  
HETATM   26  C   UNL     1     -11.231  16.885  64.877  1.00  0.00     0.135 C  
HETATM   27  O   UNL     1     -11.686  16.250  63.942  1.00  0.00    -0.986 OA 
HETATM   28  N   UNL     1     -11.030  18.274  64.856  1.00  0.00    -0.374 NA 
HETATM   29  C   UNL     1     -10.489  18.678  66.062  1.00  0.00    -0.414 A  
HETATM   30  C   UNL     1     -10.109  19.949  66.453  1.00  0.00    -0.615 A  
HETATM   31  C   UNL     1      -9.539  20.076  67.716  1.00  0.00    -0.509 A  
HETATM   32  C   UNL     1      -9.374  18.953  68.550  1.00  0.00    -0.412 A  
HETATM   33  C   UNL     1      -9.799  17.680  68.140  1.00  0.00    -0.318 A  
HETATM   34  C   UNL     1     -10.345  17.558  66.876  1.00  0.00    -0.315 A  
ENDBRANCH  22  25
ENDBRANCH  18  19
ENDBRANCH  17  18
ENDBRANCH   8  17
TORSDOF 4
ENDMDL
MODEL        4
REMARK 921   NORMALIZED FREE ENERGY PREDICTED BY IDOCK:   -7.69 KCAL/MOL
REMARK 922        TOTAL FREE ENERGY PREDICTED BY IDOCK:  -10.28 KCAL/MOL
REMARK 923 INTER-LIGAND FREE ENERGY PREDICTED BY IDOCK:  -10.63 KCAL/MOL
REMARK 924 INTRA-LIGAND FREE ENERGY PREDICTED BY IDOCK:    0.35 KCAL/MOL
REMARK 927      BINDING AFFINITY PREDICTED BY RF-SCORE:    0.00 PKD
ROOT
HETATM    1  F   UNL     1     -12.380  12.391  63.129  1.00  0.00    -0.561 F  
HETATM    2  C   UNL     1     -11.981  13.045  64.227  1.00  0.00    -0.402 A  
HETATM    3  C   UNL     1     -12.902  13.360  65.216  1.00  0.00    -0.398 A  
HETATM    4  C   UNL     1     -12.485  14.059  66.355  1.00  0.00    -0.395 A  
HETATM    5  C   UNL     1     -11.140  14.449  66.517  1.00  0.00    -0.331 A  
HETATM    6  C   UNL     1     -10.726  15.282  67.744  1.00  0.00    -0.286 C  
HETATM    7  C   UNL     1     -10.237  14.112  65.494  1.00  0.00    -0.371 A  
HETATM    8  C   UNL     1      -9.734  14.570  68.715  1.00  0.00    -0.210 C  
HETATM    9  C   UNL     1     -10.652  13.414  64.357  1.00  0.00    -0.423 A  
HETATM   10  C   UNL     1     -10.453  16.773  67.496  1.00  0.00    -0.319 A  
HETATM   11  C   UNL     1     -10.490  17.356  66.219  1.00  0.00    -0.276 A  
HETATM   12  F   UNL     1     -10.018  20.872  66.996  1.00  0.00    -0.602 F  
HETATM   13  C   UNL     1     -10.268  17.629  68.599  1.00  0.00    -0.377 A  
HETATM   14  C   UNL     1     -10.329  18.737  66.049  1.00  0.00    -0.467 A  
HETATM   15  C   UNL     1     -10.143  19.549  67.161  1.00  0.00    -0.400 A  
HETATM   16  C   UNL     1     -10.109  19.008  68.436  1.00  0.00    -0.471 A  
ENDROOT
BRANCH   8  17
HETATM   17  C   UNL     1      -8.364  14.075  68.235  1.00  0.00    -0.162 C  
BRANCH  17  18
HETATM   18  C   UNL     1      -8.214  12.613  67.800  1.00  0.00    -0.171 C  
BRANCH  18  19
HETATM   19  N   UNL     1      -8.869  11.579  68.602  1.00  0.00    -0.144 NA 
HETATM   20  C   UNL     1     -11.154  10.710  67.717  1.00  0.00    -0.385 C  
HETATM   21  C   UNL     1     -10.337  11.603  68.682  1.00  0.00    -0.215 C  
HETATM   22  C   UNL     1     -10.488   9.381  67.300  1.00  0.00    -0.264 C  
HETATM   23  C   UNL     1      -9.025   9.698  66.992  1.00  0.00    -0.150 C  
HETATM   24  C   UNL     1      -8.359  10.250  68.246  1.00  0.00    -0.116 C  
BRANCH  22  25
HETATM   25  N   UNL     1     -10.631   8.236  68.212  1.00  0.00    -0.152 N  
HETATM   26  C   UNL     1     -10.523   6.857  67.909  1.00  0.00    -0.212 C  
HETATM   27  O   UNL     1     -10.253   6.320  66.850  1.00  0.00    -0.171 OA 
HETATM   28  N   UNL     1     -10.791   6.158  69.096  1.00  0.00    -0.315 NA 
HETATM   29  C   UNL     1     -11.075   7.059  70.105  1.00  0.00    -0.285 A  
HETATM   30  C   UNL     1     -11.423   6.800  71.418  1.00  0.00    -0.336 A  
HETATM   31  C   UNL     1     -11.709   7.899  72.223  1.00  0.00    -0.408 A  
HETATM   32  C   UNL     1     -11.633   9.208  71.711  1.00  0.00    -0.457 A  
HETATM   33  C   UNL     1     -11.246   9.443  70.383  1.00  0.00    -0.309 A  
HETATM   34  C   UNL     1     -10.984   8.346  69.583  1.00  0.00    -0.087 A  
ENDBRANCH  22  25
ENDBRANCH  18  19
ENDBRANCH  17  18
ENDBRANCH   8  17
TORSDOF 4
ENDMDL
MODEL        5
REMARK 921   NORMALIZED FREE ENERGY PREDICTED BY IDOCK:   -7.62 KCAL/MOL
REMARK 922        TOTAL FREE ENERGY PREDICTED BY IDOCK:  -10.19 KCAL/MOL
REMARK 923 INTER-LIGAND FREE ENERGY PREDICTED BY IDOCK:   -9.89 KCAL/MOL
REMARK 924 INTRA-LIGAND FREE ENERGY PREDICTED BY IDOCK:   -0.30 KCAL/MOL
REMARK 927      BINDING AFFINITY PREDICTED BY RF-SCORE:    0.00 PKD
ROOT
HETATM    1  F   UNL     1     -12.396  12.684  63.206  1.00  0.00    -0.553 F  
HETATM    2  C   UNL     1     -11.977  13.323  64.306  1.00  0.00    -0.421 A  
HETATM    3  C   UNL     1     -12.885  13.649  65.303  1.00  0.00    -0.421 A  
HETATM    4  C   UNL     1     -12.447  14.333  66.444  1.00  0.00    -0.287 A  
HETATM    5  C   UNL     1     -11.093  14.695  66.599  1.00  0.00    -0.334 A  
HETATM    6  C   UNL     1     -10.654  15.512  67.829  1.00  0.00    -0.281 C  
HETATM    7  C   UNL     1     -10.203  14.348  65.568  1.00  0.00    -0.386 A  
HETATM    8  C   UNL     1      -9.669  14.775  68.788  1.00  0.00    -0.222 C  
HETATM    9  C   UNL     1     -10.640  13.666  64.429  1.00  0.00    -0.360 A  
HETATM   10  C   UNL     1     -10.354  16.999  67.589  1.00  0.00    -0.332 A  
HETATM   11  C   UNL     1     -10.389  17.591  66.315  1.00  0.00    -0.335 A  
HETATM   12  F   UNL     1      -9.843  21.092  67.112  1.00  0.00    -0.611 F  
HETATM   13  C   UNL     1     -10.145  17.844  68.695  1.00  0.00    -0.394 A  
HETATM   14  C   UNL     1     -10.202  18.970  66.153  1.00  0.00    -0.508 A  
HETATM   15  C   UNL     1      -9.993  19.771  67.269  1.00  0.00    -0.400 A  
HETATM   16  C   UNL     1      -9.960  19.221  68.540  1.00  0.00    -0.513 A  
ENDROOT
BRANCH   8  17
HETATM   17  C   UNL     1      -8.312  14.257  68.295  1.00  0.00    -0.165 C  
BRANCH  17  18
HETATM   18  C   UNL     1      -8.215  12.822  67.764  1.00  0.00    -0.176 C  
BRANCH  18  19
HETATM   19  N   UNL     1      -8.801  11.744  68.562  1.00  0.00    -0.155 NA 
HETATM   20  C   UNL     1     -11.002  10.704  67.649  1.00  0.00    -0.370 C  
HETATM   21  C   UNL     1     -10.268  11.659  68.621  1.00  0.00    -0.206 C  
HETATM   22  C   UNL     1     -10.233   9.427  67.247  1.00  0.00    -0.246 C  
HETATM   23  C   UNL     1      -8.793   9.851  66.958  1.00  0.00    -0.144 C  
HETATM   24  C   UNL     1      -8.189  10.456  68.219  1.00  0.00    -0.114 C  
BRANCH  22  25
HETATM   25  N   UNL     1     -10.303   8.278  68.162  1.00  0.00    -0.210 N  
HETATM   26  C   UNL     1     -10.617   8.278  69.543  1.00  0.00    -0.213 C  
HETATM   27  O   UNL     1     -10.934   9.210  70.262  1.00  0.00    -0.233 OA 
HETATM   28  N   UNL     1     -10.502   6.951  69.986  1.00  0.00    -0.201 NA 
HETATM   29  C   UNL     1     -10.113   6.147  68.932  1.00  0.00    -0.173 A  
HETATM   30  C   UNL     1      -9.854   4.789  68.933  1.00  0.00    -0.230 A  
HETATM   31  C   UNL     1      -9.425   4.227  67.735  1.00  0.00    -0.215 A  
HETATM   32  C   UNL     1      -9.276   5.018  66.579  1.00  0.00    -0.135 A  
HETATM   33  C   UNL     1      -9.576   6.389  66.598  1.00  0.00    -0.194 A  
HETATM   34  C   UNL     1      -9.982   6.944  67.797  1.00  0.00    -0.148 A  
ENDBRANCH  22  25
ENDBRANCH  18  19
ENDBRANCH  17  18
ENDBRANCH   8  17
TORSDOF 4
ENDMDL
MODEL        6
REMARK 921   NORMALIZED FREE ENERGY PREDICTED BY IDOCK:   -7.61 KCAL/MOL
REMARK 922        TOTAL FREE ENERGY PREDICTED BY IDOCK:  -10.18 KCAL/MOL
REMARK 923 INTER-LIGAND FREE ENERGY PREDICTED BY IDOCK:   -9.40 KCAL/MOL
REMARK 924 INTRA-LIGAND FREE ENERGY PREDICTED BY IDOCK:   -0.78 KCAL/MOL
REMARK 927      BINDING AFFINITY PREDICTED BY RF-SCORE:    0.00 PKD
ROOT
HETATM    1  F   UNL     1     -14.210  13.249  72.581  1.00  0.00    -0.614 F  
HETATM    2  C   UNL     1     -13.415  13.754  71.628  1.00  0.00    -0.333 A  
HETATM    3  C   UNL     1     -13.579  15.070  71.220  1.00  0.00    -0.526 A  
HETATM    4  C   UNL     1     -12.758  15.590  70.211  1.00  0.00    -0.310 A  
HETATM    5  C   UNL     1     -11.763  14.798  69.603  1.00  0.00    -0.354 A  
HETATM    6  C   UNL     1     -10.926  15.374  68.446  1.00  0.00    -0.284 C  
HETATM    7  C   UNL     1     -11.627  13.470  70.044  1.00  0.00    -0.234 A  
HETATM    8  C   UNL     1      -9.403  15.522  68.748  1.00  0.00    -0.209 C  
HETATM    9  C   UNL     1     -12.446  12.950  71.050  1.00  0.00    -0.374 A  
HETATM   10  C   UNL     1     -11.274  14.872  67.036  1.00  0.00    -0.344 A  
HETATM   11  C   UNL     1     -12.241  13.882  66.793  1.00  0.00    -0.438 A  
HETATM   12  F   UNL     1     -12.355  13.835  63.164  1.00  0.00    -0.545 F  
HETATM   13  C   UNL     1     -10.690  15.502  65.921  1.00  0.00    -0.346 A  
HETATM   14  C   UNL     1     -12.594  13.522  65.487  1.00  0.00    -0.531 A  
HETATM   15  C   UNL     1     -11.993  14.162  64.411  1.00  0.00    -0.457 A  
HETATM   16  C   UNL     1     -11.042  15.148  64.614  1.00  0.00    -0.338 A  
ENDROOT
BRANCH   8  17
HETATM   17  C   UNL     1      -8.545  14.312  69.141  1.00  0.00     0.156 C  
BRANCH  17  18
HETATM   18  C   UNL     1      -7.948  13.436  68.034  1.00  0.00    -0.148 C  
BRANCH  18  19
HETATM   19  N   UNL     1      -8.722  12.285  67.566  1.00  0.00    -0.167 NA 
HETATM   20  C   UNL     1      -7.357  10.169  66.914  1.00  0.00    -0.092 C  
HETATM   21  C   UNL     1      -8.131  11.448  66.510  1.00  0.00    -0.141 C  
HETATM   22  C   UNL     1      -7.852   9.456  68.191  1.00  0.00    -0.087 C  
HETATM   23  C   UNL     1      -8.120  10.546  69.230  1.00  0.00    -0.152 C  
HETATM   24  C   UNL     1      -9.196  11.485  68.700  1.00  0.00    -0.132 C  
BRANCH  22  25
HETATM   25  N   UNL     1      -8.983   8.527  68.053  1.00  0.00    -0.141 N  
HETATM   26  C   UNL     1      -9.827   8.338  66.932  1.00  0.00    -0.247 C  
HETATM   27  O   UNL     1      -9.782   8.866  65.835  1.00  0.00    -0.255 OA 
HETATM   28  N   UNL     1     -10.787   7.383  67.303  1.00  0.00    -0.292 NA 
HETATM   29  C   UNL     1     -10.569   6.998  68.612  1.00  0.00    -0.210 A  
HETATM   30  C   UNL     1     -11.296   6.107  69.380  1.00  0.00    -0.401 A  
HETATM   31  C   UNL     1     -10.889   5.933  70.699  1.00  0.00    -0.363 A  
HETATM   32  C   UNL     1      -9.778   6.633  71.210  1.00  0.00    -0.183 A  
HETATM   33  C   UNL     1      -9.040   7.507  70.399  1.00  0.00    -0.153 A  
HETATM   34  C   UNL     1      -9.463   7.691  69.096  1.00  0.00    -0.154 A  
ENDBRANCH  22  25
ENDBRANCH  18  19
ENDBRANCH  17  18
ENDBRANCH   8  17
TORSDOF 4
ENDMDL
MODEL        7
REMARK 921   NORMALIZED FREE ENERGY PREDICTED BY IDOCK:   -7.55 KCAL/MOL
REMARK 922        TOTAL FREE ENERGY PREDICTED BY IDOCK:  -10.10 KCAL/MOL
REMARK 923 INTER-LIGAND FREE ENERGY PREDICTED BY IDOCK:   -9.51 KCAL/MOL
REMARK 924 INTRA-LIGAND FREE ENERGY PREDICTED BY IDOCK:   -0.59 KCAL/MOL
REMARK 927      BINDING AFFINITY PREDICTED BY RF-SCORE:    0.00 PKD
ROOT
HETATM    1  F   UNL     1      -9.310   2.268  66.583  1.00  0.00    -0.140 F  
HETATM    2  C   UNL     1      -9.224   3.470  67.169  1.00  0.00    -0.192 A  
HETATM    3  C   UNL     1      -8.375   3.651  68.251  1.00  0.00    -0.096 A  
HETATM    4  C   UNL     1      -8.300   4.903  68.872  1.00  0.00    -0.082 A  
HETATM    5  C   UNL     1      -9.072   5.990  68.413  1.00  0.00    -0.112 A  
HETATM    6  C   UNL     1      -9.024   7.335  69.162  1.00  0.00    -0.135 C  
HETATM    7  C   UNL     1      -9.919   5.768  67.314  1.00  0.00    -0.178 A  
HETATM    8  C   UNL     1      -8.436   8.523  68.339  1.00  0.00    -0.138 C  
HETATM    9  C   UNL     1      -9.995   4.519  66.694  1.00  0.00    -0.253 A  
HETATM   10  C   UNL     1     -10.242   7.674  70.034  1.00  0.00    -0.213 A  
HETATM   11  C   UNL     1     -11.386   6.862  70.100  1.00  0.00    -0.364 A  
HETATM   12  F   UNL     1     -13.330   8.530  72.674  1.00  0.00    -0.338 F  
HETATM   13  C   UNL     1     -10.179   8.784  70.898  1.00  0.00    -0.284 A  
HETATM   14  C   UNL     1     -12.434   7.159  70.980  1.00  0.00    -0.359 A  
HETATM   15  C   UNL     1     -12.338   8.266  71.814  1.00  0.00    -0.328 A  
HETATM   16  C   UNL     1     -11.221   9.084  71.780  1.00  0.00    -0.448 A  
ENDROOT
BRANCH   8  17
HETATM   17  C   UNL     1      -9.064   8.962  67.010  1.00  0.00    -0.161 C  
BRANCH  17  18
HETATM   18  C   UNL     1     -10.190  10.002  67.031  1.00  0.00    -0.237 C  
BRANCH  18  19
HETATM   19  N   UNL     1      -9.914  11.314  67.619  1.00  0.00    -0.177 NA 
HETATM   20  C   UNL     1     -11.523  13.240  66.939  1.00  0.00    -0.376 C  
HETATM   21  C   UNL     1     -10.170  12.501  66.790  1.00  0.00    -0.231 C  
HETATM   22  C   UNL     1     -12.160  13.205  68.345  1.00  0.00    -0.181 C  
HETATM   23  C   UNL     1     -12.012  11.774  68.861  1.00  0.00    -0.332 C  
HETATM   24  C   UNL     1     -10.531  11.425  68.945  1.00  0.00    -0.193 C  
BRANCH  22  25
HETATM   25  N   UNL     1     -11.699  14.201  69.323  1.00  0.00    -0.301 N  
HETATM   26  C   UNL     1     -10.626  15.117  69.198  1.00  0.00    -0.256 C  
HETATM   27  O   UNL     1      -9.882  15.310  68.253  1.00  0.00    -0.213 OA 
HETATM   28  N   UNL     1     -10.548  15.818  70.411  1.00  0.00    -0.289 NA 
HETATM   29  C   UNL     1     -11.521  15.351  71.275  1.00  0.00    -0.389 A  
HETATM   30  C   UNL     1     -11.775  15.740  72.577  1.00  0.00    -0.566 A  
HETATM   31  C   UNL     1     -12.792  15.068  73.249  1.00  0.00    -0.647 A  
HETATM   32  C   UNL     1     -13.526  14.048  72.613  1.00  0.00    -0.650 A  
HETATM   33  C   UNL     1     -13.267  13.696  71.280  1.00  0.00    -0.308 A  
HETATM   34  C   UNL     1     -12.242  14.353  70.626  1.00  0.00    -0.344 A  
ENDBRANCH  22  25
ENDBRANCH  18  19
ENDBRANCH  17  18
ENDBRANCH   8  17
TORSDOF 4
ENDMDL
MODEL        8
REMARK 921   NORMALIZED FREE ENERGY PREDICTED BY IDOCK:   -7.53 KCAL/MOL
REMARK 922        TOTAL FREE ENERGY PREDICTED BY IDOCK:  -10.07 KCAL/MOL
REMARK 923 INTER-LIGAND FREE ENERGY PREDICTED BY IDOCK:   -9.82 KCAL/MOL
REMARK 924 INTRA-LIGAND FREE ENERGY PREDICTED BY IDOCK:   -0.26 KCAL/MOL
REMARK 927      BINDING AFFINITY PREDICTED BY RF-SCORE:    0.00 PKD
ROOT
HETATM    1  F   UNL     1      -5.213   7.521  68.202  1.00  0.00    -0.021 F  
HETATM    2  C   UNL     1      -6.351   8.113  68.588  1.00  0.00    -0.053 A  
HETATM    3  C   UNL     1      -6.386   8.835  69.772  1.00  0.00    -0.035 A  
HETATM    4  C   UNL     1      -7.581   9.438  70.182  1.00  0.00    -0.132 A  
HETATM    5  C   UNL     1      -8.754   9.327  69.407  1.00  0.00    -0.148 A  
HETATM    6  C   UNL     1     -10.072   9.938  69.920  1.00  0.00    -0.297 C  
HETATM    7  C   UNL     1      -8.679   8.589  68.213  1.00  0.00    -0.143 A  
HETATM    8  C   UNL     1     -10.640  11.099  69.046  1.00  0.00    -0.251 C  
HETATM    9  C   UNL     1      -7.486   7.986  67.804  1.00  0.00    -0.094 A  
HETATM   10  C   UNL     1     -11.114   8.951  70.466  1.00  0.00    -0.288 A  
HETATM   11  C   UNL     1     -10.938   7.557  70.437  1.00  0.00    -0.264 A  
HETATM   12  F   UNL     1     -13.855   6.405  72.267  1.00  0.00    -0.260 F  
HETATM   13  C   UNL     1     -12.249   9.451  71.131  1.00  0.00    -0.402 A  
HETATM   14  C   UNL     1     -11.870   6.698  71.032  1.00  0.00    -0.427 A  
HETATM   15  C   UNL     1     -12.981   7.228  71.675  1.00  0.00    -0.372 A  
HETATM   16  C   UNL     1     -13.182   8.598  71.729  1.00  0.00    -0.399 A  
ENDROOT
BRANCH   8  17
HETATM   17  C   UNL     1     -10.983  10.889  67.566  1.00  0.00    -0.352 C  
BRANCH  17  18
HETATM   18  C   UNL     1     -10.077  11.514  66.499  1.00  0.00    -0.213 C  
BRANCH  18  19
HETATM   19  N   UNL     1     -10.503  12.766  65.871  1.00  0.00    -0.271 NA 
HETATM   20  C   UNL     1     -12.121  14.255  67.258  1.00  0.00    -0.390 C  
HETATM   21  C   UNL     1     -11.876  13.226  66.128  1.00  0.00    -0.390 C  
HETATM   22  C   UNL     1     -10.977  15.259  67.517  1.00  0.00    -0.315 C  
HETATM   23  C   UNL     1      -9.674  14.460  67.483  1.00  0.00    -0.215 C  
HETATM   24  C   UNL     1      -9.515  13.824  66.107  1.00  0.00    -0.159 C  
BRANCH  22  25
HETATM   25  N   UNL     1     -10.920  16.456  66.666  1.00  0.00    -0.072 N  
HETATM   26  C   UNL     1     -11.153  16.551  65.273  1.00  0.00    -0.076 C  
HETATM   27  O   UNL     1     -11.487  15.682  64.486  1.00  0.00    -0.415 OA 
HETATM   28  N   UNL     1     -10.929  17.889  64.913  1.00  0.00    -0.608 NA 
HETATM   29  C   UNL     1     -10.550  18.608  66.031  1.00  0.00    -0.365 A  
HETATM   30  C   UNL     1     -10.206  19.943  66.121  1.00  0.00    -0.611 A  
HETATM   31  C   UNL     1      -9.812  20.411  67.371  1.00  0.00    -0.587 A  
HETATM   32  C   UNL     1      -9.781  19.551  68.486  1.00  0.00    -0.503 A  
HETATM   33  C   UNL     1     -10.167  18.207  68.373  1.00  0.00    -0.401 A  
HETATM   34  C   UNL     1     -10.537  17.745  67.124  1.00  0.00    -0.287 A  
ENDBRANCH  22  25
ENDBRANCH  18  19
ENDBRANCH  17  18
ENDBRANCH   8  17
TORSDOF 4
ENDMDL
MODEL        9
REMARK 921   NORMALIZED FREE ENERGY PREDICTED BY IDOCK:   -7.50 KCAL/MOL
REMARK 922        TOTAL FREE ENERGY PREDICTED BY IDOCK:  -10.04 KCAL/MOL
REMARK 923 INTER-LIGAND FREE ENERGY PREDICTED BY IDOCK:   -8.97 KCAL/MOL
REMARK 924 INTRA-LIGAND FREE ENERGY PREDICTED BY IDOCK:   -1.08 KCAL/MOL
REMARK 927      BINDING AFFINITY PREDICTED BY RF-SCORE:    0.00 PKD
ROOT
HETATM    1  F   UNL     1     -13.463  12.538  72.577  1.00  0.00    -0.617 F  
HETATM    2  C   UNL     1     -12.870  12.284  71.402  1.00  0.00    -0.271 A  
HETATM    3  C   UNL     1     -12.655  10.972  71.008  1.00  0.00    -0.512 A  
HETATM    4  C   UNL     1     -12.020  10.710  69.788  1.00  0.00    -0.363 A  
HETATM    5  C   UNL     1     -11.596  11.761  68.948  1.00  0.00    -0.370 A  
HETATM    6  C   UNL     1     -10.834  11.443  67.648  1.00  0.00    -0.286 C  
HETATM    7  C   UNL     1     -11.833  13.077  69.382  1.00  0.00    -0.380 A  
HETATM    8  C   UNL     1     -11.576  11.851  66.337  1.00  0.00    -0.315 C  
HETATM    9  C   UNL     1     -12.466  13.339  70.599  1.00  0.00    -0.373 A  
HETATM   10  C   UNL     1      -9.321  11.709  67.662  1.00  0.00    -0.178 A  
HETATM   11  C   UNL     1      -8.655  12.286  68.755  1.00  0.00     0.126 A  
HETATM   12  F   UNL     1      -5.186  12.076  67.704  1.00  0.00    -0.049 F  
HETATM   13  C   UNL     1      -8.536  11.256  66.585  1.00  0.00    -0.167 A  
HETATM   14  C   UNL     1      -7.262  12.423  68.763  1.00  0.00    -0.094 A  
HETATM   15  C   UNL     1      -6.520  11.969  67.680  1.00  0.00    -0.108 A  
HETATM   16  C   UNL     1      -7.144  11.388  66.588  1.00  0.00    -0.103 A  
ENDROOT
BRANCH   8  17
HETATM   17  C   UNL     1     -11.990  13.304  66.073  1.00  0.00    -0.473 C  
BRANCH  17  18
HETATM   18  C   UNL     1     -11.015  14.232  65.342  1.00  0.00    -0.333 C  
BRANCH  18  19
HETATM   19  N   UNL     1     -10.832  15.591  65.855  1.00  0.00    -0.327 NA 
HETATM   20  C   UNL     1     -10.675  15.834  68.439  1.00  0.00    -0.281 C  
HETATM   21  C   UNL     1     -11.488  15.936  67.126  1.00  0.00     0.156 C  
HETATM   22  C   UNL     1      -9.162  16.120  68.321  1.00  0.00    -0.197 C  
HETATM   23  C   UNL     1      -8.674  15.400  67.065  1.00  0.00    -0.256 C  
HETATM   24  C   UNL     1      -9.411  15.957  65.853  1.00  0.00    -0.337 C  
BRANCH  22  25
HETATM   25  N   UNL     1      -8.734  17.526  68.362  1.00  0.00    -0.270 N  
HETATM   26  C   UNL     1      -9.432  18.667  67.895  1.00  0.00    -0.303 C  
HETATM   27  O   UNL     1     -10.542  18.742  67.400  1.00  0.00    -0.411 OA 
HETATM   28  N   UNL     1      -8.592  19.771  68.107  1.00  0.00    -0.312 NA 
HETATM   29  C   UNL     1      -7.404  19.344  68.668  1.00  0.00    -0.340 A  
HETATM   30  C   UNL     1      -6.293  20.093  69.009  1.00  0.00    -0.360 A  
HETATM   31  C   UNL     1      -5.197  19.402  69.517  1.00  0.00    -0.197 A  
HETATM   32  C   UNL     1      -5.238  18.004  69.682  1.00  0.00    -0.191 A  
HETATM   33  C   UNL     1      -6.391  17.273  69.358  1.00  0.00    -0.244 A  
HETATM   34  C   UNL     1      -7.468  17.963  68.834  1.00  0.00    -0.230 A  
ENDBRANCH  22  25
ENDBRANCH  18  19
ENDBRANCH  17  18
ENDBRANCH   8  17
TORSDOF 4
ENDMDL
MODEL       10
REMARK 921   NORMALIZED FREE ENERGY PREDICTED BY IDOCK:   -7.47 KCAL/MOL
REMARK 922        TOTAL FREE ENERGY PREDICTED BY IDOCK:  -10.00 KCAL/MOL
REMARK 923 INTER-LIGAND FREE ENERGY PREDICTED BY IDOCK:   -9.85 KCAL/MOL
REMARK 924 INTRA-LIGAND FREE ENERGY PREDICTED BY IDOCK:   -0.15 KCAL/MOL
REMARK 927      BINDING AFFINITY PREDICTED BY RF-SCORE:    0.00 PKD
ROOT
HETATM    1  F   UNL     1      -7.544  18.691  67.191  1.00  0.00    -0.216 F  
HETATM    2  C   UNL     1      -8.544  17.873  67.544  1.00  0.00    -0.239 A  
HETATM    3  C   UNL     1      -9.846  18.175  67.173  1.00  0.00    -0.319 A  
HETATM    4  C   UNL     1     -10.891  17.327  67.557  1.00  0.00    -0.206 A  
HETATM    5  C   UNL     1     -10.644  16.165  68.316  1.00  0.00    -0.288 A  
HETATM    6  C   UNL     1     -11.821  15.292  68.788  1.00  0.00    -0.332 C  
HETATM    7  C   UNL     1      -9.312  15.892  68.673  1.00  0.00    -0.212 A  
HETATM    8  C   UNL     1     -11.849  13.851  68.191  1.00  0.00    -0.407 C  
HETATM    9  C   UNL     1      -8.268  16.738  68.290  1.00  0.00    -0.204 A  
HETATM   10  C   UNL     1     -12.199  15.400  70.273  1.00  0.00    -0.414 A  
HETATM   11  C   UNL     1     -11.477  16.179  71.192  1.00  0.00    -0.433 A  
HETATM   12  F   UNL     1     -13.508  15.867  74.185  1.00  0.00    -0.301 F  
HETATM   13  C   UNL     1     -13.383  14.788  70.725  1.00  0.00    -0.302 A  
HETATM   14  C   UNL     1     -11.911  16.325  72.515  1.00  0.00    -0.608 A  
HETATM   15  C   UNL     1     -13.082  15.702  72.927  1.00  0.00    -0.520 A  
HETATM   16  C   UNL     1     -13.822  14.932  72.045  1.00  0.00    -0.563 A  
ENDROOT
BRANCH   8  17
HETATM   17  C   UNL     1     -10.679  12.880  68.394  1.00  0.00    -0.273 C  
BRANCH  17  18
HETATM   18  C   UNL     1     -10.537  11.682  67.449  1.00  0.00    -0.220 C  
BRANCH  18  19
HETATM   19  N   UNL     1     -10.983  10.369  67.918  1.00  0.00    -0.280 NA 
HETATM   20  C   UNL     1      -9.269   8.426  67.701  1.00  0.00    -0.147 C  
HETATM   21  C   UNL     1     -10.514   9.185  67.182  1.00  0.00    -0.255 C  
HETATM   22  C   UNL     1      -9.057   8.440  69.230  1.00  0.00    -0.150 C  
HETATM   23  C   UNL     1      -9.331   9.869  69.700  1.00  0.00    -0.247 C  
HETATM   24  C   UNL     1     -10.770  10.238  69.363  1.00  0.00    -0.241 C  
BRANCH  22  25
HETATM   25  N   UNL     1      -9.789   7.442  70.024  1.00  0.00    -0.179 N  
HETATM   26  C   UNL     1     -10.803   6.553  69.592  1.00  0.00    -0.304 C  
HETATM   27  O   UNL     1     -11.262   6.391  68.475  1.00  0.00    -0.328 OA 
HETATM   28  N   UNL     1     -11.226   5.838  70.723  1.00  0.00    -0.207 NA 
HETATM   29  C   UNL     1     -10.520   6.270  71.830  1.00  0.00    -0.211 A  
HETATM   30  C   UNL     1     -10.641   5.858  73.144  1.00  0.00    -0.270 A  
HETATM   31  C   UNL     1      -9.836   6.497  74.082  1.00  0.00    -0.318 A  
HETATM   32  C   UNL     1      -8.936   7.508  73.693  1.00  0.00    -0.287 A  
HETATM   33  C   UNL     1      -8.811   7.884  72.347  1.00  0.00    -0.209 A  
HETATM   34  C   UNL     1      -9.629   7.260  71.424  1.00  0.00    -0.160 A  
ENDBRANCH  22  25
ENDBRANCH  18  19
ENDBRANCH  17  18
ENDBRANCH   8  17
TORSDOF 4
ENDMDL
MODEL       11
REMARK 921   NORMALIZED FREE ENERGY PREDICTED BY IDOCK:   -7.45 KCAL/MOL
REMARK 922        TOTAL FREE ENERGY PREDICTED BY IDOCK:   -9.98 KCAL/MOL
REMARK 923 INTER-LIGAND FREE ENERGY PREDICTED BY IDOCK:   -9.85 KCAL/MOL
REMARK 924 INTRA-LIGAND FREE ENERGY PREDICTED BY IDOCK:   -0.13 KCAL/MOL
REMARK 927      BINDING AFFINITY PREDICTED BY RF-SCORE:    0.00 PKD
ROOT
HETATM    1  F   UNL     1     -12.307  13.795  63.095  1.00  0.00    -0.545 F  
HETATM    2  C   UNL     1     -11.602  13.112  64.006  1.00  0.00    -0.428 A  
HETATM    3  C   UNL     1     -11.502  11.732  63.908  1.00  0.00    -0.481 A  
HETATM    4  C   UNL     1     -10.779  11.019  64.871  1.00  0.00    -0.278 A  
HETATM    5  C   UNL     1     -10.144  11.681  65.942  1.00  0.00    -0.267 A  
HETATM    6  C   UNL     1      -9.419  10.864  67.026  1.00  0.00    -0.184 C  
HETATM    7  C   UNL     1     -10.267  13.080  66.007  1.00  0.00    -0.292 A  
HETATM    8  C   UNL     1      -7.878  11.098  67.104  1.00  0.00    -0.139 C  
HETATM    9  C   UNL     1     -10.990  13.792  65.046  1.00  0.00    -0.359 A  
HETATM   10  C   UNL     1     -10.136  10.735  68.379  1.00  0.00    -0.183 A  
HETATM   11  C   UNL     1     -11.348  11.385  68.667  1.00  0.00    -0.327 A  
HETATM   12  F   UNL     1     -12.139  10.052  71.951  1.00  0.00    -0.448 F  
HETATM   13  C   UNL     1      -9.629   9.842  69.342  1.00  0.00    -0.229 A  
HETATM   14  C   UNL     1     -12.016  11.166  69.878  1.00  0.00    -0.439 A  
HETATM   15  C   UNL     1     -11.483  10.280  70.806  1.00  0.00    -0.351 A  
HETATM   16  C   UNL     1     -10.293   9.617  70.552  1.00  0.00    -0.359 A  
ENDROOT
BRANCH   8  17
HETATM   17  C   UNL     1      -7.295  12.493  67.364  1.00  0.00    -0.147 C  
BRANCH  17  18
HETATM   18  C   UNL     1      -6.808  12.841  68.775  1.00  0.00    -0.096 C  
BRANCH  18  19
HETATM   19  N   UNL     1      -6.919  14.230  69.225  1.00  0.00    -0.122 NA 
HETATM   20  C   UNL     1      -5.396  15.956  68.016  1.00  0.00    -0.131 C  
HETATM   21  C   UNL     1      -5.695  15.045  69.232  1.00  0.00    -0.095 C  
HETATM   22  C   UNL     1      -6.627  16.531  67.283  1.00  0.00    -0.180 C  
HETATM   23  C   UNL     1      -7.635  15.389  67.151  1.00  0.00    -0.238 C  
HETATM   24  C   UNL     1      -8.027  14.907  68.543  1.00  0.00    -0.140 C  
BRANCH  22  25
HETATM   25  N   UNL     1      -7.235  17.751  67.835  1.00  0.00    -0.205 N  
HETATM   26  C   UNL     1      -6.790  18.531  68.930  1.00  0.00    -0.278 C  
HETATM   27  O   UNL     1      -5.798  18.392  69.623  1.00  0.00    -0.233 OA 
HETATM   28  N   UNL     1      -7.729  19.560  69.103  1.00  0.00    -0.314 NA 
HETATM   29  C   UNL     1      -8.737  19.425  68.167  1.00  0.00    -0.328 A  
HETATM   30  C   UNL     1      -9.870  20.200  68.003  1.00  0.00    -0.498 A  
HETATM   31  C   UNL     1     -10.759  19.813  67.004  1.00  0.00    -0.542 A  
HETATM   32  C   UNL     1     -10.497  18.688  66.200  1.00  0.00    -0.473 A  
HETATM   33  C   UNL     1      -9.323  17.938  66.368  1.00  0.00    -0.268 A  
HETATM   34  C   UNL     1      -8.455  18.315  67.375  1.00  0.00    -0.249 A  
ENDBRANCH  22  25
ENDBRANCH  18  19
ENDBRANCH  17  18
ENDBRANCH   8  17
TORSDOF 4
ENDMDL
MODEL       12
REMARK 921   NORMALIZED FREE ENERGY PREDICTED BY IDOCK:   -7.43 KCAL/MOL
REMARK 922        TOTAL FREE ENERGY PREDICTED BY IDOCK:   -9.96 KCAL/MOL
REMARK 923 INTER-LIGAND FREE ENERGY PREDICTED BY IDOCK:   -9.46 KCAL/MOL
REMARK 924 INTRA-LIGAND FREE ENERGY PREDICTED BY IDOCK:   -0.49 KCAL/MOL
REMARK 927      BINDING AFFINITY PREDICTED BY RF-SCORE:    0.00 PKD
ROOT
HETATM    1  F   UNL     1     -12.536  12.725  63.405  1.00  0.00    -0.514 F  
HETATM    2  C   UNL     1     -11.984  13.369  64.442  1.00  0.00    -0.411 A  
HETATM    3  C   UNL     1     -12.728  13.591  65.592  1.00  0.00    -0.478 A  
HETATM    4  C   UNL     1     -12.154  14.280  66.667  1.00  0.00    -0.448 A  
HETATM    5  C   UNL     1     -10.827  14.752  66.602  1.00  0.00    -0.319 A  
HETATM    6  C   UNL     1     -10.247  15.571  67.770  1.00  0.00    -0.243 C  
HETATM    7  C   UNL     1     -10.105  14.509  65.421  1.00  0.00    -0.394 A  
HETATM    8  C   UNL     1      -9.055  14.897  68.517  1.00  0.00    -0.191 C  
HETATM    9  C   UNL     1     -10.678  13.821  64.347  1.00  0.00    -0.333 A  
HETATM   10  C   UNL     1     -10.113  17.085  67.542  1.00  0.00    -0.294 A  
HETATM   11  C   UNL     1     -10.415  17.704  66.318  1.00  0.00    -0.292 A  
HETATM   12  F   UNL     1     -10.019  21.217  67.149  1.00  0.00    -0.572 F  
HETATM   13  C   UNL     1      -9.782  17.915  68.630  1.00  0.00    -0.355 A  
HETATM   14  C   UNL     1     -10.369  19.097  66.182  1.00  0.00    -0.561 A  
HETATM   15  C   UNL     1     -10.034  19.884  67.276  1.00  0.00    -0.421 A  
HETATM   16  C   UNL     1      -9.737  19.307  68.500  1.00  0.00    -0.481 A  
ENDROOT
BRANCH   8  17
HETATM   17  C   UNL     1      -7.768  14.509  67.778  1.00  0.00    -0.167 C  
BRANCH  17  18
HETATM   18  C   UNL     1      -7.260  13.066  67.881  1.00  0.00    -0.129 C  
BRANCH  18  19
HETATM   19  N   UNL     1      -8.115  11.991  67.374  1.00  0.00    -0.159 NA 
HETATM   20  C   UNL     1      -6.915   9.777  66.725  1.00  0.00    -0.085 C  
HETATM   21  C   UNL     1      -7.567  11.122  66.321  1.00  0.00    -0.075 C  
HETATM   22  C   UNL     1      -7.503   9.091  67.977  1.00  0.00    -0.084 C  
HETATM   23  C   UNL     1      -7.707  10.185  69.025  1.00  0.00    -0.100 C  
HETATM   24  C   UNL     1      -8.686  11.219  68.482  1.00  0.00    -0.156 C  
BRANCH  22  25
HETATM   25  N   UNL     1      -8.703   8.262  67.794  1.00  0.00    -0.134 N  
HETATM   26  C   UNL     1      -9.436   8.035  66.604  1.00  0.00    -0.212 C  
HETATM   27  O   UNL     1      -9.217   8.437  65.475  1.00  0.00    -0.120 OA 
HETATM   28  N   UNL     1     -10.526   7.220  66.947  1.00  0.00    -0.306 NA 
HETATM   29  C   UNL     1     -10.494   6.957  68.304  1.00  0.00    -0.206 A  
HETATM   30  C   UNL     1     -11.389   6.225  69.061  1.00  0.00    -0.319 A  
HETATM   31  C   UNL     1     -11.148   6.155  70.430  1.00  0.00    -0.420 A  
HETATM   32  C   UNL     1     -10.033   6.798  71.000  1.00  0.00    -0.196 A  
HETATM   33  C   UNL     1      -9.122   7.508  70.203  1.00  0.00    -0.147 A  
HETATM   34  C   UNL     1      -9.379   7.590  68.847  1.00  0.00    -0.142 A  
ENDBRANCH  22  25
ENDBRANCH  18  19
ENDBRANCH  17  18
ENDBRANCH   8  17
TORSDOF 4
ENDMDL
MODEL       13
REMARK 921   NORMALIZED FREE ENERGY PREDICTED BY IDOCK:   -7.42 KCAL/MOL
REMARK 922        TOTAL FREE ENERGY PREDICTED BY IDOCK:   -9.95 KCAL/MOL
REMARK 923 INTER-LIGAND FREE ENERGY PREDICTED BY IDOCK:   -9.48 KCAL/MOL
REMARK 924 INTRA-LIGAND FREE ENERGY PREDICTED BY IDOCK:   -0.47 KCAL/MOL
REMARK 927      BINDING AFFINITY PREDICTED BY RF-SCORE:    0.00 PKD
ROOT
HETATM    1  F   UNL     1     -10.986   7.836  73.786  1.00  0.00    -0.323 F  
HETATM    2  C   UNL     1     -10.952   7.607  72.467  1.00  0.00    -0.324 A  
HETATM    3  C   UNL     1     -12.029   6.990  71.846  1.00  0.00    -0.355 A  
HETATM    4  C   UNL     1     -11.983   6.737  70.470  1.00  0.00    -0.385 A  
HETATM    5  C   UNL     1     -10.860   7.102  69.700  1.00  0.00    -0.254 A  
HETATM    6  C   UNL     1     -10.807   6.743  68.203  1.00  0.00    -0.296 C  
HETATM    7  C   UNL     1      -9.789   7.725  70.364  1.00  0.00    -0.183 A  
HETATM    8  C   UNL     1     -10.785   7.967  67.236  1.00  0.00    -0.280 C  
HETATM    9  C   UNL     1      -9.834   7.978  71.738  1.00  0.00    -0.240 A  
HETATM   10  C   UNL     1      -9.887   5.576  67.813  1.00  0.00    -0.164 A  
HETATM   11  C   UNL     1      -9.065   4.908  68.735  1.00  0.00    -0.147 A  
HETATM   12  F   UNL     1      -7.693   2.232  66.700  1.00  0.00    -0.066 F  
HETATM   13  C   UNL     1      -9.943   5.068  66.501  1.00  0.00    -0.249 A  
HETATM   14  C   UNL     1      -8.314   3.789  68.356  1.00  0.00    -0.098 A  
HETATM   15  C   UNL     1      -8.391   3.319  67.051  1.00  0.00    -0.097 A  
HETATM   16  C   UNL     1      -9.197   3.950  66.118  1.00  0.00    -0.161 A  
ENDROOT
BRANCH   8  17
HETATM   17  C   UNL     1      -9.677   9.026  67.312  1.00  0.00    -0.232 C  
BRANCH  17  18
HETATM   18  C   UNL     1      -9.769  10.261  66.409  1.00  0.00    -0.201 C  
BRANCH  18  19
HETATM   19  N   UNL     1      -9.667  11.583  67.028  1.00  0.00    -0.183 NA 
HETATM   20  C   UNL     1     -11.689  13.179  66.672  1.00  0.00    -0.427 C  
HETATM   21  C   UNL     1     -10.256  12.722  66.307  1.00  0.00    -0.253 C  
HETATM   22  C   UNL     1     -12.108  12.979  68.145  1.00  0.00    -0.157 C  
HETATM   23  C   UNL     1     -11.622  11.590  68.557  1.00  0.00    -0.377 C  
HETATM   24  C   UNL     1     -10.105  11.533  68.428  1.00  0.00    -0.204 C  
BRANCH  22  25
HETATM   25  N   UNL     1     -11.712  14.017  69.108  1.00  0.00    -0.309 N  
HETATM   26  C   UNL     1     -10.745  15.038  68.944  1.00  0.00    -0.240 C  
HETATM   27  O   UNL     1     -10.063  15.307  67.971  1.00  0.00    -0.226 OA 
HETATM   28  N   UNL     1     -10.690  15.743  70.157  1.00  0.00    -0.331 NA 
HETATM   29  C   UNL     1     -11.574  15.179  71.057  1.00  0.00    -0.347 A  
HETATM   30  C   UNL     1     -11.815  15.539  72.370  1.00  0.00    -0.570 A  
HETATM   31  C   UNL     1     -12.729  14.766  73.078  1.00  0.00    -0.548 A  
HETATM   32  C   UNL     1     -13.379  13.676  72.468  1.00  0.00    -0.638 A  
HETATM   33  C   UNL     1     -13.140  13.352  71.124  1.00  0.00    -0.254 A  
HETATM   34  C   UNL     1     -12.215  14.112  70.433  1.00  0.00    -0.356 A  
ENDBRANCH  22  25
ENDBRANCH  18  19
ENDBRANCH  17  18
ENDBRANCH   8  17
TORSDOF 4
ENDMDL
MODEL       14
REMARK 921   NORMALIZED FREE ENERGY PREDICTED BY IDOCK:   -7.42 KCAL/MOL
REMARK 922        TOTAL FREE ENERGY PREDICTED BY IDOCK:   -9.95 KCAL/MOL
REMARK 923 INTER-LIGAND FREE ENERGY PREDICTED BY IDOCK:   -8.90 KCAL/MOL
REMARK 924 INTRA-LIGAND FREE ENERGY PREDICTED BY IDOCK:   -1.05 KCAL/MOL
REMARK 927      BINDING AFFINITY PREDICTED BY RF-SCORE:    0.00 PKD
ROOT
HETATM    1  F   UNL     1      -9.664  13.972  65.062  1.00  0.00    -0.289 F  
HETATM    2  C   UNL     1     -10.306  13.624  66.184  1.00  0.00    -0.297 A  
HETATM    3  C   UNL     1     -11.693  13.622  66.214  1.00  0.00    -0.396 A  
HETATM    4  C   UNL     1     -12.361  13.274  67.394  1.00  0.00    -0.082 A  
HETATM    5  C   UNL     1     -11.646  12.920  68.557  1.00  0.00    -0.358 A  
HETATM    6  C   UNL     1     -12.407  12.615  69.860  1.00  0.00    -0.126 C  
HETATM    7  C   UNL     1     -10.242  12.933  68.488  1.00  0.00    -0.210 A  
HETATM    8  C   UNL     1     -12.266  11.148  70.373  1.00  0.00    -0.457 C  
HETATM    9  C   UNL     1      -9.575  13.281  67.311  1.00  0.00    -0.234 A  
HETATM   10  C   UNL     1     -12.365  13.701  70.946  1.00  0.00    -0.450 A  
HETATM   11  C   UNL     1     -11.615  14.882  70.818  1.00  0.00    -0.345 A  
HETATM   12  F   UNL     1     -12.591  16.704  73.804  1.00  0.00    -0.500 F  
HETATM   13  C   UNL     1     -13.198  13.575  72.074  1.00  0.00    -0.529 A  
HETATM   14  C   UNL     1     -11.681  15.888  71.790  1.00  0.00    -0.575 A  
HETATM   15  C   UNL     1     -12.510  15.727  72.892  1.00  0.00    -0.460 A  
HETATM   16  C   UNL     1     -13.269  14.578  73.046  1.00  0.00    -0.575 A  
ENDROOT
BRANCH   8  17
HETATM   17  C   UNL     1     -10.894  10.544  70.699  1.00  0.00     0.063 C  
BRANCH  17  18
HETATM   18  C   UNL     1     -10.714   9.025  70.612  1.00  0.00    -0.239 C  
BRANCH  18  19
HETATM   19  N   UNL     1      -9.751   8.493  69.646  1.00  0.00    -0.177 NA 
HETATM   20  C   UNL     1     -10.732   7.042  67.724  1.00  0.00    -0.300 C  
HETATM   21  C   UNL     1     -10.009   7.157  69.088  1.00  0.00    -0.168 C  
HETATM   22  C   UNL     1     -10.474   8.189  66.724  1.00  0.00    -0.246 C  
HETATM   23  C   UNL     1     -10.549   9.492  67.519  1.00  0.00    -0.338 C  
HETATM   24  C   UNL     1      -9.472   9.481  68.598  1.00  0.00    -0.142 C  
BRANCH  22  25
HETATM   25  N   UNL     1      -9.260   8.108  65.899  1.00  0.00    -0.142 N  
HETATM   26  C   UNL     1      -8.181   7.198  66.017  1.00  0.00    -0.129 C  
HETATM   27  O   UNL     1      -8.038   6.268  66.791  1.00  0.00    -0.107 OA 
HETATM   28  N   UNL     1      -7.240   7.554  65.038  1.00  0.00    -0.063 NA 
HETATM   29  C   UNL     1      -7.697   8.656  64.342  1.00  0.00    -0.126 A  
HETATM   30  C   UNL     1      -7.074   9.349  63.320  1.00  0.00    -0.095 A  
HETATM   31  C   UNL     1      -7.736  10.466  62.820  1.00  0.00    -0.145 A  
HETATM   32  C   UNL     1      -8.989  10.853  63.333  1.00  0.00    -0.175 A  
HETATM   33  C   UNL     1      -9.613  10.112  64.349  1.00  0.00    -0.366 A  
HETATM   34  C   UNL     1      -8.940   9.017  64.855  1.00  0.00    -0.118 A  
ENDBRANCH  22  25
ENDBRANCH  18  19
ENDBRANCH  17  18
ENDBRANCH   8  17
TORSDOF 4
ENDMDL
MODEL       15
REMARK 921   NORMALIZED FREE ENERGY PREDICTED BY IDOCK:   -7.42 KCAL/MOL
REMARK 922        TOTAL FREE ENERGY PREDICTED BY IDOCK:   -9.94 KCAL/MOL
REMARK 923 INTER-LIGAND FREE ENERGY PREDICTED BY IDOCK:   -9.77 KCAL/MOL
REMARK 924 INTRA-LIGAND FREE ENERGY PREDICTED BY IDOCK:   -0.17 KCAL/MOL
REMARK 927      BINDING AFFINITY PREDICTED BY RF-SCORE:    0.00 PKD
ROOT
HETATM    1  F   UNL     1     -12.285  16.300  71.150  1.00  0.00    -0.433 F  
HETATM    2  C   UNL     1     -11.653  15.743  70.108  1.00  0.00    -0.357 A  
HETATM    3  C   UNL     1     -11.151  16.548  69.096  1.00  0.00    -0.270 A  
HETATM    4  C   UNL     1     -10.505  15.962  68.000  1.00  0.00    -0.274 A  
HETATM    5  C   UNL     1     -10.353  14.563  67.908  1.00  0.00    -0.231 A  
HETATM    6  C   UNL     1      -9.706  13.944  66.656  1.00  0.00    -0.295 C  
HETATM    7  C   UNL     1     -10.875  13.782  68.953  1.00  0.00    -0.268 A  
HETATM    8  C   UNL     1      -8.356  13.205  66.913  1.00  0.00    -0.020 C  
HETATM    9  C   UNL     1     -11.519  14.365  70.047  1.00  0.00    -0.295 A  
HETATM   10  C   UNL     1     -10.657  13.256  65.665  1.00  0.00    -0.291 A  
HETATM   11  C   UNL     1     -12.034  13.113  65.900  1.00  0.00    -0.479 A  
HETATM   12  F   UNL     1     -13.174  11.671  62.768  1.00  0.00    -0.375 F  
HETATM   13  C   UNL     1     -10.163  12.848  64.411  1.00  0.00    -0.342 A  
HETATM   14  C   UNL     1     -12.881  12.565  64.929  1.00  0.00    -0.216 A  
HETATM   15  C   UNL     1     -12.357  12.169  63.705  1.00  0.00    -0.568 A  
HETATM   16  C   UNL     1     -11.004  12.303  63.436  1.00  0.00    -0.467 A  
ENDROOT
BRANCH   8  17
HETATM   17  C   UNL     1      -8.265  12.026  67.891  1.00  0.00    -0.153 C  
BRANCH  17  18
HETATM   18  C   UNL     1      -7.810  10.660  67.365  1.00  0.00    -0.110 C  
BRANCH  18  19
HETATM   19  N   UNL     1      -8.533   9.468  67.811  1.00  0.00    -0.119 NA 
HETATM   20  C   UNL     1      -7.951   8.593  70.189  1.00  0.00    -0.103 C  
HETATM   21  C   UNL     1      -7.806   8.503  68.651  1.00  0.00    -0.108 C  
HETATM   22  C   UNL     1      -9.311   9.104  70.711  1.00  0.00    -0.264 C  
HETATM   23  C   UNL     1      -9.698  10.298  69.838  1.00  0.00    -0.119 C  
HETATM   24  C   UNL     1      -9.828   9.836  68.392  1.00  0.00    -0.152 C  
BRANCH  22  25
HETATM   25  N   UNL     1     -10.401   8.126  70.834  1.00  0.00    -0.190 N  
HETATM   26  C   UNL     1     -10.387   6.753  70.483  1.00  0.00    -0.201 C  
HETATM   27  O   UNL     1      -9.472   6.078  70.047  1.00  0.00    -0.153 OA 
HETATM   28  N   UNL     1     -11.676   6.258  70.736  1.00  0.00    -0.297 NA 
HETATM   29  C   UNL     1     -12.477   7.279  71.209  1.00  0.00    -0.366 A  
HETATM   30  C   UNL     1     -13.816   7.237  71.551  1.00  0.00    -0.463 A  
HETATM   31  C   UNL     1     -14.402   8.432  71.957  1.00  0.00    -0.555 A  
HETATM   32  C   UNL     1     -13.648   9.620  72.021  1.00  0.00    -0.467 A  
HETATM   33  C   UNL     1     -12.283   9.628  71.699  1.00  0.00    -0.484 A  
HETATM   34  C   UNL     1     -11.713   8.441  71.277  1.00  0.00    -0.285 A  
ENDBRANCH  22  25
ENDBRANCH  18  19
ENDBRANCH  17  18
ENDBRANCH   8  17
TORSDOF 4
ENDMDL
MODEL       16
REMARK 921   NORMALIZED FREE ENERGY PREDICTED BY IDOCK:   -7.41 KCAL/MOL
REMARK 922        TOTAL FREE ENERGY PREDICTED BY IDOCK:   -9.93 KCAL/MOL
REMARK 923 INTER-LIGAND FREE ENERGY PREDICTED BY IDOCK:   -8.77 KCAL/MOL
REMARK 924 INTRA-LIGAND FREE ENERGY PREDICTED BY IDOCK:   -1.16 KCAL/MOL
REMARK 927      BINDING AFFINITY PREDICTED BY RF-SCORE:    0.00 PKD
ROOT
HETATM    1  F   UNL     1      -9.150   6.461  65.271  1.00  0.00    -0.064 F  
HETATM    2  C   UNL     1      -9.268   6.914  66.526  1.00  0.00    -0.163 A  
HETATM    3  C   UNL     1      -8.130   7.179  67.274  1.00  0.00    -0.115 A  
HETATM    4  C   UNL     1      -8.256   7.636  68.591  1.00  0.00    -0.128 A  
HETATM    5  C   UNL     1      -9.525   7.836  69.173  1.00  0.00    -0.151 A  
HETATM    6  C   UNL     1      -9.633   8.268  70.647  1.00  0.00    -0.190 C  
HETATM    7  C   UNL     1     -10.655   7.557  68.384  1.00  0.00    -0.177 A  
HETATM    8  C   UNL     1     -10.266   9.676  70.874  1.00  0.00    -0.303 C  
HETATM    9  C   UNL     1     -10.529   7.100  67.069  1.00  0.00    -0.392 A  
HETATM   10  C   UNL     1     -10.061   7.182  71.647  1.00  0.00    -0.197 A  
HETATM   11  C   UNL     1     -10.421   5.882  71.257  1.00  0.00    -0.289 A  
HETATM   12  F   UNL     1     -10.885   4.249  74.467  1.00  0.00    -0.274 F  
HETATM   13  C   UNL     1      -9.986   7.453  73.026  1.00  0.00    -0.299 A  
HETATM   14  C   UNL     1     -10.713   4.896  72.208  1.00  0.00    -0.218 A  
HETATM   15  C   UNL     1     -10.633   5.202  73.561  1.00  0.00    -0.258 A  
HETATM   16  C   UNL     1     -10.274   6.472  73.980  1.00  0.00    -0.374 A  
ENDROOT
BRANCH   8  17
HETATM   17  C   UNL     1     -11.680  10.004  70.379  1.00  0.00    -0.365 C  
BRANCH  17  18
HETATM   18  C   UNL     1     -11.995  11.436  69.930  1.00  0.00    -0.359 C  
BRANCH  18  19
HETATM   19  N   UNL     1     -12.155  11.696  68.499  1.00  0.00    -0.499 NA 
HETATM   20  C   UNL     1     -10.672  13.585  67.500  1.00  0.00    -0.266 C  
HETATM   21  C   UNL     1     -12.036  13.088  68.040  1.00  0.00    -0.290 C  
HETATM   22  C   UNL     1      -9.802  12.527  66.788  1.00  0.00    -0.229 C  
HETATM   23  C   UNL     1      -9.870  11.256  67.636  1.00  0.00    -0.190 C  
HETATM   24  C   UNL     1     -11.317  10.784  67.712  1.00  0.00    -0.279 C  
BRANCH  22  25
HETATM   25  N   UNL     1     -10.080  12.266  65.368  1.00  0.00    -0.269 N  
HETATM   26  C   UNL     1     -11.030  12.902  64.532  1.00  0.00    -0.351 C  
HETATM   27  O   UNL     1     -11.789  13.820  64.786  1.00  0.00    -0.357 OA 
HETATM   28  N   UNL     1     -10.955  12.271  63.280  1.00  0.00    -0.393 NA 
HETATM   29  C   UNL     1     -10.009  11.265  63.329  1.00  0.00    -0.393 A  
HETATM   30  C   UNL     1      -9.640  10.380  62.332  1.00  0.00    -0.178 A  
HETATM   31  C   UNL     1      -8.687   9.421  62.661  1.00  0.00    -0.234 A  
HETATM   32  C   UNL     1      -8.125   9.374  63.951  1.00  0.00    -0.154 A  
HETATM   33  C   UNL     1      -8.495  10.305  64.934  1.00  0.00    -0.182 A  
HETATM   34  C   UNL     1      -9.457  11.242  64.607  1.00  0.00    -0.188 A  
ENDBRANCH  22  25
ENDBRANCH  18  19
ENDBRANCH  17  18
ENDBRANCH   8  17
TORSDOF 4
ENDMDL
MODEL       17
REMARK 921   NORMALIZED FREE ENERGY PREDICTED BY IDOCK:   -7.40 KCAL/MOL
REMARK 922        TOTAL FREE ENERGY PREDICTED BY IDOCK:   -9.92 KCAL/MOL
REMARK 923 INTER-LIGAND FREE ENERGY PREDICTED BY IDOCK:   -9.20 KCAL/MOL
REMARK 924 INTRA-LIGAND FREE ENERGY PREDICTED BY IDOCK:   -0.72 KCAL/MOL
REMARK 927      BINDING AFFINITY PREDICTED BY RF-SCORE:    0.00 PKD
ROOT
HETATM    1  F   UNL     1     -14.057  13.056  72.433  1.00  0.00    -0.562 F  
HETATM    2  C   UNL     1     -13.198  13.379  71.458  1.00  0.00    -0.312 A  
HETATM    3  C   UNL     1     -13.070  14.703  71.063  1.00  0.00    -0.427 A  
HETATM    4  C   UNL     1     -12.184  15.036  70.031  1.00  0.00    -0.373 A  
HETATM    5  C   UNL     1     -11.414  14.047  69.386  1.00  0.00    -0.343 A  
HETATM    6  C   UNL     1     -10.504  14.432  68.206  1.00  0.00    -0.245 C  
HETATM    7  C   UNL     1     -11.571  12.717  69.814  1.00  0.00    -0.288 A  
HETATM    8  C   UNL     1      -8.978  14.226  68.459  1.00  0.00    -0.185 C  
HETATM    9  C   UNL     1     -12.455  12.384  70.844  1.00  0.00    -0.367 A  
HETATM   10  C   UNL     1     -11.000  14.042  66.805  1.00  0.00    -0.298 A  
HETATM   11  C   UNL     1     -12.173  13.301  66.588  1.00  0.00    -0.359 A  
HETATM   12  F   UNL     1     -12.406  13.329  62.964  1.00  0.00    -0.610 F  
HETATM   13  C   UNL     1     -10.322  14.537  65.675  1.00  0.00    -0.367 A  
HETATM   14  C   UNL     1     -12.640  13.048  65.292  1.00  0.00    -0.516 A  
HETATM   15  C   UNL     1     -11.941  13.549  64.200  1.00  0.00    -0.448 A  
HETATM   16  C   UNL     1     -10.785  14.290  64.379  1.00  0.00    -0.117 A  
ENDROOT
BRANCH   8  17
HETATM   17  C   UNL     1      -8.407  12.848  68.816  1.00  0.00     0.140 C  
BRANCH  17  18
HETATM   18  C   UNL     1      -8.416  11.743  67.753  1.00  0.00    -0.147 C  
BRANCH  18  19
HETATM   19  N   UNL     1      -8.310  10.352  68.196  1.00  0.00    -0.114 NA 
HETATM   20  C   UNL     1      -9.810   9.666  70.206  1.00  0.00    -0.321 C  
HETATM   21  C   UNL     1      -8.432  10.083  69.637  1.00  0.00    -0.180 C  
HETATM   22  C   UNL     1     -10.718   8.859  69.254  1.00  0.00    -0.162 C  
HETATM   23  C   UNL     1     -10.631   9.532  67.884  1.00  0.00    -0.299 C  
HETATM   24  C   UNL     1      -9.187   9.488  67.399  1.00  0.00    -0.133 C  
BRANCH  22  25
HETATM   25  N   UNL     1     -10.499   7.407  69.178  1.00  0.00    -0.211 N  
HETATM   26  C   UNL     1     -10.783   6.535  68.099  1.00  0.00    -0.282 C  
HETATM   27  O   UNL     1     -11.229   6.795  66.995  1.00  0.00    -0.393 OA 
HETATM   28  N   UNL     1     -10.448   5.241  68.524  1.00  0.00    -0.124 NA 
HETATM   29  C   UNL     1      -9.988   5.289  69.826  1.00  0.00    -0.236 A  
HETATM   30  C   UNL     1      -9.582   4.245  70.636  1.00  0.00    -0.260 A  
HETATM   31  C   UNL     1      -9.207   4.565  71.937  1.00  0.00    -0.178 A  
HETATM   32  C   UNL     1      -9.235   5.898  72.389  1.00  0.00    -0.146 A  
HETATM   33  C   UNL     1      -9.620   6.943  71.535  1.00  0.00    -0.162 A  
HETATM   34  C   UNL     1     -10.011   6.615  70.251  1.00  0.00    -0.174 A  
ENDBRANCH  22  25
ENDBRANCH  18  19
ENDBRANCH  17  18
ENDBRANCH   8  17
TORSDOF 4
ENDMDL
MODEL       18
REMARK 921   NORMALIZED FREE ENERGY PREDICTED BY IDOCK:   -7.40 KCAL/MOL
REMARK 922        TOTAL FREE ENERGY PREDICTED BY IDOCK:   -9.92 KCAL/MOL
REMARK 923 INTER-LIGAND FREE ENERGY PREDICTED BY IDOCK:   -9.61 KCAL/MOL
REMARK 924 INTRA-LIGAND FREE ENERGY PREDICTED BY IDOCK:   -0.31 KCAL/MOL
REMARK 927      BINDING AFFINITY PREDICTED BY RF-SCORE:    0.00 PKD
ROOT
HETATM    1  F   UNL     1     -10.681  10.854  62.816  1.00  0.00    -0.168 F  
HETATM    2  C   UNL     1     -10.920  11.684  63.840  1.00  0.00    -0.407 A  
HETATM    3  C   UNL     1     -11.957  12.601  63.758  1.00  0.00    -0.588 A  
HETATM    4  C   UNL     1     -12.194  13.479  64.823  1.00  0.00    -0.450 A  
HETATM    5  C   UNL     1     -11.395  13.445  65.984  1.00  0.00    -0.329 A  
HETATM    6  C   UNL     1     -11.631  14.472  67.107  1.00  0.00    -0.406 C  
HETATM    7  C   UNL     1     -10.354  12.502  66.031  1.00  0.00    -0.277 A  
HETATM    8  C   UNL     1     -12.106  13.863  68.463  1.00  0.00    -0.331 C  
HETATM    9  C   UNL     1     -10.117  11.626  64.968  1.00  0.00    -0.305 A  
HETATM   10  C   UNL     1     -10.606  15.611  67.217  1.00  0.00    -0.305 A  
HETATM   11  C   UNL     1      -9.462  15.692  66.406  1.00  0.00    -0.321 A  
HETATM   12  F   UNL     1      -8.086  18.906  67.389  1.00  0.00    -0.257 F  
HETATM   13  C   UNL     1     -10.869  16.688  68.085  1.00  0.00    -0.348 A  
HETATM   14  C   UNL     1      -8.604  16.797  66.475  1.00  0.00    -0.312 A  
HETATM   15  C   UNL     1      -8.894  17.839  67.347  1.00  0.00    -0.240 A  
HETATM   16  C   UNL     1     -10.018  17.795  68.155  1.00  0.00    -0.342 A  
ENDROOT
BRANCH   8  17
HETATM   17  C   UNL     1     -11.265  12.819  69.208  1.00  0.00    -0.252 C  
BRANCH  17  18
HETATM   18  C   UNL     1     -11.977  11.662  69.916  1.00  0.00    -0.340 C  
BRANCH  18  19
HETATM   19  N   UNL     1     -11.582  10.293  69.582  1.00  0.00    -0.228 NA 
HETATM   20  C   UNL     1      -9.182   9.583  70.286  1.00  0.00    -0.303 C  
HETATM   21  C   UNL     1     -10.180  10.060  69.203  1.00  0.00    -0.210 C  
HETATM   22  C   UNL     1      -9.771   8.698  71.405  1.00  0.00    -0.244 C  
HETATM   23  C   UNL     1     -11.098   9.333  71.818  1.00  0.00    -0.398 C  
HETATM   24  C   UNL     1     -12.035   9.357  70.616  1.00  0.00    -0.170 C  
BRANCH  22  25
HETATM   25  N   UNL     1      -9.902   7.259  71.132  1.00  0.00    -0.182 N  
HETATM   26  C   UNL     1      -9.971   6.611  69.874  1.00  0.00    -0.171 C  
HETATM   27  O   UNL     1      -9.899   7.088  68.756  1.00  0.00    -0.148 OA 
HETATM   28  N   UNL     1     -10.145   5.242  70.132  1.00  0.00    -0.240 NA 
HETATM   29  C   UNL     1     -10.202   5.036  71.498  1.00  0.00    -0.204 A  
HETATM   30  C   UNL     1     -10.395   3.850  72.182  1.00  0.00    -0.139 A  
HETATM   31  C   UNL     1     -10.462   3.927  73.570  1.00  0.00    -0.257 A  
HETATM   32  C   UNL     1     -10.327   5.162  74.232  1.00  0.00    -0.314 A  
HETATM   33  C   UNL     1     -10.100   6.346  73.513  1.00  0.00    -0.240 A  
HETATM   34  C   UNL     1     -10.056   6.265  72.134  1.00  0.00    -0.182 A  
ENDBRANCH  22  25
ENDBRANCH  18  19
ENDBRANCH  17  18
ENDBRANCH   8  17
TORSDOF 4
ENDMDL
MODEL       19
REMARK 921   NORMALIZED FREE ENERGY PREDICTED BY IDOCK:   -7.37 KCAL/MOL
REMARK 922        TOTAL FREE ENERGY PREDICTED BY IDOCK:   -9.88 KCAL/MOL
REMARK 923 INTER-LIGAND FREE ENERGY PREDICTED BY IDOCK:   -9.71 KCAL/MOL
REMARK 924 INTRA-LIGAND FREE ENERGY PREDICTED BY IDOCK:   -0.18 KCAL/MOL
REMARK 927      BINDING AFFINITY PREDICTED BY RF-SCORE:    0.00 PKD
ROOT
HETATM    1  F   UNL     1     -13.197  16.026  72.071  1.00  0.00    -0.506 F  
HETATM    2  C   UNL     1     -12.455  15.412  71.140  1.00  0.00    -0.402 A  
HETATM    3  C   UNL     1     -11.375  16.073  70.573  1.00  0.00    -0.420 A  
HETATM    4  C   UNL     1     -10.611  15.436  69.587  1.00  0.00    -0.285 A  
HETATM    5  C   UNL     1     -10.920  14.128  69.160  1.00  0.00    -0.280 A  
HETATM    6  C   UNL     1     -10.109  13.481  68.023  1.00  0.00    -0.244 C  
HETATM    7  C   UNL     1     -12.022  13.491  69.758  1.00  0.00    -0.405 A  
HETATM    8  C   UNL     1      -9.286  12.222  68.437  1.00  0.00    -0.162 C  
HETATM    9  C   UNL     1     -12.784  14.126  70.742  1.00  0.00    -0.414 A  
HETATM   10  C   UNL     1     -10.801  13.397  66.654  1.00  0.00    -0.285 A  
HETATM   11  C   UNL     1     -12.129  13.803  66.441  1.00  0.00    -0.483 A  
HETATM   12  F   UNL     1     -12.452  13.423  62.844  1.00  0.00    -0.531 F  
HETATM   13  C   UNL     1     -10.051  13.004  65.529  1.00  0.00    -0.270 A  
HETATM   14  C   UNL     1     -12.690  13.798  65.158  1.00  0.00    -0.439 A  
HETATM   15  C   UNL     1     -11.920  13.399  64.073  1.00  0.00    -0.464 A  
HETATM   16  C   UNL     1     -10.605  13.000  64.245  1.00  0.00    -0.434 A  
ENDROOT
BRANCH   8  17
HETATM   17  C   UNL     1      -9.967  10.985  69.037  1.00  0.00    -0.184 C  
BRANCH  17  18
HETATM   18  C   UNL     1      -9.103   9.784  69.437  1.00  0.00    -0.201 C  
BRANCH  18  19
HETATM   19  N   UNL     1      -9.410   9.095  70.691  1.00  0.00    -0.237 NA 
HETATM   20  C   UNL     1     -11.596   7.688  70.725  1.00  0.00    -0.284 C  
HETATM   21  C   UNL     1     -10.824   8.982  71.080  1.00  0.00    -0.294 C  
HETATM   22  C   UNL     1     -10.762   6.389  70.697  1.00  0.00    -0.257 C  
HETATM   23  C   UNL     1      -9.456   6.719  69.976  1.00  0.00    -0.158 C  
HETATM   24  C   UNL     1      -8.718   7.803  70.753  1.00  0.00    -0.134 C  
BRANCH  22  25
HETATM   25  N   UNL     1     -10.536   5.702  71.978  1.00  0.00    -0.212 N  
HETATM   26  C   UNL     1     -10.642   6.234  73.286  1.00  0.00    -0.262 C  
HETATM   27  O   UNL     1     -10.980   7.350  73.640  1.00  0.00    -0.306 OA 
HETATM   28  N   UNL     1     -10.279   5.208  74.172  1.00  0.00    -0.226 NA 
HETATM   29  C   UNL     1      -9.937   4.079  73.452  1.00  0.00    -0.131 A  
HETATM   30  C   UNL     1      -9.492   2.858  73.924  1.00  0.00    -0.112 A  
HETATM   31  C   UNL     1      -9.167   1.895  72.974  1.00  0.00    -0.089 A  
HETATM   32  C   UNL     1      -9.301   2.164  71.598  1.00  0.00    -0.181 A  
HETATM   33  C   UNL     1      -9.786   3.401  71.148  1.00  0.00    -0.222 A  
HETATM   34  C   UNL     1     -10.087   4.360  72.097  1.00  0.00    -0.195 A  
ENDBRANCH  22  25
ENDBRANCH  18  19
ENDBRANCH  17  18
ENDBRANCH   8  17
TORSDOF 4
ENDMDL
MODEL       20
REMARK 921   NORMALIZED FREE ENERGY PREDICTED BY IDOCK:   -7.35 KCAL/MOL
REMARK 922        TOTAL FREE ENERGY PREDICTED BY IDOCK:   -9.86 KCAL/MOL
REMARK 923 INTER-LIGAND FREE ENERGY PREDICTED BY IDOCK:   -9.50 KCAL/MOL
REMARK 924 INTRA-LIGAND FREE ENERGY PREDICTED BY IDOCK:   -0.35 KCAL/MOL
REMARK 927      BINDING AFFINITY PREDICTED BY RF-SCORE:    0.00 PKD
ROOT
HETATM    1  F   UNL     1     -12.619  12.795  63.225  1.00  0.00    -0.531 F  
HETATM    2  C   UNL     1     -11.673  12.168  63.936  1.00  0.00    -0.458 A  
HETATM    3  C   UNL     1     -10.658  11.484  63.283  1.00  0.00    -0.405 A  
HETATM    4  C   UNL     1      -9.681  10.816  64.030  1.00  0.00    -0.367 A  
HETATM    5  C   UNL     1      -9.708  10.827  65.440  1.00  0.00    -0.297 A  
HETATM    6  C   UNL     1      -8.663  10.021  66.233  1.00  0.00    -0.148 C  
HETATM    7  C   UNL     1     -10.751  11.531  66.065  1.00  0.00    -0.332 A  
HETATM    8  C   UNL     1      -7.697  10.880  67.106  1.00  0.00    -0.123 C  
HETATM    9  C   UNL     1     -11.728  12.198  65.321  1.00  0.00    -0.364 A  
HETATM   10  C   UNL     1      -9.154   8.716  66.878  1.00  0.00    -0.175 A  
HETATM   11  C   UNL     1     -10.494   8.298  66.835  1.00  0.00    -0.365 A  
HETATM   12  F   UNL     1     -10.294   5.016  68.377  1.00  0.00    -0.230 F  
HETATM   13  C   UNL     1      -8.213   7.835  67.443  1.00  0.00    -0.123 A  
HETATM   14  C   UNL     1     -10.881   7.056  67.353  1.00  0.00    -0.371 A  
HETATM   15  C   UNL     1      -9.924   6.215  67.908  1.00  0.00    -0.134 A  
HETATM   16  C   UNL     1      -8.593   6.593  67.960  1.00  0.00    -0.118 A  
ENDROOT
BRANCH   8  17
HETATM   17  C   UNL     1      -8.228  11.811  68.204  1.00  0.00    -0.153 C  
BRANCH  17  18
HETATM   18  C   UNL     1      -7.501  13.134  68.470  1.00  0.00    -0.117 C  
BRANCH  18  19
HETATM   19  N   UNL     1      -7.763  14.262  67.575  1.00  0.00    -0.180 NA 
HETATM   20  C   UNL     1      -9.899  15.657  68.078  1.00  0.00    -0.209 C  
HETATM   21  C   UNL     1      -9.166  14.570  67.256  1.00  0.00    -0.207 C  
HETATM   22  C   UNL     1      -9.021  16.814  68.604  1.00  0.00    -0.251 C  
HETATM   23  C   UNL     1      -7.739  16.183  69.146  1.00  0.00    -0.230 C  
HETATM   24  C   UNL     1      -7.026  15.452  68.015  1.00  0.00    -0.133 C  
BRANCH  22  25
HETATM   25  N   UNL     1      -8.749  17.929  67.685  1.00  0.00    -0.240 N  
HETATM   26  C   UNL     1      -9.258  18.129  66.379  1.00  0.00    -0.255 C  
HETATM   27  O   UNL     1     -10.053  17.455  65.749  1.00  0.00    -0.544 OA 
HETATM   28  N   UNL     1      -8.668  19.305  65.889  1.00  0.00    -0.421 NA 
HETATM   29  C   UNL     1      -7.807  19.817  66.841  1.00  0.00    -0.284 A  
HETATM   30  C   UNL     1      -7.003  20.939  66.760  1.00  0.00    -0.320 A  
HETATM   31  C   UNL     1      -6.184  21.208  67.853  1.00  0.00    -0.387 A  
HETATM   32  C   UNL     1      -6.194  20.372  68.986  1.00  0.00    -0.351 A  
HETATM   33  C   UNL     1      -7.045  19.258  69.054  1.00  0.00    -0.391 A  
HETATM   34  C   UNL     1      -7.839  18.985  67.956  1.00  0.00    -0.287 A  
ENDBRANCH  22  25
ENDBRANCH  18  19
ENDBRANCH  17  18
ENDBRANCH   8  17
TORSDOF 4
ENDMDL
MODEL       21
REMARK 921   NORMALIZED FREE ENERGY PREDICTED BY IDOCK:   -7.34 KCAL/MOL
REMARK 922        TOTAL FREE ENERGY PREDICTED BY IDOCK:   -9.84 KCAL/MOL
REMARK 923 INTER-LIGAND FREE ENERGY PREDICTED BY IDOCK:   -9.54 KCAL/MOL
REMARK 924 INTRA-LIGAND FREE ENERGY PREDICTED BY IDOCK:   -0.30 KCAL/MOL
REMARK 927      BINDING AFFINITY PREDICTED BY RF-SCORE:    0.00 PKD
ROOT
HETATM    1  F   UNL     1      -8.415  20.828  67.427  1.00  0.00    -0.392 F  
HETATM    2  C   UNL     1      -9.019  19.638  67.533  1.00  0.00    -0.317 A  
HETATM    3  C   UNL     1     -10.300  19.467  67.029  1.00  0.00    -0.568 A  
HETATM    4  C   UNL     1     -10.937  18.227  67.157  1.00  0.00    -0.085 A  
HETATM    5  C   UNL     1     -10.295  17.142  67.790  1.00  0.00    -0.347 A  
HETATM    6  C   UNL     1     -11.047  15.813  67.982  1.00  0.00    -0.337 C  
HETATM    7  C   UNL     1      -8.998  17.354  68.288  1.00  0.00    -0.268 A  
HETATM    8  C   UNL     1     -10.443  14.599  67.210  1.00  0.00    -0.266 C  
HETATM    9  C   UNL     1      -8.362  18.591  68.160  1.00  0.00    -0.316 A  
HETATM   10  C   UNL     1     -11.546  15.510  69.403  1.00  0.00    -0.366 A  
HETATM   11  C   UNL     1     -11.273  16.340  70.503  1.00  0.00    -0.327 A  
HETATM   12  F   UNL     1     -13.219  14.754  73.128  1.00  0.00    -0.481 F  
HETATM   13  C   UNL     1     -12.409  14.417  69.609  1.00  0.00    -0.300 A  
HETATM   14  C   UNL     1     -11.826  16.077  71.763  1.00  0.00    -0.599 A  
HETATM   15  C   UNL     1     -12.670  14.986  71.928  1.00  0.00    -0.337 A  
HETATM   16  C   UNL     1     -12.966  14.151  70.864  1.00  0.00    -0.374 A  
ENDROOT
BRANCH   8  17
HETATM   17  C   UNL     1      -8.998  14.142  67.446  1.00  0.00    -0.205 C  
BRANCH  17  18
HETATM   18  C   UNL     1      -8.587  12.730  67.015  1.00  0.00    -0.177 C  
BRANCH  18  19
HETATM   19  N   UNL     1      -8.721  11.641  67.983  1.00  0.00    -0.150 NA 
HETATM   20  C   UNL     1     -11.145  10.850  68.497  1.00  0.00    -0.311 C  
HETATM   21  C   UNL     1      -9.886  11.665  68.882  1.00  0.00    -0.040 C  
HETATM   22  C   UNL     1     -10.892   9.553  67.699  1.00  0.00    -0.187 C  
HETATM   23  C   UNL     1      -9.845   9.886  66.636  1.00  0.00    -0.265 C  
HETATM   24  C   UNL     1      -8.563  10.340  67.323  1.00  0.00    -0.125 C  
BRANCH  22  25
HETATM   25  N   UNL     1     -10.548   8.344  68.462  1.00  0.00    -0.156 N  
HETATM   26  C   UNL     1     -10.025   7.122  67.974  1.00  0.00    -0.158 C  
HETATM   27  O   UNL     1      -9.710   6.816  66.837  1.00  0.00    -0.153 OA 
HETATM   28  N   UNL     1      -9.914   6.260  69.076  1.00  0.00    -0.141 NA 
HETATM   29  C   UNL     1     -10.367   6.904  70.211  1.00  0.00    -0.199 A  
HETATM   30  C   UNL     1     -10.462   6.414  71.500  1.00  0.00    -0.256 A  
HETATM   31  C   UNL     1     -11.004   7.264  72.460  1.00  0.00    -0.322 A  
HETATM   32  C   UNL     1     -11.422   8.565  72.119  1.00  0.00    -0.446 A  
HETATM   33  C   UNL     1     -11.284   9.048  70.809  1.00  0.00    -0.329 A  
HETATM   34  C   UNL     1     -10.764   8.191  69.857  1.00  0.00    -0.241 A  
ENDBRANCH  22  25
ENDBRANCH  18  19
ENDBRANCH  17  18
ENDBRANCH   8  17
TORSDOF 4
ENDMDL
MODEL       22
REMARK 921   NORMALIZED FREE ENERGY PREDICTED BY IDOCK:   -7.32 KCAL/MOL
REMARK 922        TOTAL FREE ENERGY PREDICTED BY IDOCK:   -9.82 KCAL/MOL
REMARK 923 INTER-LIGAND FREE ENERGY PREDICTED BY IDOCK:  -10.19 KCAL/MOL
REMARK 924 INTRA-LIGAND FREE ENERGY PREDICTED BY IDOCK:    0.37 KCAL/MOL
REMARK 927      BINDING AFFINITY PREDICTED BY RF-SCORE:    0.00 PKD
ROOT
HETATM    1  F   UNL     1     -10.440   6.909  73.982  1.00  0.00    -0.345 F  
HETATM    2  C   UNL     1     -10.612   7.471  72.779  1.00  0.00    -0.313 A  
HETATM    3  C   UNL     1     -11.461   6.878  71.856  1.00  0.00    -0.308 A  
HETATM    4  C   UNL     1     -11.626   7.459  70.592  1.00  0.00    -0.295 A  
HETATM    5  C   UNL     1     -10.944   8.642  70.241  1.00  0.00    -0.251 A  
HETATM    6  C   UNL     1     -11.087   9.215  68.819  1.00  0.00     0.100 C  
HETATM    7  C   UNL     1     -10.093   9.213  71.203  1.00  0.00    -0.384 A  
HETATM    8  C   UNL     1     -11.772  10.615  68.742  1.00  0.00    -0.259 C  
HETATM    9  C   UNL     1      -9.928   8.634  72.464  1.00  0.00    -0.257 A  
HETATM   10  C   UNL     1      -9.890   9.013  67.878  1.00  0.00    -0.207 A  
HETATM   11  C   UNL     1      -8.687   8.415  68.287  1.00  0.00    -0.143 A  
HETATM   12  F   UNL     1      -6.851   8.229  65.159  1.00  0.00    -0.065 F  
HETATM   13  C   UNL     1     -10.029   9.331  66.514  1.00  0.00    -0.344 A  
HETATM   14  C   UNL     1      -7.656   8.164  67.373  1.00  0.00    -0.101 A  
HETATM   15  C   UNL     1      -7.828   8.496  66.035  1.00  0.00    -0.098 A  
HETATM   16  C   UNL     1      -9.005   9.080  65.596  1.00  0.00    -0.249 A  
ENDROOT
BRANCH   8  17
HETATM   17  C   UNL     1     -11.192  11.829  69.479  1.00  0.00    -0.265 C  
BRANCH  17  18
HETATM   18  C   UNL     1     -12.147  12.917  69.983  1.00  0.00    -0.286 C  
BRANCH  18  19
HETATM   19  N   UNL     1     -12.088  14.238  69.356  1.00  0.00    -0.326 NA 
HETATM   20  C   UNL     1      -9.718  15.270  69.068  1.00  0.00    -0.234 C  
HETATM   21  C   UNL     1     -11.060  15.175  69.834  1.00  0.00    -0.284 C  
HETATM   22  C   UNL     1      -9.788  15.010  67.548  1.00  0.00    -0.217 C  
HETATM   23  C   UNL     1     -10.696  13.796  67.350  1.00  0.00    -0.279 C  
HETATM   24  C   UNL     1     -12.083  14.117  67.894  1.00  0.00    -0.274 C  
BRANCH  22  25
HETATM   25  N   UNL     1     -10.168  16.138  66.685  1.00  0.00    -0.279 N  
HETATM   26  C   UNL     1     -10.599  16.101  65.337  1.00  0.00    -0.380 C  
HETATM   27  O   UNL     1     -10.787  15.139  64.613  1.00  0.00    -0.377 OA 
HETATM   28  N   UNL     1     -10.791  17.432  64.935  1.00  0.00    -0.771 NA 
HETATM   29  C   UNL     1     -10.476  18.278  65.982  1.00  0.00    -0.361 A  
HETATM   30  C   UNL     1     -10.494  19.660  66.009  1.00  0.00    -0.622 A  
HETATM   31  C   UNL     1     -10.080  20.273  67.187  1.00  0.00    -0.556 A  
HETATM   32  C   UNL     1      -9.673  19.507  68.296  1.00  0.00    -0.495 A  
HETATM   33  C   UNL     1      -9.695  18.105  68.252  1.00  0.00    -0.344 A  
HETATM   34  C   UNL     1     -10.088  17.502  67.072  1.00  0.00    -0.323 A  
ENDBRANCH  22  25
ENDBRANCH  18  19
ENDBRANCH  17  18
ENDBRANCH   8  17
TORSDOF 4
ENDMDL
MODEL       23
REMARK 921   NORMALIZED FREE ENERGY PREDICTED BY IDOCK:   -7.30 KCAL/MOL
REMARK 922        TOTAL FREE ENERGY PREDICTED BY IDOCK:   -9.80 KCAL/MOL
REMARK 923 INTER-LIGAND FREE ENERGY PREDICTED BY IDOCK:   -9.68 KCAL/MOL
REMARK 924 INTRA-LIGAND FREE ENERGY PREDICTED BY IDOCK:   -0.12 KCAL/MOL
REMARK 927      BINDING AFFINITY PREDICTED BY RF-SCORE:    0.00 PKD
ROOT
HETATM    1  F   UNL     1      -7.780   4.093  67.622  1.00  0.00    -0.076 F  
HETATM    2  C   UNL     1      -8.259   5.274  68.035  1.00  0.00    -0.098 A  
HETATM    3  C   UNL     1      -7.618   5.960  69.056  1.00  0.00    -0.090 A  
HETATM    4  C   UNL     1      -8.130   7.185  69.498  1.00  0.00    -0.130 A  
HETATM    5  C   UNL     1      -9.291   7.739  68.919  1.00  0.00    -0.146 A  
HETATM    6  C   UNL     1      -9.874   9.051  69.476  1.00  0.00    -0.181 C  
HETATM    7  C   UNL     1      -9.913   7.015  67.887  1.00  0.00    -0.183 A  
HETATM    8  C   UNL     1      -9.852  10.253  68.481  1.00  0.00    -0.174 C  
HETATM    9  C   UNL     1      -9.402   5.792  67.446  1.00  0.00    -0.112 A  
HETATM   10  C   UNL     1     -11.143   8.925  70.332  1.00  0.00    -0.270 A  
HETATM   11  C   UNL     1     -11.805   7.704  70.543  1.00  0.00    -0.102 A  
HETATM   12  F   UNL     1     -14.374   8.660  72.926  1.00  0.00    -0.410 F  
HETATM   13  C   UNL     1     -11.612  10.052  71.033  1.00  0.00    -0.476 A  
HETATM   14  C   UNL     1     -12.904   7.618  71.407  1.00  0.00    -0.354 A  
HETATM   15  C   UNL     1     -13.341   8.753  72.079  1.00  0.00    -0.413 A  
HETATM   16  C   UNL     1     -12.707   9.971  71.899  1.00  0.00    -0.493 A  
ENDROOT
BRANCH   8  17
HETATM   17  C   UNL     1     -10.566  10.180  67.125  1.00  0.00    -0.308 C  
BRANCH  17  18
HETATM   18  C   UNL     1      -9.907  10.832  65.904  1.00  0.00    -0.239 C  
BRANCH  18  19
HETATM   19  N   UNL     1     -10.466  12.088  65.402  1.00  0.00    -0.264 NA 
HETATM   20  C   UNL     1     -11.873  13.478  67.089  1.00  0.00    -0.430 C  
HETATM   21  C   UNL     1     -11.790  12.494  65.898  1.00  0.00    -0.430 C  
HETATM   22  C   UNL     1     -10.730  14.511  67.194  1.00  0.00    -0.286 C  
HETATM   23  C   UNL     1      -9.429  13.758  66.916  1.00  0.00    -0.265 C  
HETATM   24  C   UNL     1      -9.483  13.171  65.511  1.00  0.00     0.181 C  
BRANCH  22  25
HETATM   25  N   UNL     1     -10.849  15.736  66.390  1.00  0.00    -0.273 N  
HETATM   26  C   UNL     1     -11.235  15.857  65.033  1.00  0.00    -0.290 C  
HETATM   27  O   UNL     1     -11.589  14.992  64.251  1.00  0.00    -0.292 OA 
HETATM   28  N   UNL     1     -11.144  17.219  64.706  1.00  0.00    -0.920 NA 
HETATM   29  C   UNL     1     -10.700  17.928  65.806  1.00  0.00    -0.089 A  
HETATM   30  C   UNL     1     -10.443  19.282  65.912  1.00  0.00    -0.534 A  
HETATM   31  C   UNL     1      -9.952  19.737  67.132  1.00  0.00    -0.536 A  
HETATM   32  C   UNL     1      -9.742  18.847  68.203  1.00  0.00    -0.396 A  
HETATM   33  C   UNL     1     -10.042  17.482  68.077  1.00  0.00    -0.332 A  
HETATM   34  C   UNL     1     -10.510  17.034  66.856  1.00  0.00    -0.268 A  
ENDBRANCH  22  25
ENDBRANCH  18  19
ENDBRANCH  17  18
ENDBRANCH   8  17
TORSDOF 4
ENDMDL
MODEL       24
REMARK 921   NORMALIZED FREE ENERGY PREDICTED BY IDOCK:   -7.30 KCAL/MOL
REMARK 922        TOTAL FREE ENERGY PREDICTED BY IDOCK:   -9.80 KCAL/MOL
REMARK 923 INTER-LIGAND FREE ENERGY PREDICTED BY IDOCK:   -9.43 KCAL/MOL
REMARK 924 INTRA-LIGAND FREE ENERGY PREDICTED BY IDOCK:   -0.37 KCAL/MOL
REMARK 927      BINDING AFFINITY PREDICTED BY RF-SCORE:    0.00 PKD
ROOT
HETATM    1  F   UNL     1      -8.257  20.678  67.776  1.00  0.00    -0.309 F  
HETATM    2  C   UNL     1      -8.876  19.491  67.825  1.00  0.00    -0.318 A  
HETATM    3  C   UNL     1     -10.176  19.370  67.357  1.00  0.00    -0.530 A  
HETATM    4  C   UNL     1     -10.826  18.132  67.425  1.00  0.00    -0.258 A  
HETATM    5  C   UNL     1     -10.179  17.000  67.962  1.00  0.00    -0.319 A  
HETATM    6  C   UNL     1     -10.944  15.670  68.093  1.00  0.00    -0.314 C  
HETATM    7  C   UNL     1      -8.862  17.161  68.426  1.00  0.00    -0.255 A  
HETATM    8  C   UNL     1     -10.385  14.503  67.221  1.00  0.00    -0.260 C  
HETATM    9  C   UNL     1      -8.213  18.397  68.358  1.00  0.00    -0.331 A  
HETATM   10  C   UNL     1     -11.396  15.280  69.508  1.00  0.00    -0.299 A  
HETATM   11  C   UNL     1     -11.073  16.032  70.650  1.00  0.00    -0.352 A  
HETATM   12  F   UNL     1     -12.950  14.300  73.232  1.00  0.00    -0.566 F  
HETATM   13  C   UNL     1     -12.268  14.187  69.672  1.00  0.00    -0.376 A  
HETATM   14  C   UNL     1     -11.586  15.693  71.908  1.00  0.00    -0.547 A  
HETATM   15  C   UNL     1     -12.439  14.604  72.032  1.00  0.00    -0.332 A  
HETATM   16  C   UNL     1     -12.785  13.845  70.926  1.00  0.00    -0.410 A  
ENDROOT
BRANCH   8  17
HETATM   17  C   UNL     1      -8.940  14.013  67.375  1.00  0.00    -0.208 C  
BRANCH  17  18
HETATM   18  C   UNL     1      -8.604  12.565  67.000  1.00  0.00    -0.188 C  
BRANCH  18  19
HETATM   19  N   UNL     1      -8.782  11.525  68.014  1.00  0.00    -0.145 NA 
HETATM   20  C   UNL     1     -11.166  10.506  68.210  1.00  0.00    -0.354 C  
HETATM   21  C   UNL     1     -10.071  11.474  68.720  1.00  0.00    -0.179 C  
HETATM   22  C   UNL     1     -10.662   9.201  67.557  1.00  0.00    -0.185 C  
HETATM   23  C   UNL     1      -9.498   9.585  66.644  1.00  0.00    -0.222 C  
HETATM   24  C   UNL     1      -8.393  10.214  67.483  1.00  0.00    -0.118 C  
BRANCH  22  25
HETATM   25  N   UNL     1     -10.326   8.082  68.450  1.00  0.00    -0.207 N  
HETATM   26  C   UNL     1     -10.005   8.130  69.829  1.00  0.00    -0.191 C  
HETATM   27  O   UNL     1      -9.975   9.088  70.581  1.00  0.00    -0.199 OA 
HETATM   28  N   UNL     1      -9.709   6.816  70.222  1.00  0.00    -0.172 NA 
HETATM   29  C   UNL     1      -9.820   5.974  69.132  1.00  0.00    -0.148 A  
HETATM   30  C   UNL     1      -9.587   4.612  69.068  1.00  0.00    -0.242 A  
HETATM   31  C   UNL     1      -9.725   4.007  67.823  1.00  0.00    -0.155 A  
HETATM   32  C   UNL     1     -10.096   4.759  66.692  1.00  0.00    -0.276 A  
HETATM   33  C   UNL     1     -10.358   6.134  66.792  1.00  0.00    -0.292 A  
HETATM   34  C   UNL     1     -10.198   6.732  68.028  1.00  0.00    -0.171 A  
ENDBRANCH  22  25
ENDBRANCH  18  19
ENDBRANCH  17  18
ENDBRANCH   8  17
TORSDOF 4
ENDMDL
MODEL       25
REMARK 921   NORMALIZED FREE ENERGY PREDICTED BY IDOCK:   -7.29 KCAL/MOL
REMARK 922        TOTAL FREE ENERGY PREDICTED BY IDOCK:   -9.78 KCAL/MOL
REMARK 923 INTER-LIGAND FREE ENERGY PREDICTED BY IDOCK:   -9.35 KCAL/MOL
REMARK 924 INTRA-LIGAND FREE ENERGY PREDICTED BY IDOCK:   -0.43 KCAL/MOL
REMARK 927      BINDING AFFINITY PREDICTED BY RF-SCORE:    0.00 PKD
ROOT
HETATM    1  F   UNL     1      -7.930   8.154  64.692  1.00  0.00    -0.116 F  
HETATM    2  C   UNL     1      -8.409   8.521  65.888  1.00  0.00    -0.138 A  
HETATM    3  C   UNL     1      -7.534   8.768  66.936  1.00  0.00    -0.090 A  
HETATM    4  C   UNL     1      -8.039   9.135  68.189  1.00  0.00    -0.104 A  
HETATM    5  C   UNL     1      -9.427   9.262  68.405  1.00  0.00    -0.145 A  
HETATM    6  C   UNL     1      -9.956   9.594  69.812  1.00  0.00    -0.252 C  
HETATM    7  C   UNL     1     -10.281   9.004  67.319  1.00  0.00    -0.323 A  
HETATM    8  C   UNL     1     -10.688  10.966  69.931  1.00  0.00    -0.135 C  
HETATM    9  C   UNL     1      -9.778   8.637  66.068  1.00  0.00    -0.238 A  
HETATM   10  C   UNL     1     -10.595   8.435  70.592  1.00  0.00    -0.234 A  
HETATM   11  C   UNL     1     -10.776   7.153  70.047  1.00  0.00    -0.268 A  
HETATM   12  F   UNL     1     -12.036   5.303  72.907  1.00  0.00    -0.365 F  
HETATM   13  C   UNL     1     -10.916   8.617  71.951  1.00  0.00    -0.412 A  
HETATM   14  C   UNL     1     -11.275   6.100  70.824  1.00  0.00    -0.373 A  
HETATM   15  C   UNL     1     -11.585   6.319  72.160  1.00  0.00    -0.319 A  
HETATM   16  C   UNL     1     -11.412   7.569  72.732  1.00  0.00    -0.352 A  
ENDROOT
BRANCH   8  17
HETATM   17  C   UNL     1     -11.924  11.288  69.081  1.00  0.00    -0.405 C  
BRANCH  17  18
HETATM   18  C   UNL     1     -11.779  12.244  67.892  1.00  0.00    -0.347 C  
BRANCH  18  19
HETATM   19  N   UNL     1     -10.557  13.044  67.789  1.00  0.00    -0.223 NA 
HETATM   20  C   UNL     1     -10.074  14.112  65.468  1.00  0.00    -0.360 C  
HETATM   21  C   UNL     1      -9.820  13.002  66.517  1.00  0.00    -0.263 C  
HETATM   22  C   UNL     1     -10.441  15.502  66.031  1.00  0.00    -0.323 C  
HETATM   23  C   UNL     1     -11.449  15.271  67.156  1.00  0.00    -0.202 C  
HETATM   24  C   UNL     1     -10.799  14.418  68.239  1.00  0.00    -0.242 C  
BRANCH  22  25
HETATM   25  N   UNL     1      -9.335  16.379  66.443  1.00  0.00    -0.271 N  
HETATM   26  C   UNL     1      -8.042  16.006  66.885  1.00  0.00    -0.247 C  
HETATM   27  O   UNL     1      -7.551  14.896  66.983  1.00  0.00    -0.166 OA 
HETATM   28  N   UNL     1      -7.368  17.193  67.212  1.00  0.00    -0.148 NA 
HETATM   29  C   UNL     1      -8.207  18.271  67.003  1.00  0.00    -0.239 A  
HETATM   30  C   UNL     1      -7.958  19.612  67.227  1.00  0.00    -0.314 A  
HETATM   31  C   UNL     1      -9.002  20.498  66.977  1.00  0.00    -0.380 A  
HETATM   32  C   UNL     1     -10.246  20.033  66.509  1.00  0.00    -0.598 A  
HETATM   33  C   UNL     1     -10.461  18.669  66.260  1.00  0.00    -0.468 A  
HETATM   34  C   UNL     1      -9.426  17.793  66.530  1.00  0.00    -0.290 A  
ENDBRANCH  22  25
ENDBRANCH  18  19
ENDBRANCH  17  18
ENDBRANCH   8  17
TORSDOF 4
ENDMDL
MODEL       26
REMARK 921   NORMALIZED FREE ENERGY PREDICTED BY IDOCK:   -7.26 KCAL/MOL
REMARK 922        TOTAL FREE ENERGY PREDICTED BY IDOCK:   -9.74 KCAL/MOL
REMARK 923 INTER-LIGAND FREE ENERGY PREDICTED BY IDOCK:   -9.53 KCAL/MOL
REMARK 924 INTRA-LIGAND FREE ENERGY PREDICTED BY IDOCK:   -0.21 KCAL/MOL
REMARK 927      BINDING AFFINITY PREDICTED BY RF-SCORE:    0.00 PKD
ROOT
HETATM    1  F   UNL     1     -12.908  14.685  64.414  1.00  0.00    -0.376 F  
HETATM    2  C   UNL     1     -12.229  13.834  65.194  1.00  0.00    -0.431 A  
HETATM    3  C   UNL     1     -12.199  12.483  64.879  1.00  0.00    -0.534 A  
HETATM    4  C   UNL     1     -11.503  11.593  65.706  1.00  0.00    -0.175 A  
HETATM    5  C   UNL     1     -10.827  12.047  66.857  1.00  0.00    -0.302 A  
HETATM    6  C   UNL     1     -10.134  11.036  67.788  1.00  0.00    -0.201 C  
HETATM    7  C   UNL     1     -10.881  13.423  67.143  1.00  0.00    -0.284 A  
HETATM    8  C   UNL     1      -8.583  11.182  67.876  1.00  0.00    -0.135 C  
HETATM    9  C   UNL     1     -11.575  14.311  66.319  1.00  0.00    -0.379 A  
HETATM   10  C   UNL     1     -10.845  10.730  69.115  1.00  0.00    -0.281 A  
HETATM   11  C   UNL     1     -12.020  11.383  69.521  1.00  0.00    -0.409 A  
HETATM   12  F   UNL     1     -12.848   9.588  72.568  1.00  0.00    -0.435 F  
HETATM   13  C   UNL     1     -10.374   9.674  69.917  1.00  0.00    -0.282 A  
HETATM   14  C   UNL     1     -12.688  11.008  70.694  1.00  0.00    -0.375 A  
HETATM   15  C   UNL     1     -12.191   9.963  71.463  1.00  0.00    -0.416 A  
HETATM   16  C   UNL     1     -11.038   9.292  71.087  1.00  0.00    -0.411 A  
ENDROOT
BRANCH   8  17
HETATM   17  C   UNL     1      -7.929  12.489  68.342  1.00  0.00    -0.139 C  
BRANCH  17  18
HETATM   18  C   UNL     1      -6.594  12.913  67.720  1.00  0.00    -0.140 C  
BRANCH  18  19
HETATM   19  N   UNL     1      -6.348  14.340  67.509  1.00  0.00    -0.328 NA 
HETATM   20  C   UNL     1      -8.260  15.954  68.216  1.00  0.00    -0.152 C  
HETATM   21  C   UNL     1      -7.491  15.179  67.118  1.00  0.00    -0.141 C  
HETATM   22  C   UNL     1      -7.424  16.414  69.430  1.00  0.00    -0.122 C  
HETATM   23  C   UNL     1      -6.521  15.241  69.814  1.00  0.00    -0.169 C  
HETATM   24  C   UNL     1      -5.608  14.910  68.640  1.00  0.00    -0.092 C  
BRANCH  22  25
HETATM   25  N   UNL     1      -6.677  17.674  69.300  1.00  0.00    -0.247 N  
HETATM   26  C   UNL     1      -5.646  18.170  70.135  1.00  0.00    -0.245 C  
HETATM   27  O   UNL     1      -5.128  17.654  71.109  1.00  0.00    -0.383 OA 
HETATM   28  N   UNL     1      -5.287  19.430  69.632  1.00  0.00    -0.197 NA 
HETATM   29  C   UNL     1      -6.073  19.727  68.534  1.00  0.00    -0.242 A  
HETATM   30  C   UNL     1      -6.074  20.873  67.760  1.00  0.00    -0.373 A  
HETATM   31  C   UNL     1      -7.009  20.939  66.732  1.00  0.00    -0.320 A  
HETATM   32  C   UNL     1      -7.900  19.874  66.498  1.00  0.00    -0.330 A  
HETATM   33  C   UNL     1      -7.856  18.709  67.279  1.00  0.00    -0.240 A  
HETATM   34  C   UNL     1      -6.938  18.659  68.311  1.00  0.00    -0.246 A  
ENDBRANCH  22  25
ENDBRANCH  18  19
ENDBRANCH  17  18
ENDBRANCH   8  17
TORSDOF 4
ENDMDL
MODEL       27
REMARK 921   NORMALIZED FREE ENERGY PREDICTED BY IDOCK:   -7.26 KCAL/MOL
REMARK 922        TOTAL FREE ENERGY PREDICTED BY IDOCK:   -9.74 KCAL/MOL
REMARK 923 INTER-LIGAND FREE ENERGY PREDICTED BY IDOCK:   -8.92 KCAL/MOL
REMARK 924 INTRA-LIGAND FREE ENERGY PREDICTED BY IDOCK:   -0.82 KCAL/MOL
REMARK 927      BINDING AFFINITY PREDICTED BY RF-SCORE:    0.00 PKD
ROOT
HETATM    1  F   UNL     1     -13.547  12.962  72.757  1.00  0.00    -0.588 F  
HETATM    2  C   UNL     1     -12.993  12.388  71.682  1.00  0.00    -0.305 A  
HETATM    3  C   UNL     1     -13.143  11.024  71.473  1.00  0.00    -0.500 A  
HETATM    4  C   UNL     1     -12.547  10.424  70.357  1.00  0.00    -0.329 A  
HETATM    5  C   UNL     1     -11.797  11.184  69.436  1.00  0.00    -0.415 A  
HETATM    6  C   UNL     1     -11.092  10.484  68.260  1.00  0.00    -0.340 C  
HETATM    7  C   UNL     1     -11.668  12.562  69.681  1.00  0.00    -0.372 A  
HETATM    8  C   UNL     1     -11.617  10.887  66.847  1.00  0.00     0.331 C  
HETATM    9  C   UNL     1     -12.262  13.162  70.794  1.00  0.00    -0.375 A  
HETATM   10  C   UNL     1      -9.570  10.318  68.377  1.00  0.00    -0.155 A  
HETATM   11  C   UNL     1      -8.823  10.840  69.447  1.00  0.00     0.027 A  
HETATM   12  F   UNL     1      -5.511   9.527  68.747  1.00  0.00    -0.037 F  
HETATM   13  C   UNL     1      -8.893   9.516  67.440  1.00  0.00    -0.134 A  
HETATM   14  C   UNL     1      -7.452  10.585  69.564  1.00  0.00    -0.146 A  
HETATM   15  C   UNL     1      -6.817   9.792  68.616  1.00  0.00    -0.051 A  
HETATM   16  C   UNL     1      -7.523   9.256  67.553  1.00  0.00    -0.088 A  
ENDROOT
BRANCH   8  17
HETATM   17  C   UNL     1     -11.583  12.345  66.369  1.00  0.00    -0.442 C  
BRANCH  17  18
HETATM   18  C   UNL     1     -10.349  12.848  65.612  1.00  0.00    -0.282 C  
BRANCH  18  19
HETATM   19  N   UNL     1      -9.925  14.234  65.818  1.00  0.00    -0.326 NA 
HETATM   20  C   UNL     1     -11.011  15.483  67.824  1.00  0.00    -0.317 C  
HETATM   21  C   UNL     1     -10.930  15.191  66.306  1.00  0.00    -0.335 C  
HETATM   22  C   UNL     1      -9.679  15.397  68.600  1.00  0.00    -0.210 C  
HETATM   23  C   UNL     1      -8.958  14.144  68.102  1.00  0.00    -0.188 C  
HETATM   24  C   UNL     1      -8.690  14.284  66.608  1.00  0.00    -0.068 C  
BRANCH  22  25
HETATM   25  N   UNL     1      -8.810  16.583  68.588  1.00  0.00    -0.228 N  
HETATM   26  C   UNL     1      -7.489  16.705  69.085  1.00  0.00    -0.207 C  
HETATM   27  O   UNL     1      -6.774  15.857  69.589  1.00  0.00    -0.189 OA 
HETATM   28  N   UNL     1      -7.104  18.040  68.891  1.00  0.00    -0.270 NA 
HETATM   29  C   UNL     1      -8.147  18.740  68.312  1.00  0.00    -0.324 A  
HETATM   30  C   UNL     1      -8.205  20.081  67.981  1.00  0.00    -0.256 A  
HETATM   31  C   UNL     1      -9.404  20.547  67.450  1.00  0.00    -0.511 A  
HETATM   32  C   UNL     1     -10.494  19.677  67.255  1.00  0.00    -0.596 A  
HETATM   33  C   UNL     1     -10.396  18.314  67.570  1.00  0.00    -0.415 A  
HETATM   34  C   UNL     1      -9.210  17.862  68.117  1.00  0.00    -0.278 A  
ENDBRANCH  22  25
ENDBRANCH  18  19
ENDBRANCH  17  18
ENDBRANCH   8  17
TORSDOF 4
ENDMDL
MODEL       28
REMARK 921   NORMALIZED FREE ENERGY PREDICTED BY IDOCK:   -7.25 KCAL/MOL
REMARK 922        TOTAL FREE ENERGY PREDICTED BY IDOCK:   -9.74 KCAL/MOL
REMARK 923 INTER-LIGAND FREE ENERGY PREDICTED BY IDOCK:   -9.04 KCAL/MOL
REMARK 924 INTRA-LIGAND FREE ENERGY PREDICTED BY IDOCK:   -0.70 KCAL/MOL
REMARK 927      BINDING AFFINITY PREDICTED BY RF-SCORE:    0.00 PKD
ROOT
HETATM    1  F   UNL     1     -11.360  16.350  64.106  1.00  0.00    -0.501 F  
HETATM    2  C   UNL     1     -11.398  15.247  64.866  1.00  0.00    -0.384 A  
HETATM    3  C   UNL     1     -12.466  14.369  64.754  1.00  0.00    -0.371 A  
HETATM    4  C   UNL     1     -12.512  13.226  65.561  1.00  0.00    -0.531 A  
HETATM    5  C   UNL     1     -11.486  12.949  66.489  1.00  0.00    -0.390 A  
HETATM    6  C   UNL     1     -11.601  11.725  67.415  1.00  0.00    -0.352 C  
HETATM    7  C   UNL     1     -10.421  13.862  66.573  1.00  0.00    -0.282 A  
HETATM    8  C   UNL     1     -10.512  10.630  67.194  1.00  0.00    -0.295 C  
HETATM    9  C   UNL     1     -10.374  15.003  65.767  1.00  0.00    -0.354 A  
HETATM   10  C   UNL     1     -11.963  12.010  68.881  1.00  0.00    -0.303 A  
HETATM   11  C   UNL     1     -12.106  13.309  69.395  1.00  0.00    -0.301 A  
HETATM   12  F   UNL     1     -13.261  12.644  72.773  1.00  0.00    -0.473 F  
HETATM   13  C   UNL     1     -12.280  10.933  69.730  1.00  0.00    -0.381 A  
HETATM   14  C   UNL     1     -12.530  13.523  70.713  1.00  0.00    -0.428 A  
HETATM   15  C   UNL     1     -12.829  12.435  71.523  1.00  0.00    -0.274 A  
HETATM   16  C   UNL     1     -12.706  11.141  71.046  1.00  0.00    -0.476 A  
ENDROOT
BRANCH   8  17
HETATM   17  C   UNL     1      -9.018  10.951  67.333  1.00  0.00    -0.136 C  
BRANCH  17  18
HETATM   18  C   UNL     1      -8.010   9.796  67.335  1.00  0.00    -0.102 C  
BRANCH  18  19
HETATM   19  N   UNL     1      -7.625   9.212  68.620  1.00  0.00    -0.083 NA 
HETATM   20  C   UNL     1      -9.312   9.518  70.575  1.00  0.00    -0.296 C  
HETATM   21  C   UNL     1      -8.013   9.933  69.842  1.00  0.00    -0.182 C  
HETATM   22  C   UNL     1      -9.693   8.025  70.481  1.00  0.00    -0.178 C  
HETATM   23  C   UNL     1      -9.469   7.603  69.029  1.00  0.00    -0.150 C  
HETATM   24  C   UNL     1      -7.999   7.795  68.676  1.00  0.00    -0.122 C  
BRANCH  22  25
HETATM   25  N   UNL     1      -9.060   7.103  71.435  1.00  0.00    -0.143 N  
HETATM   26  C   UNL     1      -8.218   7.419  72.529  1.00  0.00    -0.105 C  
HETATM   27  O   UNL     1      -7.868   8.510  72.942  1.00  0.00    -0.324 OA 
HETATM   28  N   UNL     1      -7.825   6.200  73.103  1.00  0.00    -0.104 NA 
HETATM   29  C   UNL     1      -8.381   5.155  72.390  1.00  0.00    -0.121 A  
HETATM   30  C   UNL     1      -8.228   3.796  72.593  1.00  0.00    -0.089 A  
HETATM   31  C   UNL     1      -8.864   2.949  71.691  1.00  0.00    -0.124 A  
HETATM   32  C   UNL     1      -9.633   3.468  70.632  1.00  0.00    -0.247 A  
HETATM   33  C   UNL     1      -9.797   4.851  70.469  1.00  0.00    -0.297 A  
HETATM   34  C   UNL     1      -9.146   5.688  71.356  1.00  0.00    -0.140 A  
ENDBRANCH  22  25
ENDBRANCH  18  19
ENDBRANCH  17  18
ENDBRANCH   8  17
TORSDOF 4
ENDMDL
MODEL       29
REMARK 921   NORMALIZED FREE ENERGY PREDICTED BY IDOCK:   -7.25 KCAL/MOL
REMARK 922        TOTAL FREE ENERGY PREDICTED BY IDOCK:   -9.74 KCAL/MOL
REMARK 923 INTER-LIGAND FREE ENERGY PREDICTED BY IDOCK:   -9.67 KCAL/MOL
REMARK 924 INTRA-LIGAND FREE ENERGY PREDICTED BY IDOCK:   -0.07 KCAL/MOL
REMARK 927      BINDING AFFINITY PREDICTED BY RF-SCORE:    0.00 PKD
ROOT
HETATM    1  F   UNL     1     -13.234  14.483  64.580  1.00  0.00    -0.068 F  
HETATM    2  C   UNL     1     -12.487  13.691  65.360  1.00  0.00    -0.499 A  
HETATM    3  C   UNL     1     -12.285  12.365  65.004  1.00  0.00    -0.465 A  
HETATM    4  C   UNL     1     -11.518  11.534  65.829  1.00  0.00    -0.076 A  
HETATM    5  C   UNL     1     -10.943  12.023  67.020  1.00  0.00    -0.323 A  
HETATM    6  C   UNL     1     -10.167  11.068  67.945  1.00  0.00    -0.207 C  
HETATM    7  C   UNL     1     -11.169  13.372  67.347  1.00  0.00    -0.311 A  
HETATM    8  C   UNL     1      -8.649  11.392  68.098  1.00  0.00    -0.153 C  
HETATM    9  C   UNL     1     -11.935  14.201  66.523  1.00  0.00    -0.466 A  
HETATM   10  C   UNL     1     -10.883  10.633  69.232  1.00  0.00    -0.282 A  
HETATM   11  C   UNL     1     -12.142  11.128  69.613  1.00  0.00    -0.406 A  
HETATM   12  F   UNL     1     -12.858   9.140  72.566  1.00  0.00    -0.443 F  
HETATM   13  C   UNL     1     -10.319   9.611  70.019  1.00  0.00    -0.298 A  
HETATM   14  C   UNL     1     -12.801  10.635  70.745  1.00  0.00    -0.439 A  
HETATM   15  C   UNL     1     -12.211   9.629  71.500  1.00  0.00    -0.399 A  
HETATM   16  C   UNL     1     -10.974   9.113  71.150  1.00  0.00    -0.390 A  
ENDROOT
BRANCH   8  17
HETATM   17  C   UNL     1      -8.172  12.749  68.631  1.00  0.00     0.012 C  
BRANCH  17  18
HETATM   18  C   UNL     1      -6.911  13.380  68.029  1.00  0.00    -0.127 C  
BRANCH  18  19
HETATM   19  N   UNL     1      -7.051  14.625  67.273  1.00  0.00    -0.195 NA 
HETATM   20  C   UNL     1      -9.183  16.033  67.757  1.00  0.00    -0.205 C  
HETATM   21  C   UNL     1      -8.406  15.031  66.869  1.00  0.00    -0.212 C  
HETATM   22  C   UNL     1      -8.327  17.073  68.511  1.00  0.00    -0.260 C  
HETATM   23  C   UNL     1      -7.123  16.323  69.081  1.00  0.00    -0.214 C  
HETATM   24  C   UNL     1      -6.325  15.715  67.934  1.00  0.00    -0.148 C  
BRANCH  22  25
HETATM   25  N   UNL     1      -7.934  18.285  67.778  1.00  0.00    -0.241 N  
HETATM   26  C   UNL     1      -8.343  18.698  66.487  1.00  0.00    -0.291 C  
HETATM   27  O   UNL     1      -9.131  18.170  65.722  1.00  0.00    -0.466 OA 
HETATM   28  N   UNL     1      -7.658  19.890  66.205  1.00  0.00    -0.297 NA 
HETATM   29  C   UNL     1      -6.834  20.208  67.268  1.00  0.00    -0.235 A  
HETATM   30  C   UNL     1      -5.965  21.276  67.395  1.00  0.00    -0.427 A  
HETATM   31  C   UNL     1      -5.207  21.337  68.561  1.00  0.00    -0.219 A  
HETATM   32  C   UNL     1      -5.338  20.353  69.560  1.00  0.00    -0.323 A  
HETATM   33  C   UNL     1      -6.252  19.298  69.419  1.00  0.00    -0.324 A  
HETATM   34  C   UNL     1      -6.986  19.232  68.250  1.00  0.00    -0.271 A  
ENDBRANCH  22  25
ENDBRANCH  18  19
ENDBRANCH  17  18
ENDBRANCH   8  17
TORSDOF 4
ENDMDL
MODEL       30
REMARK 921   NORMALIZED FREE ENERGY PREDICTED BY IDOCK:   -7.23 KCAL/MOL
REMARK 922        TOTAL FREE ENERGY PREDICTED BY IDOCK:   -9.70 KCAL/MOL
REMARK 923 INTER-LIGAND FREE ENERGY PREDICTED BY IDOCK:   -9.36 KCAL/MOL
REMARK 924 INTRA-LIGAND FREE ENERGY PREDICTED BY IDOCK:   -0.34 KCAL/MOL
REMARK 927      BINDING AFFINITY PREDICTED BY RF-SCORE:    0.00 PKD
ROOT
HETATM    1  F   UNL     1     -13.455  13.739  65.280  1.00  0.00    -0.326 F  
HETATM    2  C   UNL     1     -12.371  12.955  65.361  1.00  0.00    -0.485 A  
HETATM    3  C   UNL     1     -11.852  12.376  64.212  1.00  0.00    -0.473 A  
HETATM    4  C   UNL     1     -10.730  11.543  64.301  1.00  0.00    -0.416 A  
HETATM    5  C   UNL     1     -10.114  11.283  65.543  1.00  0.00    -0.306 A  
HETATM    6  C   UNL     1      -8.928  10.305  65.621  1.00  0.00    -0.198 C  
HETATM    7  C   UNL     1     -10.669  11.888  66.684  1.00  0.00    -0.291 A  
HETATM    8  C   UNL     1      -7.577  10.946  66.063  1.00  0.00    -0.094 C  
HETATM    9  C   UNL     1     -11.789  12.719  66.596  1.00  0.00    -0.462 A  
HETATM   10  C   UNL     1      -9.226   8.917  66.210  1.00  0.00    -0.261 A  
HETATM   11  C   UNL     1     -10.479   8.560  66.733  1.00  0.00    -0.308 A  
HETATM   12  F   UNL     1      -9.997   5.038  67.474  1.00  0.00    -0.162 F  
HETATM   13  C   UNL     1      -8.244   7.912  66.126  1.00  0.00    -0.117 A  
HETATM   14  C   UNL     1     -10.735   7.256  67.172  1.00  0.00    -0.413 A  
HETATM   15  C   UNL     1      -9.740   6.291  67.079  1.00  0.00    -0.144 A  
HETATM   16  C   UNL     1      -8.494   6.607  66.561  1.00  0.00    -0.121 A  
ENDROOT
BRANCH   8  17
HETATM   17  C   UNL     1      -7.437  11.665  67.411  1.00  0.00    -0.135 C  
BRANCH  17  18
HETATM   18  C   UNL     1      -6.341  12.723  67.577  1.00  0.00    -0.162 C  
BRANCH  18  19
HETATM   19  N   UNL     1      -6.653  14.108  67.221  1.00  0.00    -0.210 NA 
HETATM   20  C   UNL     1      -8.787  15.123  68.306  1.00  0.00    -0.173 C  
HETATM   21  C   UNL     1      -8.070  14.479  67.094  1.00  0.00    -0.168 C  
HETATM   22  C   UNL     1      -7.905  15.995  69.226  1.00  0.00    -0.222 C  
HETATM   23  C   UNL     1      -6.594  15.235  69.431  1.00  0.00    -0.152 C  
HETATM   24  C   UNL     1      -5.915  15.041  68.080  1.00  0.00    -0.138 C  
BRANCH  22  25
HETATM   25  N   UNL     1      -7.684  17.392  68.827  1.00  0.00    -0.270 N  
HETATM   26  C   UNL     1      -6.594  18.234  69.158  1.00  0.00    -0.258 C  
HETATM   27  O   UNL     1      -5.593  17.982  69.803  1.00  0.00    -0.207 OA 
HETATM   28  N   UNL     1      -6.863  19.488  68.586  1.00  0.00    -0.294 NA 
HETATM   29  C   UNL     1      -8.082  19.446  67.937  1.00  0.00    -0.298 A  
HETATM   30  C   UNL     1      -8.738  20.464  67.270  1.00  0.00    -0.429 A  
HETATM   31  C   UNL     1      -9.990  20.166  66.741  1.00  0.00    -0.604 A  
HETATM   32  C   UNL     1     -10.544  18.878  66.877  1.00  0.00    -0.495 A  
HETATM   33  C   UNL     1      -9.841  17.855  67.531  1.00  0.00    -0.309 A  
HETATM   34  C   UNL     1      -8.607  18.164  68.072  1.00  0.00    -0.265 A  
ENDBRANCH  22  25
ENDBRANCH  18  19
ENDBRANCH  17  18
ENDBRANCH   8  17
TORSDOF 4
ENDMDL
MODEL       31
REMARK 921   NORMALIZED FREE ENERGY PREDICTED BY IDOCK:   -7.21 KCAL/MOL
REMARK 922        TOTAL FREE ENERGY PREDICTED BY IDOCK:   -9.68 KCAL/MOL
REMARK 923 INTER-LIGAND FREE ENERGY PREDICTED BY IDOCK:   -8.14 KCAL/MOL
REMARK 924 INTRA-LIGAND FREE ENERGY PREDICTED BY IDOCK:   -1.54 KCAL/MOL
REMARK 927      BINDING AFFINITY PREDICTED BY RF-SCORE:    0.00 PKD
ROOT
HETATM    1  F   UNL     1     -12.948  13.370  65.609  1.00  0.00    -0.494 F  
HETATM    2  C   UNL     1     -11.938  12.525  65.857  1.00  0.00    -0.409 A  
HETATM    3  C   UNL     1     -11.075  12.162  64.833  1.00  0.00    -0.367 A  
HETATM    4  C   UNL     1     -10.031  11.266  65.090  1.00  0.00    -0.312 A  
HETATM    5  C   UNL     1      -9.838  10.725  66.378  1.00  0.00    -0.254 A  
HETATM    6  C   UNL     1      -8.728   9.685  66.614  1.00  0.00    -0.146 C  
HETATM    7  C   UNL     1     -10.732  11.117  67.389  1.00  0.00    -0.294 A  
HETATM    8  C   UNL     1      -7.592  10.145  67.580  1.00  0.00    -0.090 C  
HETATM    9  C   UNL     1     -11.774  12.011  67.133  1.00  0.00    -0.344 A  
HETATM   10  C   UNL     1      -9.182   8.226  66.774  1.00  0.00    -0.212 A  
HETATM   11  C   UNL     1     -10.533   7.843  66.793  1.00  0.00    -0.317 A  
HETATM   12  F   UNL     1     -10.274   4.222  66.889  1.00  0.00    -0.238 F  
HETATM   13  C   UNL     1      -8.213   7.205  66.791  1.00  0.00    -0.114 A  
HETATM   14  C   UNL     1     -10.901   6.493  66.846  1.00  0.00    -0.427 A  
HETATM   15  C   UNL     1      -9.917   5.512  66.867  1.00  0.00    -0.179 A  
HETATM   16  C   UNL     1      -8.575   5.855  66.842  1.00  0.00    -0.111 A  
ENDROOT
BRANCH   8  17
HETATM   17  C   UNL     1      -7.895  10.566  69.024  1.00  0.00    -0.129 C  
BRANCH  17  18
HETATM   18  C   UNL     1      -7.315   9.737  70.175  1.00  0.00    -0.155 C  
BRANCH  18  19
HETATM   19  N   UNL     1      -8.242   9.143  71.140  1.00  0.00    -0.303 NA 
HETATM   20  C   UNL     1     -10.457   8.189  70.168  1.00  0.00    -0.225 C  
HETATM   21  C   UNL     1      -9.683   9.314  70.897  1.00  0.00    -0.276 C  
HETATM   22  C   UNL     1      -9.944   6.753  70.405  1.00  0.00    -0.179 C  
HETATM   23  C   UNL     1      -8.419   6.809  70.316  1.00  0.00    -0.135 C  
HETATM   24  C   UNL     1      -7.891   7.743  71.398  1.00  0.00    -0.090 C  
BRANCH  22  25
HETATM   25  N   UNL     1     -10.407   6.058  71.615  1.00  0.00    -0.208 N  
HETATM   26  C   UNL     1     -10.981   6.622  72.781  1.00  0.00    -0.258 C  
HETATM   27  O   UNL     1     -11.252   7.785  73.022  1.00  0.00    -0.405 OA 
HETATM   28  N   UNL     1     -11.207   5.563  73.674  1.00  0.00    -0.095 NA 
HETATM   29  C   UNL     1     -10.776   4.380  73.103  1.00  0.00    -0.220 A  
HETATM   30  C   UNL     1     -10.783   3.109  73.646  1.00  0.00    -0.297 A  
HETATM   31  C   UNL     1     -10.241   2.089  72.871  1.00  0.00    -0.208 A  
HETATM   32  C   UNL     1      -9.721   2.355  71.589  1.00  0.00    -0.222 A  
HETATM   33  C   UNL     1      -9.756   3.649  71.050  1.00  0.00    -0.243 A  
HETATM   34  C   UNL     1     -10.278   4.661  71.834  1.00  0.00    -0.184 A  
ENDBRANCH  22  25
ENDBRANCH  18  19
ENDBRANCH  17  18
ENDBRANCH   8  17
TORSDOF 4
ENDMDL
MODEL       32
REMARK 921   NORMALIZED FREE ENERGY PREDICTED BY IDOCK:   -7.20 KCAL/MOL
REMARK 922        TOTAL FREE ENERGY PREDICTED BY IDOCK:   -9.68 KCAL/MOL
REMARK 923 INTER-LIGAND FREE ENERGY PREDICTED BY IDOCK:   -9.50 KCAL/MOL
REMARK 924 INTRA-LIGAND FREE ENERGY PREDICTED BY IDOCK:   -0.18 KCAL/MOL
REMARK 927      BINDING AFFINITY PREDICTED BY RF-SCORE:    0.00 PKD
ROOT
HETATM    1  F   UNL     1     -10.814  11.741  63.080  1.00  0.00    -0.354 F  
HETATM    2  C   UNL     1     -10.984  12.604  64.090  1.00  0.00    -0.387 A  
HETATM    3  C   UNL     1     -11.942  13.603  63.990  1.00  0.00    -0.478 A  
HETATM    4  C   UNL     1     -12.106  14.514  65.040  1.00  0.00    -0.390 A  
HETATM    5  C   UNL     1     -11.314  14.432  66.204  1.00  0.00    -0.350 A  
HETATM    6  C   UNL     1     -11.466  15.492  67.310  1.00  0.00    -0.102 C  
HETATM    7  C   UNL     1     -10.355  13.406  66.269  1.00  0.00    -0.291 A  
HETATM    8  C   UNL     1     -11.992  14.947  68.674  1.00  0.00    -0.276 C  
HETATM    9  C   UNL     1     -10.191  12.497  65.221  1.00  0.00    -0.302 A  
HETATM   10  C   UNL     1     -10.350  16.544  67.405  1.00  0.00    -0.290 A  
HETATM   11  C   UNL     1      -9.201  16.517  66.597  1.00  0.00    -0.275 A  
HETATM   12  F   UNL     1      -7.564  19.620  67.532  1.00  0.00    -0.266 F  
HETATM   13  C   UNL     1     -10.523  17.653  68.255  1.00  0.00    -0.376 A  
HETATM   14  C   UNL     1      -8.255  17.547  66.650  1.00  0.00    -0.288 A  
HETATM   15  C   UNL     1      -8.457  18.623  67.505  1.00  0.00    -0.265 A  
HETATM   16  C   UNL     1      -9.582  18.686  68.311  1.00  0.00    -0.382 A  
ENDROOT
BRANCH   8  17
HETATM   17  C   UNL     1     -11.241  13.849  69.438  1.00  0.00    -0.273 C  
BRANCH  17  18
HETATM   18  C   UNL     1     -12.035  12.667  70.006  1.00  0.00    -0.306 C  
BRANCH  18  19
HETATM   19  N   UNL     1     -11.920  11.368  69.340  1.00  0.00    -0.336 NA 
HETATM   20  C   UNL     1      -9.566  10.264  69.370  1.00  0.00    -0.237 C  
HETATM   21  C   UNL     1     -10.663  11.071  68.635  1.00  0.00    -0.198 C  
HETATM   22  C   UNL     1     -10.065   9.226  70.399  1.00  0.00    -0.236 C  
HETATM   23  C   UNL     1     -11.181   9.898  71.197  1.00  0.00    -0.404 C  
HETATM   24  C   UNL     1     -12.310  10.285  70.249  1.00  0.00    -0.192 C  
BRANCH  22  25
HETATM   25  N   UNL     1     -10.460   7.905  69.890  1.00  0.00    -0.225 N  
HETATM   26  C   UNL     1     -11.166   6.882  70.569  1.00  0.00    -0.307 C  
HETATM   27  O   UNL     1     -11.632   6.882  71.694  1.00  0.00    -0.259 OA 
HETATM   28  N   UNL     1     -11.256   5.795  69.685  1.00  0.00    -0.259 NA 
HETATM   29  C   UNL     1     -10.615   6.111  68.502  1.00  0.00    -0.271 A  
HETATM   30  C   UNL     1     -10.439   5.323  67.380  1.00  0.00    -0.213 A  
HETATM   31  C   UNL     1      -9.706   5.871  66.332  1.00  0.00    -0.168 A  
HETATM   32  C   UNL     1      -9.183   7.176  66.422  1.00  0.00    -0.196 A  
HETATM   33  C   UNL     1      -9.405   7.966  67.560  1.00  0.00    -0.166 A  
HETATM   34  C   UNL     1     -10.116   7.407  68.605  1.00  0.00    -0.179 A  
ENDBRANCH  22  25
ENDBRANCH  18  19
ENDBRANCH  17  18
ENDBRANCH   8  17
TORSDOF 4
ENDMDL
MODEL       33
REMARK 921   NORMALIZED FREE ENERGY PREDICTED BY IDOCK:   -7.17 KCAL/MOL
REMARK 922        TOTAL FREE ENERGY PREDICTED BY IDOCK:   -9.64 KCAL/MOL
REMARK 923 INTER-LIGAND FREE ENERGY PREDICTED BY IDOCK:   -9.22 KCAL/MOL
REMARK 924 INTRA-LIGAND FREE ENERGY PREDICTED BY IDOCK:   -0.42 KCAL/MOL
REMARK 927      BINDING AFFINITY PREDICTED BY RF-SCORE:    0.00 PKD
ROOT
HETATM    1  F   UNL     1      -8.154   5.303  65.931  1.00  0.00    -0.103 F  
HETATM    2  C   UNL     1      -8.724   6.454  66.310  1.00  0.00    -0.143 A  
HETATM    3  C   UNL     1     -10.049   6.465  66.720  1.00  0.00    -0.239 A  
HETATM    4  C   UNL     1     -10.648   7.673  67.099  1.00  0.00    -0.410 A  
HETATM    5  C   UNL     1      -9.925   8.883  67.073  1.00  0.00    -0.300 A  
HETATM    6  C   UNL     1     -10.631  10.205  67.423  1.00  0.00    -0.329 C  
HETATM    7  C   UNL     1      -8.585   8.831  66.652  1.00  0.00    -0.120 A  
HETATM    8  C   UNL     1     -10.094  10.916  68.704  1.00  0.00    -0.200 C  
HETATM    9  C   UNL     1      -7.987   7.626  66.274  1.00  0.00    -0.105 A  
HETATM   10  C   UNL     1     -10.968  11.132  66.245  1.00  0.00    -0.227 A  
HETATM   11  C   UNL     1     -10.591  10.854  64.921  1.00  0.00    -0.304 A  
HETATM   12  F   UNL     1     -12.216  13.549  63.109  1.00  0.00    -0.582 F  
HETATM   13  C   UNL     1     -11.786  12.255  66.469  1.00  0.00    -0.420 A  
HETATM   14  C   UNL     1     -11.000  11.677  63.865  1.00  0.00    -0.478 A  
HETATM   15  C   UNL     1     -11.804  12.780  64.125  1.00  0.00    -0.413 A  
HETATM   16  C   UNL     1     -12.200  13.080  65.418  1.00  0.00    -0.520 A  
ENDROOT
BRANCH   8  17
HETATM   17  C   UNL     1      -8.625  11.340  68.826  1.00  0.00    -0.109 C  
BRANCH  17  18
HETATM   18  C   UNL     1      -8.113  12.498  67.962  1.00  0.00    -0.164 C  
BRANCH  18  19
HETATM   19  N   UNL     1      -8.020  13.828  68.567  1.00  0.00    -0.141 NA 
HETATM   20  C   UNL     1      -6.104  15.355  67.697  1.00  0.00    -0.151 C  
HETATM   21  C   UNL     1      -6.677  14.394  68.767  1.00  0.00    -0.093 C  
HETATM   22  C   UNL     1      -7.136  16.224  66.946  1.00  0.00    -0.211 C  
HETATM   23  C   UNL     1      -8.312  15.311  66.600  1.00  0.00    -0.216 C  
HETATM   24  C   UNL     1      -8.918  14.768  67.888  1.00  0.00    -0.172 C  
BRANCH  22  25
HETATM   25  N   UNL     1      -7.569  17.471  67.593  1.00  0.00    -0.192 N  
HETATM   26  C   UNL     1      -7.024  18.095  68.742  1.00  0.00    -0.270 C  
HETATM   27  O   UNL     1      -6.066  17.765  69.417  1.00  0.00    -0.220 OA 
HETATM   28  N   UNL     1      -7.810  19.230  68.998  1.00  0.00    -0.321 NA 
HETATM   29  C   UNL     1      -8.821  19.310  68.060  1.00  0.00    -0.317 A  
HETATM   30  C   UNL     1      -9.833  20.247  67.961  1.00  0.00    -0.447 A  
HETATM   31  C   UNL     1     -10.762  20.067  66.940  1.00  0.00    -0.361 A  
HETATM   32  C   UNL     1     -10.656  18.981  66.051  1.00  0.00    -0.499 A  
HETATM   33  C   UNL     1      -9.601  18.062  66.155  1.00  0.00    -0.184 A  
HETATM   34  C   UNL     1      -8.694  18.235  67.183  1.00  0.00    -0.256 A  
ENDBRANCH  22  25
ENDBRANCH  18  19
ENDBRANCH  17  18
ENDBRANCH   8  17
TORSDOF 4
ENDMDL
MODEL       34
REMARK 921   NORMALIZED FREE ENERGY PREDICTED BY IDOCK:   -7.15 KCAL/MOL
REMARK 922        TOTAL FREE ENERGY PREDICTED BY IDOCK:   -9.61 KCAL/MOL
REMARK 923 INTER-LIGAND FREE ENERGY PREDICTED BY IDOCK:   -9.69 KCAL/MOL
REMARK 924 INTRA-LIGAND FREE ENERGY PREDICTED BY IDOCK:    0.08 KCAL/MOL
REMARK 927      BINDING AFFINITY PREDICTED BY RF-SCORE:    0.00 PKD
ROOT
HETATM    1  F   UNL     1     -13.175  15.998  72.086  1.00  0.00    -0.500 F  
HETATM    2  C   UNL     1     -12.437  15.387  71.150  1.00  0.00    -0.402 A  
HETATM    3  C   UNL     1     -11.361  16.050  70.578  1.00  0.00    -0.420 A  
HETATM    4  C   UNL     1     -10.603  15.416  69.587  1.00  0.00    -0.285 A  
HETATM    5  C   UNL     1     -10.912  14.109  69.159  1.00  0.00    -0.280 A  
HETATM    6  C   UNL     1     -10.107  13.466  68.016  1.00  0.00    -0.241 C  
HETATM    7  C   UNL     1     -12.009  13.469  69.762  1.00  0.00    -0.405 A  
HETATM    8  C   UNL     1      -9.279  12.207  68.423  1.00  0.00    -0.154 C  
HETATM    9  C   UNL     1     -12.767  14.101  70.751  1.00  0.00    -0.414 A  
HETATM   10  C   UNL     1     -10.806  13.383  66.650  1.00  0.00    -0.285 A  
HETATM   11  C   UNL     1     -12.136  13.787  66.446  1.00  0.00    -0.483 A  
HETATM   12  F   UNL     1     -12.479  13.414  62.850  1.00  0.00    -0.531 F  
HETATM   13  C   UNL     1     -10.062  12.994  65.521  1.00  0.00    -0.270 A  
HETATM   14  C   UNL     1     -12.704  13.784  65.167  1.00  0.00    -0.439 A  
HETATM   15  C   UNL     1     -11.940  13.389  64.076  1.00  0.00    -0.464 A  
HETATM   16  C   UNL     1     -10.624  12.991  64.240  1.00  0.00    -0.434 A  
ENDROOT
BRANCH   8  17
HETATM   17  C   UNL     1      -9.954  10.968  69.024  1.00  0.00    -0.184 C  
BRANCH  17  18
HETATM   18  C   UNL     1      -9.617   9.588  68.449  1.00  0.00    -0.142 C  
BRANCH  18  19
HETATM   19  N   UNL     1      -9.308   8.503  69.381  1.00  0.00    -0.153 NA 
HETATM   20  C   UNL     1     -11.341   7.359  70.530  1.00  0.00    -0.295 C  
HETATM   21  C   UNL     1     -10.162   8.361  70.571  1.00  0.00    -0.196 C  
HETATM   22  C   UNL     1     -11.134   6.106  69.652  1.00  0.00    -0.419 C  
HETATM   23  C   UNL     1     -10.492   6.582  68.349  1.00  0.00    -0.258 C  
HETATM   24  C   UNL     1      -9.151   7.234  68.663  1.00  0.00    -0.133 C  
BRANCH  22  25
HETATM   25  N   UNL     1     -10.411   4.973  70.249  1.00  0.00    -0.232 N  
HETATM   26  C   UNL     1      -9.725   3.927  69.587  1.00  0.00    -0.138 C  
HETATM   27  O   UNL     1      -9.547   3.755  68.394  1.00  0.00    -0.162 OA 
HETATM   28  N   UNL     1      -9.246   3.061  70.582  1.00  0.00    -0.124 NA 
HETATM   29  C   UNL     1      -9.630   3.531  71.824  1.00  0.00    -0.153 A  
HETATM   30  C   UNL     1      -9.398   2.972  73.066  1.00  0.00    -0.122 A  
HETATM   31  C   UNL     1      -9.943   3.629  74.166  1.00  0.00    -0.182 A  
HETATM   32  C   UNL     1     -10.684   4.815  74.003  1.00  0.00    -0.358 A  
HETATM   33  C   UNL     1     -10.877   5.378  72.732  1.00  0.00    -0.310 A  
HETATM   34  C   UNL     1     -10.351   4.709  71.643  1.00  0.00    -0.119 A  
ENDBRANCH  22  25
ENDBRANCH  18  19
ENDBRANCH  17  18
ENDBRANCH   8  17
TORSDOF 4
ENDMDL
MODEL       35
REMARK 921   NORMALIZED FREE ENERGY PREDICTED BY IDOCK:   -7.12 KCAL/MOL
REMARK 922        TOTAL FREE ENERGY PREDICTED BY IDOCK:   -9.57 KCAL/MOL
REMARK 923 INTER-LIGAND FREE ENERGY PREDICTED BY IDOCK:   -9.43 KCAL/MOL
REMARK 924 INTRA-LIGAND FREE ENERGY PREDICTED BY IDOCK:   -0.13 KCAL/MOL
REMARK 927      BINDING AFFINITY PREDICTED BY RF-SCORE:    0.00 PKD
ROOT
HETATM    1  F   UNL     1     -10.965   7.546  73.566  1.00  0.00    -0.424 F  
HETATM    2  C   UNL     1     -10.848   7.469  72.234  1.00  0.00    -0.258 A  
HETATM    3  C   UNL     1     -11.865   6.896  71.484  1.00  0.00    -0.366 A  
HETATM    4  C   UNL     1     -11.732   6.801  70.093  1.00  0.00    -0.370 A  
HETATM    5  C   UNL     1     -10.579   7.280  69.438  1.00  0.00    -0.238 A  
HETATM    6  C   UNL     1     -10.428   7.094  67.918  1.00  0.00    -0.268 C  
HETATM    7  C   UNL     1      -9.570   7.854  70.232  1.00  0.00    -0.171 A  
HETATM    8  C   UNL     1     -10.393   8.419  67.095  1.00  0.00    -0.381 C  
HETATM    9  C   UNL     1      -9.702   7.949  71.620  1.00  0.00    -0.207 A  
HETATM   10  C   UNL     1      -9.449   6.004  67.457  1.00  0.00    -0.113 A  
HETATM   11  C   UNL     1      -8.659   5.259  68.348  1.00  0.00    -0.095 A  
HETATM   12  F   UNL     1      -7.082   2.867  66.116  1.00  0.00    -0.055 F  
HETATM   13  C   UNL     1      -9.412   5.646  66.096  1.00  0.00    -0.157 A  
HETATM   14  C   UNL     1      -7.849   4.211  67.894  1.00  0.00    -0.079 A  
HETATM   15  C   UNL     1      -7.835   3.889  66.543  1.00  0.00    -0.089 A  
HETATM   16  C   UNL     1      -8.608   4.598  65.637  1.00  0.00    -0.124 A  
ENDROOT
BRANCH   8  17
HETATM   17  C   UNL     1      -9.328   9.492  67.354  1.00  0.00    -0.153 C  
BRANCH  17  18
HETATM   18  C   UNL     1      -9.760  10.839  67.945  1.00  0.00    -0.167 C  
BRANCH  18  19
HETATM   19  N   UNL     1     -10.020  11.949  67.027  1.00  0.00    -0.201 NA 
HETATM   20  C   UNL     1     -12.055  13.463  67.599  1.00  0.00    -0.311 C  
HETATM   21  C   UNL     1     -11.423  12.314  66.777  1.00  0.00    -0.361 C  
HETATM   22  C   UNL     1     -11.095  14.591  68.033  1.00  0.00    -0.276 C  
HETATM   23  C   UNL     1      -9.814  13.917  68.524  1.00  0.00    -0.214 C  
HETATM   24  C   UNL     1      -9.203  13.114  67.382  1.00  0.00    -0.213 C  
BRANCH  22  25
HETATM   25  N   UNL     1     -10.825  15.661  67.061  1.00  0.00    -0.315 N  
HETATM   26  C   UNL     1     -10.762  15.565  65.649  1.00  0.00    -0.366 C  
HETATM   27  O   UNL     1     -10.954  14.598  64.933  1.00  0.00    -0.374 OA 
HETATM   28  N   UNL     1     -10.424  16.840  65.170  1.00  0.00    -0.678 NA 
HETATM   29  C   UNL     1     -10.261  17.703  66.237  1.00  0.00    -0.362 A  
HETATM   30  C   UNL     1      -9.899  19.038  66.218  1.00  0.00    -0.417 A  
HETATM   31  C   UNL     1      -9.757  19.670  67.449  1.00  0.00    -0.471 A  
HETATM   32  C   UNL     1      -9.985  18.971  68.651  1.00  0.00    -0.482 A  
HETATM   33  C   UNL     1     -10.383  17.626  68.639  1.00  0.00    -0.359 A  
HETATM   34  C   UNL     1     -10.502  16.999  67.413  1.00  0.00    -0.322 A  
ENDBRANCH  22  25
ENDBRANCH  18  19
ENDBRANCH  17  18
ENDBRANCH   8  17
TORSDOF 4
ENDMDL
MODEL       36
REMARK 921   NORMALIZED FREE ENERGY PREDICTED BY IDOCK:   -7.11 KCAL/MOL
REMARK 922        TOTAL FREE ENERGY PREDICTED BY IDOCK:   -9.56 KCAL/MOL
REMARK 923 INTER-LIGAND FREE ENERGY PREDICTED BY IDOCK:   -9.93 KCAL/MOL
REMARK 924 INTRA-LIGAND FREE ENERGY PREDICTED BY IDOCK:    0.37 KCAL/MOL
REMARK 927      BINDING AFFINITY PREDICTED BY RF-SCORE:    0.00 PKD
ROOT
HETATM    1  F   UNL     1     -13.098  16.313  72.136  1.00  0.00    -0.466 F  
HETATM    2  C   UNL     1     -12.494  15.500  71.259  1.00  0.00    -0.425 A  
HETATM    3  C   UNL     1     -11.226  15.810  70.790  1.00  0.00    -0.404 A  
HETATM    4  C   UNL     1     -10.605  14.968  69.860  1.00  0.00    -0.207 A  
HETATM    5  C   UNL     1     -11.247  13.804  69.391  1.00  0.00    -0.259 A  
HETATM    6  C   UNL     1     -10.571  12.937  68.313  1.00  0.00    -0.259 C  
HETATM    7  C   UNL     1     -12.531  13.522  69.889  1.00  0.00    -0.194 A  
HETATM    8  C   UNL     1     -10.187  11.497  68.774  1.00  0.00    -0.204 C  
HETATM    9  C   UNL     1     -13.151  14.363  70.817  1.00  0.00    -0.344 A  
HETATM   10  C   UNL     1     -11.144  13.046  66.891  1.00  0.00    -0.306 A  
HETATM   11  C   UNL     1     -12.273  13.820  66.579  1.00  0.00    -0.475 A  
HETATM   12  F   UNL     1     -12.400  13.516  62.962  1.00  0.00    -0.594 F  
HETATM   13  C   UNL     1     -10.452  12.440  65.825  1.00  0.00    -0.288 A  
HETATM   14  C   UNL     1     -12.705  13.966  65.255  1.00  0.00    -0.485 A  
HETATM   15  C   UNL     1     -12.000  13.350  64.229  1.00  0.00    -0.430 A  
HETATM   16  C   UNL     1     -10.878  12.585  64.501  1.00  0.00    -0.360 A  
ENDROOT
BRANCH   8  17
HETATM   17  C   UNL     1     -11.246  10.519  69.299  1.00  0.00    -0.320 C  
BRANCH  17  18
HETATM   18  C   UNL     1     -11.482  10.423  70.810  1.00  0.00    -0.332 C  
BRANCH  18  19
HETATM   19  N   UNL     1     -11.066   9.202  71.503  1.00  0.00    -0.341 NA 
HETATM   20  C   UNL     1     -12.714   7.195  71.388  1.00  0.00    -0.433 C  
HETATM   21  C   UNL     1     -12.110   8.397  72.154  1.00  0.00    -0.373 C  
HETATM   22  C   UNL     1     -11.764   6.469  70.412  1.00  0.00    -0.375 C  
HETATM   23  C   UNL     1     -11.002   7.553  69.650  1.00  0.00    -0.164 C  
HETATM   24  C   UNL     1     -10.201   8.389  70.641  1.00  0.00    -0.194 C  
BRANCH  22  25
HETATM   25  N   UNL     1     -10.869   5.446  70.972  1.00  0.00    -0.176 N  
HETATM   26  C   UNL     1     -10.659   5.120  72.334  1.00  0.00    -0.221 C  
HETATM   27  O   UNL     1     -11.193   5.578  73.329  1.00  0.00    -0.286 OA 
HETATM   28  N   UNL     1      -9.676   4.118  72.365  1.00  0.00    -0.146 NA 
HETATM   29  C   UNL     1      -9.268   3.836  71.075  1.00  0.00    -0.130 A  
HETATM   30  C   UNL     1      -8.302   2.941  70.653  1.00  0.00    -0.082 A  
HETATM   31  C   UNL     1      -8.048   2.885  69.286  1.00  0.00    -0.066 A  
HETATM   32  C   UNL     1      -8.759   3.702  68.386  1.00  0.00    -0.135 A  
HETATM   33  C   UNL     1      -9.757   4.578  68.838  1.00  0.00    -0.224 A  
HETATM   34  C   UNL     1      -9.989   4.643  70.199  1.00  0.00    -0.233 A  
ENDBRANCH  22  25
ENDBRANCH  18  19
ENDBRANCH  17  18
ENDBRANCH   8  17
TORSDOF 4
ENDMDL
MODEL       37
REMARK 921   NORMALIZED FREE ENERGY PREDICTED BY IDOCK:   -7.11 KCAL/MOL
REMARK 922        TOTAL FREE ENERGY PREDICTED BY IDOCK:   -9.56 KCAL/MOL
REMARK 923 INTER-LIGAND FREE ENERGY PREDICTED BY IDOCK:   -8.84 KCAL/MOL
REMARK 924 INTRA-LIGAND FREE ENERGY PREDICTED BY IDOCK:   -0.71 KCAL/MOL
REMARK 927      BINDING AFFINITY PREDICTED BY RF-SCORE:    0.00 PKD
ROOT
HETATM    1  F   UNL     1     -12.290  13.710  62.940  1.00  0.00    -0.516 F  
HETATM    2  C   UNL     1     -11.619  13.018  63.869  1.00  0.00    -0.449 A  
HETATM    3  C   UNL     1     -11.594  11.632  63.812  1.00  0.00    -0.430 A  
HETATM    4  C   UNL     1     -10.906  10.910  64.794  1.00  0.00    -0.153 A  
HETATM    5  C   UNL     1     -10.233  11.568  65.844  1.00  0.00    -0.286 A  
HETATM    6  C   UNL     1      -9.548  10.746  66.951  1.00  0.00    -0.198 C  
HETATM    7  C   UNL     1     -10.281  12.973  65.868  1.00  0.00    -0.298 A  
HETATM    8  C   UNL     1      -7.997  10.900  67.018  1.00  0.00    -0.132 C  
HETATM    9  C   UNL     1     -10.968  13.694  64.888  1.00  0.00    -0.372 A  
HETATM   10  C   UNL     1     -10.267  10.696  68.308  1.00  0.00    -0.187 A  
HETATM   11  C   UNL     1     -11.441  11.418  68.579  1.00  0.00    -0.361 A  
HETATM   12  F   UNL     1     -12.290  10.227  71.903  1.00  0.00    -0.454 F  
HETATM   13  C   UNL     1      -9.805   9.806  69.296  1.00  0.00    -0.208 A  
HETATM   14  C   UNL     1     -12.115  11.271  69.797  1.00  0.00    -0.394 A  
HETATM   15  C   UNL     1     -11.627  10.386  70.751  1.00  0.00    -0.358 A  
HETATM   16  C   UNL     1     -10.476   9.653  70.513  1.00  0.00    -0.367 A  
ENDROOT
BRANCH   8  17
HETATM   17  C   UNL     1      -7.339  12.268  67.235  1.00  0.00    -0.140 C  
BRANCH  17  18
HETATM   18  C   UNL     1      -7.711  13.080  68.481  1.00  0.00    -0.111 C  
BRANCH  18  19
HETATM   19  N   UNL     1      -7.389  14.508  68.502  1.00  0.00    -0.112 NA 
HETATM   20  C   UNL     1      -8.006  15.857  66.366  1.00  0.00    -0.125 C  
HETATM   21  C   UNL     1      -6.956  15.129  67.240  1.00  0.00    -0.088 C  
HETATM   22  C   UNL     1      -9.167  16.532  67.127  1.00  0.00    -0.214 C  
HETATM   23  C   UNL     1      -9.623  15.546  68.202  1.00  0.00    -0.199 C  
HETATM   24  C   UNL     1      -8.462  15.270  69.150  1.00  0.00    -0.234 C  
BRANCH  22  25
HETATM   25  N   UNL     1      -8.930  17.878  67.669  1.00  0.00    -0.248 N  
HETATM   26  C   UNL     1      -9.618  18.531  68.721  1.00  0.00    -0.333 C  
HETATM   27  O   UNL     1     -10.519  18.115  69.428  1.00  0.00    -0.065 OA 
HETATM   28  N   UNL     1      -9.063  19.815  68.833  1.00  0.00    -0.220 NA 
HETATM   29  C   UNL     1      -8.077  19.975  67.878  1.00  0.00    -0.264 A  
HETATM   30  C   UNL     1      -7.302  21.090  67.618  1.00  0.00    -0.218 A  
HETATM   31  C   UNL     1      -6.407  21.002  66.556  1.00  0.00    -0.338 A  
HETATM   32  C   UNL     1      -6.300  19.820  65.798  1.00  0.00    -0.233 A  
HETATM   33  C   UNL     1      -7.076  18.692  66.105  1.00  0.00    -0.294 A  
HETATM   34  C   UNL     1      -7.978  18.794  67.147  1.00  0.00    -0.245 A  
ENDBRANCH  22  25
ENDBRANCH  18  19
ENDBRANCH  17  18
ENDBRANCH   8  17
TORSDOF 4
ENDMDL
MODEL       38
REMARK 921   NORMALIZED FREE ENERGY PREDICTED BY IDOCK:   -7.10 KCAL/MOL
REMARK 922        TOTAL FREE ENERGY PREDICTED BY IDOCK:   -9.55 KCAL/MOL
REMARK 923 INTER-LIGAND FREE ENERGY PREDICTED BY IDOCK:   -9.39 KCAL/MOL
REMARK 924 INTRA-LIGAND FREE ENERGY PREDICTED BY IDOCK:   -0.16 KCAL/MOL
REMARK 927      BINDING AFFINITY PREDICTED BY RF-SCORE:    0.00 PKD
ROOT
HETATM    1  F   UNL     1     -10.743  10.848  62.562  1.00  0.00     0.046 F  
HETATM    2  C   UNL     1     -11.005  11.529  63.685  1.00  0.00    -0.404 A  
HETATM    3  C   UNL     1     -12.194  12.235  63.802  1.00  0.00    -0.642 A  
HETATM    4  C   UNL     1     -12.458  12.960  64.970  1.00  0.00    -0.553 A  
HETATM    5  C   UNL     1     -11.534  12.984  66.036  1.00  0.00    -0.374 A  
HETATM    6  C   UNL     1     -11.818  13.850  67.276  1.00  0.00    -0.442 C  
HETATM    7  C   UNL     1     -10.342  12.257  65.880  1.00  0.00    -0.280 A  
HETATM    8  C   UNL     1     -12.012  13.053  68.603  1.00  0.00    -0.298 C  
HETATM    9  C   UNL     1     -10.077  11.533  64.714  1.00  0.00    -0.316 A  
HETATM   10  C   UNL     1     -11.011  15.152  67.400  1.00  0.00    -0.314 A  
HETATM   11  C   UNL     1     -10.004  15.517  66.491  1.00  0.00    -0.283 A  
HETATM   12  F   UNL     1      -9.126  18.842  67.656  1.00  0.00    -0.284 F  
HETATM   13  C   UNL     1     -11.360  16.083  68.396  1.00  0.00    -0.355 A  
HETATM   14  C   UNL     1      -9.358  16.755  66.586  1.00  0.00    -0.274 A  
HETATM   15  C   UNL     1      -9.726  17.647  67.586  1.00  0.00    -0.277 A  
HETATM   16  C   UNL     1     -10.720  17.323  68.494  1.00  0.00    -0.305 A  
ENDROOT
BRANCH   8  17
HETATM   17  C   UNL     1     -10.913  12.131  69.148  1.00  0.00    -0.215 C  
BRANCH  17  18
HETATM   18  C   UNL     1     -11.144  10.615  69.136  1.00  0.00    -0.255 C  
BRANCH  18  19
HETATM   19  N   UNL     1     -10.712   9.837  70.298  1.00  0.00    -0.279 NA 
HETATM   20  C   UNL     1     -12.479   8.234  71.331  1.00  0.00    -0.315 C  
HETATM   21  C   UNL     1     -11.704   9.574  71.351  1.00  0.00    -0.393 C  
HETATM   22  C   UNL     1     -11.716   7.021  70.756  1.00  0.00    -0.349 C  
HETATM   23  C   UNL     1     -11.000   7.507  69.496  1.00  0.00    -0.127 C  
HETATM   24  C   UNL     1     -10.023   8.614  69.873  1.00  0.00    -0.186 C  
BRANCH  22  25
HETATM   25  N   UNL     1     -10.816   6.294  71.664  1.00  0.00    -0.242 N  
HETATM   26  C   UNL     1     -10.480   6.614  73.002  1.00  0.00    -0.243 C  
HETATM   27  O   UNL     1     -10.884   7.525  73.702  1.00  0.00    -0.329 OA 
HETATM   28  N   UNL     1      -9.548   5.654  73.426  1.00  0.00    -0.142 NA 
HETATM   29  C   UNL     1      -9.292   4.774  72.392  1.00  0.00    -0.130 A  
HETATM   30  C   UNL     1      -8.419   3.702  72.369  1.00  0.00    -0.089 A  
HETATM   31  C   UNL     1      -8.313   3.000  71.172  1.00  0.00    -0.086 A  
HETATM   32  C   UNL     1      -9.075   3.371  70.047  1.00  0.00    -0.199 A  
HETATM   33  C   UNL     1      -9.977   4.444  70.108  1.00  0.00    -0.249 A  
HETATM   34  C   UNL     1     -10.062   5.149  71.294  1.00  0.00    -0.210 A  
ENDBRANCH  22  25
ENDBRANCH  18  19
ENDBRANCH  17  18
ENDBRANCH   8  17
TORSDOF 4
ENDMDL
MODEL       39
REMARK 921   NORMALIZED FREE ENERGY PREDICTED BY IDOCK:   -7.10 KCAL/MOL
REMARK 922        TOTAL FREE ENERGY PREDICTED BY IDOCK:   -9.54 KCAL/MOL
REMARK 923 INTER-LIGAND FREE ENERGY PREDICTED BY IDOCK:   -9.03 KCAL/MOL
REMARK 924 INTRA-LIGAND FREE ENERGY PREDICTED BY IDOCK:   -0.51 KCAL/MOL
REMARK 927      BINDING AFFINITY PREDICTED BY RF-SCORE:    0.00 PKD
ROOT
HETATM    1  F   UNL     1     -13.909  11.482  72.511  1.00  0.00    -0.290 F  
HETATM    2  C   UNL     1     -13.129  10.645  71.815  1.00  0.00    -0.466 A  
HETATM    3  C   UNL     1     -13.201   9.279  72.049  1.00  0.00    -0.519 A  
HETATM    4  C   UNL     1     -12.373   8.408  71.333  1.00  0.00    -0.328 A  
HETATM    5  C   UNL     1     -11.463   8.895  70.371  1.00  0.00    -0.182 A  
HETATM    6  C   UNL     1     -10.512   7.920  69.653  1.00  0.00    -0.226 C  
HETATM    7  C   UNL     1     -11.419  10.284  70.162  1.00  0.00    -0.383 A  
HETATM    8  C   UNL     1     -10.738   7.798  68.114  1.00  0.00    -0.112 C  
HETATM    9  C   UNL     1     -12.246  11.154  70.877  1.00  0.00    -0.468 A  
HETATM   10  C   UNL     1      -9.045   7.940  70.106  1.00  0.00    -0.152 A  
HETATM   11  C   UNL     1      -8.551   8.843  71.062  1.00  0.00    -0.255 A  
HETATM   12  F   UNL     1      -5.137   7.681  71.484  1.00  0.00    -0.026 F  
HETATM   13  C   UNL     1      -8.169   6.943  69.637  1.00  0.00    -0.131 A  
HETATM   14  C   UNL     1      -7.229   8.765  71.516  1.00  0.00    -0.107 A  
HETATM   15  C   UNL     1      -6.392   7.770  71.026  1.00  0.00    -0.037 A  
HETATM   16  C   UNL     1      -6.848   6.858  70.089  1.00  0.00    -0.057 A  
ENDROOT
BRANCH   8  17
HETATM   17  C   UNL     1     -10.637   9.021  67.193  1.00  0.00    -0.291 C  
BRANCH  17  18
HETATM   18  C   UNL     1      -9.359   9.866  67.220  1.00  0.00    -0.145 C  
BRANCH  18  19
HETATM   19  N   UNL     1      -9.333  11.111  66.450  1.00  0.00    -0.182 NA 
HETATM   20  C   UNL     1     -11.642  12.161  65.880  1.00  0.00    -0.425 C  
HETATM   21  C   UNL     1     -10.404  11.328  65.467  1.00  0.00    -0.266 C  
HETATM   22  C   UNL     1     -11.389  13.281  66.913  1.00  0.00    -0.318 C  
HETATM   23  C   UNL     1     -10.472  12.693  67.985  1.00  0.00    -0.232 C  
HETATM   24  C   UNL     1      -9.160  12.265  67.339  1.00  0.00    -0.184 C  
BRANCH  22  25
HETATM   25  N   UNL     1     -10.899  14.571  66.405  1.00  0.00    -0.312 N  
HETATM   26  C   UNL     1     -10.483  14.892  65.091  1.00  0.00    -0.417 C  
HETATM   27  O   UNL     1     -10.474  14.194  64.092  1.00  0.00    -0.075 OA 
HETATM   28  N   UNL     1     -10.055  16.229  65.116  1.00  0.00    -0.486 NA 
HETATM   29  C   UNL     1     -10.178  16.727  66.399  1.00  0.00    -0.323 A  
HETATM   30  C   UNL     1      -9.843  17.982  66.872  1.00  0.00    -0.330 A  
HETATM   31  C   UNL     1     -10.024  18.212  68.233  1.00  0.00    -0.380 A  
HETATM   32  C   UNL     1     -10.536  17.205  69.074  1.00  0.00    -0.321 A  
HETATM   33  C   UNL     1     -10.898  15.950  68.560  1.00  0.00    -0.298 A  
HETATM   34  C   UNL     1     -10.696  15.722  67.212  1.00  0.00    -0.313 A  
ENDBRANCH  22  25
ENDBRANCH  18  19
ENDBRANCH  17  18
ENDBRANCH   8  17
TORSDOF 4
ENDMDL
MODEL       40
REMARK 921   NORMALIZED FREE ENERGY PREDICTED BY IDOCK:   -7.07 KCAL/MOL
REMARK 922        TOTAL FREE ENERGY PREDICTED BY IDOCK:   -9.51 KCAL/MOL
REMARK 923 INTER-LIGAND FREE ENERGY PREDICTED BY IDOCK:   -9.28 KCAL/MOL
REMARK 924 INTRA-LIGAND FREE ENERGY PREDICTED BY IDOCK:   -0.23 KCAL/MOL
REMARK 927      BINDING AFFINITY PREDICTED BY RF-SCORE:    0.00 PKD
ROOT
HETATM    1  F   UNL     1     -13.336  16.127  72.187  1.00  0.00    -0.485 F  
HETATM    2  C   UNL     1     -12.637  15.424  71.286  1.00  0.00    -0.412 A  
HETATM    3  C   UNL     1     -11.439  15.925  70.799  1.00  0.00    -0.437 A  
HETATM    4  C   UNL     1     -10.719  15.196  69.845  1.00  0.00    -0.274 A  
HETATM    5  C   UNL     1     -11.190  13.954  69.370  1.00  0.00    -0.273 A  
HETATM    6  C   UNL     1     -10.415  13.211  68.267  1.00  0.00    -0.258 C  
HETATM    7  C   UNL     1     -12.408  13.479  69.888  1.00  0.00    -0.287 A  
HETATM    8  C   UNL     1      -9.813  11.838  68.699  1.00  0.00    -0.153 C  
HETATM    9  C   UNL     1     -13.127  14.207  70.840  1.00  0.00    -0.338 A  
HETATM   10  C   UNL     1     -11.028  13.250  66.859  1.00  0.00    -0.298 A  
HETATM   11  C   UNL     1     -12.266  13.851  66.578  1.00  0.00    -0.482 A  
HETATM   12  F   UNL     1     -12.421  13.575  62.961  1.00  0.00    -0.555 F  
HETATM   13  C   UNL     1     -10.276  12.767  65.771  1.00  0.00    -0.302 A  
HETATM   14  C   UNL     1     -12.742  13.948  65.265  1.00  0.00    -0.485 A  
HETATM   15  C   UNL     1     -11.975  13.455  64.218  1.00  0.00    -0.430 A  
HETATM   16  C   UNL     1     -10.746  12.863  64.457  1.00  0.00    -0.392 A  
ENDROOT
BRANCH   8  17
HETATM   17  C   UNL     1     -10.704  10.707  69.229  1.00  0.00    -0.275 C  
BRANCH  17  18
HETATM   18  C   UNL     1     -10.395   9.264  68.815  1.00  0.00    -0.211 C  
BRANCH  18  19
HETATM   19  N   UNL     1      -9.475   8.485  69.645  1.00  0.00    -0.164 NA 
HETATM   20  C   UNL     1      -9.790   8.692  72.218  1.00  0.00    -0.360 C  
HETATM   21  C   UNL     1      -9.038   9.074  70.919  1.00  0.00    -0.250 C  
HETATM   22  C   UNL     1     -10.381   7.266  72.261  1.00  0.00    -0.210 C  
HETATM   23  C   UNL     1     -11.032   7.017  70.901  1.00  0.00    -0.282 C  
HETATM   24  C   UNL     1      -9.968   7.114  69.814  1.00  0.00    -0.178 C  
BRANCH  22  25
HETATM   25  N   UNL     1      -9.482   6.173  72.659  1.00  0.00    -0.146 N  
HETATM   26  C   UNL     1      -8.065   6.161  72.658  1.00  0.00    -0.103 C  
HETATM   27  O   UNL     1      -7.287   7.053  72.370  1.00  0.00    -0.083 OA 
HETATM   28  N   UNL     1      -7.670   4.879  73.069  1.00  0.00    -0.092 NA 
HETATM   29  C   UNL     1      -8.791   4.105  73.303  1.00  0.00    -0.098 A  
HETATM   30  C   UNL     1      -8.857   2.780  73.691  1.00  0.00    -0.078 A  
HETATM   31  C   UNL     1     -10.126   2.220  73.810  1.00  0.00    -0.167 A  
HETATM   32  C   UNL     1     -11.280   2.986  73.553  1.00  0.00    -0.293 A  
HETATM   33  C   UNL     1     -11.183   4.338  73.191  1.00  0.00    -0.275 A  
HETATM   34  C   UNL     1      -9.920   4.882  73.055  1.00  0.00    -0.151 A  
ENDBRANCH  22  25
ENDBRANCH  18  19
ENDBRANCH  17  18
ENDBRANCH   8  17
TORSDOF 4
ENDMDL
MODEL       41
REMARK 921   NORMALIZED FREE ENERGY PREDICTED BY IDOCK:   -7.04 KCAL/MOL
REMARK 922        TOTAL FREE ENERGY PREDICTED BY IDOCK:   -9.48 KCAL/MOL
REMARK 923 INTER-LIGAND FREE ENERGY PREDICTED BY IDOCK:   -9.09 KCAL/MOL
REMARK 924 INTRA-LIGAND FREE ENERGY PREDICTED BY IDOCK:   -0.39 KCAL/MOL
REMARK 927      BINDING AFFINITY PREDICTED BY RF-SCORE:    0.00 PKD
ROOT
HETATM    1  F   UNL     1      -8.885   1.597  68.422  1.00  0.00    -0.084 F  
HETATM    2  C   UNL     1      -8.901   2.894  68.755  1.00  0.00    -0.111 A  
HETATM    3  C   UNL     1      -8.231   3.324  69.890  1.00  0.00    -0.073 A  
HETATM    4  C   UNL     1      -8.265   4.678  70.245  1.00  0.00    -0.075 A  
HETATM    5  C   UNL     1      -8.969   5.617  69.463  1.00  0.00    -0.129 A  
HETATM    6  C   UNL     1      -9.050   7.086  69.919  1.00  0.00    -0.141 C  
HETATM    7  C   UNL     1      -9.635   5.144  68.320  1.00  0.00    -0.178 A  
HETATM    8  C   UNL     1      -8.356   8.108  68.966  1.00  0.00    -0.128 C  
HETATM    9  C   UNL     1      -9.602   3.793  67.966  1.00  0.00    -0.179 A  
HETATM   10  C   UNL     1     -10.391   7.543  70.513  1.00  0.00    -0.217 A  
HETATM   11  C   UNL     1     -11.523   6.714  70.575  1.00  0.00    -0.432 A  
HETATM   12  F   UNL     1     -13.856   8.783  72.436  1.00  0.00    -0.383 F  
HETATM   13  C   UNL     1     -10.473   8.806  71.130  1.00  0.00    -0.315 A  
HETATM   14  C   UNL     1     -12.696   7.138  71.211  1.00  0.00    -0.412 A  
HETATM   15  C   UNL     1     -12.741   8.393  71.804  1.00  0.00    -0.342 A  
HETATM   16  C   UNL     1     -11.641   9.233  71.768  1.00  0.00    -0.458 A  
ENDROOT
BRANCH   8  17
HETATM   17  C   UNL     1      -8.778   8.244  67.497  1.00  0.00    -0.129 C  
BRANCH  17  18
HETATM   18  C   UNL     1      -9.930   9.189  67.141  1.00  0.00    -0.218 C  
BRANCH  18  19
HETATM   19  N   UNL     1      -9.651  10.624  67.054  1.00  0.00    -0.167 NA 
HETATM   20  C   UNL     1     -11.312  12.034  65.636  1.00  0.00    -0.381 C  
HETATM   21  C   UNL     1      -9.956  11.303  65.786  1.00  0.00    -0.237 C  
HETATM   22  C   UNL     1     -11.895  12.648  66.927  1.00  0.00    -0.355 C  
HETATM   23  C   UNL     1     -11.707  11.610  68.033  1.00  0.00    -0.351 C  
HETATM   24  C   UNL     1     -10.219  11.331  68.207  1.00  0.00    -0.186 C  
BRANCH  22  25
HETATM   25  N   UNL     1     -11.411  13.979  67.322  1.00  0.00    -0.330 N  
HETATM   26  C   UNL     1     -10.688  14.914  66.543  1.00  0.00    -0.309 C  
HETATM   27  O   UNL     1     -10.344  14.843  65.376  1.00  0.00    -0.331 OA 
HETATM   28  N   UNL     1     -10.411  16.009  67.375  1.00  0.00    -0.303 NA 
HETATM   29  C   UNL     1     -10.923  15.768  68.636  1.00  0.00    -0.307 A  
HETATM   30  C   UNL     1     -10.848  16.566  69.763  1.00  0.00    -0.302 A  
HETATM   31  C   UNL     1     -11.410  16.061  70.932  1.00  0.00    -0.421 A  
HETATM   32  C   UNL     1     -12.032  14.798  70.946  1.00  0.00    -0.384 A  
HETATM   33  C   UNL     1     -12.122  14.023  69.780  1.00  0.00    -0.405 A  
HETATM   34  C   UNL     1     -11.543  14.522  68.628  1.00  0.00    -0.315 A  
ENDBRANCH  22  25
ENDBRANCH  18  19
ENDBRANCH  17  18
ENDBRANCH   8  17
TORSDOF 4
ENDMDL
MODEL       42
REMARK 921   NORMALIZED FREE ENERGY PREDICTED BY IDOCK:   -7.03 KCAL/MOL
REMARK 922        TOTAL FREE ENERGY PREDICTED BY IDOCK:   -9.46 KCAL/MOL
REMARK 923 INTER-LIGAND FREE ENERGY PREDICTED BY IDOCK:   -9.00 KCAL/MOL
REMARK 924 INTRA-LIGAND FREE ENERGY PREDICTED BY IDOCK:   -0.46 KCAL/MOL
REMARK 927      BINDING AFFINITY PREDICTED BY RF-SCORE:    0.00 PKD
ROOT
HETATM    1  F   UNL     1     -14.088   9.887  72.926  1.00  0.00    -0.167 F  
HETATM    2  C   UNL     1     -13.405   9.014  72.174  1.00  0.00    -0.455 A  
HETATM    3  C   UNL     1     -14.051   7.910  71.640  1.00  0.00    -0.528 A  
HETATM    4  C   UNL     1     -13.330   6.990  70.868  1.00  0.00     0.062 A  
HETATM    5  C   UNL     1     -11.954   7.169  70.621  1.00  0.00    -0.312 A  
HETATM    6  C   UNL     1     -11.171   6.103  69.833  1.00  0.00    -0.484 C  
HETATM    7  C   UNL     1     -11.334   8.301  71.180  1.00  0.00    -0.298 A  
HETATM    8  C   UNL     1     -10.597   6.589  68.466  1.00  0.00    -0.291 C  
HETATM    9  C   UNL     1     -12.053   9.218  71.950  1.00  0.00    -0.440 A  
HETATM   10  C   UNL     1     -10.246   5.190  70.652  1.00  0.00    -0.326 A  
HETATM   11  C   UNL     1     -10.041   5.348  72.032  1.00  0.00    -0.240 A  
HETATM   12  F   UNL     1      -7.979   2.462  72.809  1.00  0.00    -0.049 F  
HETATM   13  C   UNL     1      -9.660   4.073  70.029  1.00  0.00    -0.274 A  
HETATM   14  C   UNL     1      -9.265   4.436  72.757  1.00  0.00    -0.145 A  
HETATM   15  C   UNL     1      -8.697   3.348  72.107  1.00  0.00    -0.087 A  
HETATM   16  C   UNL     1      -8.885   3.157  70.748  1.00  0.00    -0.145 A  
ENDROOT
BRANCH   8  17
HETATM   17  C   UNL     1      -9.623   7.771  68.384  1.00  0.00    -0.157 C  
BRANCH  17  18
HETATM   18  C   UNL     1      -9.639   8.661  67.136  1.00  0.00    -0.173 C  
BRANCH  18  19
HETATM   19  N   UNL     1      -9.491  10.107  67.311  1.00  0.00    -0.152 NA 
HETATM   20  C   UNL     1     -11.258  11.596  66.118  1.00  0.00    -0.314 C  
HETATM   21  C   UNL     1      -9.843  10.971  66.174  1.00  0.00    -0.225 C  
HETATM   22  C   UNL     1     -11.909  11.916  67.481  1.00  0.00    -0.179 C  
HETATM   23  C   UNL     1     -11.640  10.718  68.391  1.00  0.00    -0.311 C  
HETATM   24  C   UNL     1     -10.135  10.545  68.554  1.00  0.00    -0.173 C  
BRANCH  22  25
HETATM   25  N   UNL     1     -11.554  13.193  68.118  1.00  0.00    -0.317 N  
HETATM   26  C   UNL     1     -11.638  13.540  69.488  1.00  0.00    -0.294 C  
HETATM   27  O   UNL     1     -11.980  12.856  70.437  1.00  0.00    -0.330 OA 
HETATM   28  N   UNL     1     -11.237  14.880  69.593  1.00  0.00    -0.263 NA 
HETATM   29  C   UNL     1     -10.929  15.368  68.337  1.00  0.00    -0.284 A  
HETATM   30  C   UNL     1     -10.524  16.641  67.982  1.00  0.00    -0.320 A  
HETATM   31  C   UNL     1     -10.325  16.885  66.627  1.00  0.00    -0.299 A  
HETATM   32  C   UNL     1     -10.522  15.867  65.674  1.00  0.00    -0.411 A  
HETATM   33  C   UNL     1     -10.903  14.574  66.065  1.00  0.00    -0.310 A  
HETATM   34  C   UNL     1     -11.118  14.345  67.411  1.00  0.00    -0.308 A  
ENDBRANCH  22  25
ENDBRANCH  18  19
ENDBRANCH  17  18
ENDBRANCH   8  17
TORSDOF 4
ENDMDL
MODEL       43
REMARK 921   NORMALIZED FREE ENERGY PREDICTED BY IDOCK:   -7.01 KCAL/MOL
REMARK 922        TOTAL FREE ENERGY PREDICTED BY IDOCK:   -9.43 KCAL/MOL
REMARK 923 INTER-LIGAND FREE ENERGY PREDICTED BY IDOCK:   -9.11 KCAL/MOL
REMARK 924 INTRA-LIGAND FREE ENERGY PREDICTED BY IDOCK:   -0.33 KCAL/MOL
REMARK 927      BINDING AFFINITY PREDICTED BY RF-SCORE:    0.00 PKD
ROOT
HETATM    1  F   UNL     1      -6.772   6.330  65.387  1.00  0.00    -0.042 F  
HETATM    2  C   UNL     1      -7.590   7.311  65.790  1.00  0.00    -0.091 A  
HETATM    3  C   UNL     1      -8.883   7.009  66.192  1.00  0.00    -0.165 A  
HETATM    4  C   UNL     1      -9.742   8.038  66.596  1.00  0.00    -0.313 A  
HETATM    5  C   UNL     1      -9.314   9.382  66.604  1.00  0.00    -0.211 A  
HETATM    6  C   UNL     1     -10.304  10.499  66.981  1.00  0.00    -0.289 C  
HETATM    7  C   UNL     1      -7.998   9.648  66.189  1.00  0.00    -0.108 A  
HETATM    8  C   UNL     1      -9.944  11.282  68.282  1.00  0.00    -0.201 C  
HETATM    9  C   UNL     1      -7.140   8.622  65.786  1.00  0.00    -0.079 A  
HETATM   10  C   UNL     1     -10.843  11.353  65.824  1.00  0.00    -0.290 A  
HETATM   11  C   UNL     1     -10.412  11.202  64.495  1.00  0.00    -0.415 A  
HETATM   12  F   UNL     1     -12.609  13.498  62.738  1.00  0.00    -0.364 F  
HETATM   13  C   UNL     1     -11.896  12.254  66.069  1.00  0.00    -0.409 A  
HETATM   14  C   UNL     1     -10.998  11.935  63.457  1.00  0.00    -0.505 A  
HETATM   15  C   UNL     1     -12.033  12.819  63.738  1.00  0.00    -0.510 A  
HETATM   16  C   UNL     1     -12.487  12.988  65.036  1.00  0.00    -0.534 A  
ENDROOT
BRANCH   8  17
HETATM   17  C   UNL     1      -8.611  12.027  68.423  1.00  0.00    -0.147 C  
BRANCH  17  18
HETATM   18  C   UNL     1      -8.140  12.929  67.276  1.00  0.00    -0.163 C  
BRANCH  18  19
HETATM   19  N   UNL     1      -8.743  14.256  67.143  1.00  0.00    -0.219 NA 
HETATM   20  C   UNL     1      -9.332  15.479  69.361  1.00  0.00    -0.279 C  
HETATM   21  C   UNL     1      -9.762  14.645  68.130  1.00  0.00    -0.220 C  
HETATM   22  C   UNL     1      -8.152  16.449  69.141  1.00  0.00    -0.198 C  
HETATM   23  C   UNL     1      -7.102  15.690  68.329  1.00  0.00    -0.116 C  
HETATM   24  C   UNL     1      -7.706  15.281  66.991  1.00  0.00    -0.157 C  
BRANCH  22  25
HETATM   25  N   UNL     1      -8.457  17.767  68.564  1.00  0.00    -0.297 N  
HETATM   26  C   UNL     1      -9.682  18.219  68.016  1.00  0.00    -0.312 C  
HETATM   27  O   UNL     1     -10.751  17.641  67.936  1.00  0.00    -0.394 OA 
HETATM   28  N   UNL     1      -9.460  19.524  67.549  1.00  0.00    -0.310 NA 
HETATM   29  C   UNL     1      -8.143  19.876  67.776  1.00  0.00    -0.294 A  
HETATM   30  C   UNL     1      -7.496  21.052  67.446  1.00  0.00    -0.264 A  
HETATM   31  C   UNL     1      -6.140  21.132  67.746  1.00  0.00    -0.423 A  
HETATM   32  C   UNL     1      -5.473  20.058  68.367  1.00  0.00    -0.240 A  
HETATM   33  C   UNL     1      -6.162  18.887  68.720  1.00  0.00    -0.249 A  
HETATM   34  C   UNL     1      -7.504  18.807  68.400  1.00  0.00    -0.298 A  
ENDBRANCH  22  25
ENDBRANCH  18  19
ENDBRANCH  17  18
ENDBRANCH   8  17
TORSDOF 4
ENDMDL
MODEL       44
REMARK 921   NORMALIZED FREE ENERGY PREDICTED BY IDOCK:   -6.99 KCAL/MOL
REMARK 922        TOTAL FREE ENERGY PREDICTED BY IDOCK:   -9.41 KCAL/MOL
REMARK 923 INTER-LIGAND FREE ENERGY PREDICTED BY IDOCK:   -9.52 KCAL/MOL
REMARK 924 INTRA-LIGAND FREE ENERGY PREDICTED BY IDOCK:    0.11 KCAL/MOL
REMARK 927      BINDING AFFINITY PREDICTED BY RF-SCORE:    0.00 PKD
ROOT
HETATM    1  F   UNL     1     -10.119  19.550  67.606  1.00  0.00    -0.399 F  
HETATM    2  C   UNL     1      -9.933  18.256  67.317  1.00  0.00    -0.335 A  
HETATM    3  C   UNL     1      -8.932  17.884  66.432  1.00  0.00    -0.247 A  
HETATM    4  C   UNL     1      -8.750  16.531  66.119  1.00  0.00    -0.335 A  
HETATM    5  C   UNL     1      -9.569  15.536  66.691  1.00  0.00    -0.273 A  
HETATM    6  C   UNL     1      -9.395  14.065  66.270  1.00  0.00    -0.199 C  
HETATM    7  C   UNL     1     -10.572  15.952  67.583  1.00  0.00    -0.307 A  
HETATM    8  C   UNL     1      -8.922  13.109  67.409  1.00  0.00    -0.201 C  
HETATM    9  C   UNL     1     -10.754  17.301  67.896  1.00  0.00    -0.351 A  
HETATM   10  C   UNL     1     -10.466  13.493  65.329  1.00  0.00    -0.345 A  
HETATM   11  C   UNL     1     -11.597  14.221  64.925  1.00  0.00    -0.384 A  
HETATM   12  F   UNL     1     -13.118  11.954  62.530  1.00  0.00    -0.108 F  
HETATM   13  C   UNL     1     -10.263  12.227  64.749  1.00  0.00    -0.308 A  
HETATM   14  C   UNL     1     -12.499  13.696  63.992  1.00  0.00    -0.285 A  
HETATM   15  C   UNL     1     -12.268  12.440  63.443  1.00  0.00    -0.523 A  
HETATM   16  C   UNL     1     -11.159  11.698  63.814  1.00  0.00    -0.499 A  
ENDROOT
BRANCH   8  17
HETATM   17  C   UNL     1      -9.735  12.939  68.698  1.00  0.00    -0.047 C  
BRANCH  17  18
HETATM   18  C   UNL     1     -11.220  12.576  68.596  1.00  0.00    -0.278 C  
BRANCH  18  19
HETATM   19  N   UNL     1     -11.599  11.165  68.695  1.00  0.00    -0.296 NA 
HETATM   20  C   UNL     1      -9.945   9.454  67.647  1.00  0.00    -0.238 C  
HETATM   21  C   UNL     1     -11.250  10.284  67.570  1.00  0.00    -0.117 C  
HETATM   22  C   UNL     1      -9.511   9.007  69.059  1.00  0.00    -0.155 C  
HETATM   23  C   UNL     1      -9.705  10.210  69.982  1.00  0.00    -0.144 C  
HETATM   24  C   UNL     1     -11.176  10.606  69.983  1.00  0.00    -0.309 C  
BRANCH  22  25
HETATM   25  N   UNL     1     -10.123   7.785  69.601  1.00  0.00    -0.191 N  
HETATM   26  C   UNL     1     -10.825   6.774  68.900  1.00  0.00    -0.243 C  
HETATM   27  O   UNL     1     -11.042   6.672  67.705  1.00  0.00    -0.285 OA 
HETATM   28  N   UNL     1     -11.260   5.844  69.857  1.00  0.00    -0.359 NA 
HETATM   29  C   UNL     1     -10.865   6.260  71.114  1.00  0.00    -0.266 A  
HETATM   30  C   UNL     1     -11.109   5.660  72.336  1.00  0.00    -0.324 A  
HETATM   31  C   UNL     1     -10.637   6.319  73.467  1.00  0.00    -0.288 A  
HETATM   32  C   UNL     1      -9.934   7.534  73.355  1.00  0.00    -0.378 A  
HETATM   33  C   UNL     1      -9.673   8.103  72.099  1.00  0.00    -0.311 A  
HETATM   34  C   UNL     1     -10.163   7.455  70.982  1.00  0.00    -0.191 A  
ENDBRANCH  22  25
ENDBRANCH  18  19
ENDBRANCH  17  18
ENDBRANCH   8  17
TORSDOF 4
ENDMDL
MODEL       45
REMARK 921   NORMALIZED FREE ENERGY PREDICTED BY IDOCK:   -6.98 KCAL/MOL
REMARK 922        TOTAL FREE ENERGY PREDICTED BY IDOCK:   -9.40 KCAL/MOL
REMARK 923 INTER-LIGAND FREE ENERGY PREDICTED BY IDOCK:   -8.47 KCAL/MOL
REMARK 924 INTRA-LIGAND FREE ENERGY PREDICTED BY IDOCK:   -0.93 KCAL/MOL
REMARK 927      BINDING AFFINITY PREDICTED BY RF-SCORE:    0.00 PKD
ROOT
HETATM    1  F   UNL     1     -10.902  20.543  69.338  1.00  0.00    -0.270 F  
HETATM    2  C   UNL     1     -10.494  19.529  68.563  1.00  0.00    -0.200 A  
HETATM    3  C   UNL     1     -10.336  19.724  67.199  1.00  0.00    -0.589 A  
HETATM    4  C   UNL     1      -9.927  18.658  66.389  1.00  0.00    -0.415 A  
HETATM    5  C   UNL     1      -9.669  17.385  66.938  1.00  0.00    -0.286 A  
HETATM    6  C   UNL     1      -9.292  16.213  66.013  1.00  0.00    -0.368 C  
HETATM    7  C   UNL     1      -9.840  17.227  68.324  1.00  0.00    -0.304 A  
HETATM    8  C   UNL     1      -7.856  15.642  66.228  1.00  0.00     0.435 C  
HETATM    9  C   UNL     1     -10.248  18.290  69.133  1.00  0.00    -0.104 A  
HETATM   10  C   UNL     1     -10.388  15.167  65.756  1.00  0.00    -0.359 A  
HETATM   11  C   UNL     1     -11.644  15.205  66.382  1.00  0.00    -0.089 A  
HETATM   12  F   UNL     1     -13.375  12.470  64.736  1.00  0.00    -0.410 F  
HETATM   13  C   UNL     1     -10.180  14.185  64.769  1.00  0.00    -0.311 A  
HETATM   14  C   UNL     1     -12.647  14.287  66.049  1.00  0.00    -0.335 A  
HETATM   15  C   UNL     1     -12.404  13.328  65.073  1.00  0.00    -0.448 A  
HETATM   16  C   UNL     1     -11.179  13.267  64.430  1.00  0.00    -0.409 A  
ENDROOT
BRANCH   8  17
HETATM   17  C   UNL     1      -7.415  15.082  67.586  1.00  0.00    -0.202 C  
BRANCH  17  18
HETATM   18  C   UNL     1      -7.213  13.570  67.734  1.00  0.00    -0.154 C  
BRANCH  18  19
HETATM   19  N   UNL     1      -8.001  12.859  68.741  1.00  0.00    -0.007 NA 
HETATM   20  C   UNL     1     -10.437  12.244  68.071  1.00  0.00    -0.231 C  
HETATM   21  C   UNL     1      -9.439  13.159  68.820  1.00  0.00     0.109 C  
HETATM   22  C   UNL     1     -10.029  10.761  67.943  1.00  0.00    -0.174 C  
HETATM   23  C   UNL     1      -8.548  10.742  67.567  1.00  0.00    -0.125 C  
HETATM   24  C   UNL     1      -7.744  11.416  68.673  1.00  0.00    -0.137 C  
BRANCH  22  25
HETATM   25  N   UNL     1     -10.329   9.876  69.078  1.00  0.00    -0.198 N  
HETATM   26  C   UNL     1      -9.797   8.592  69.350  1.00  0.00    -0.185 C  
HETATM   27  O   UNL     1      -8.956   7.960  68.736  1.00  0.00    -0.141 OA 
HETATM   28  N   UNL     1     -10.429   8.130  70.515  1.00  0.00    -0.210 NA 
HETATM   29  C   UNL     1     -11.337   9.075  70.952  1.00  0.00    -0.293 A  
HETATM   30  C   UNL     1     -12.190   9.014  72.038  1.00  0.00    -0.446 A  
HETATM   31  C   UNL     1     -13.047  10.093  72.229  1.00  0.00    -0.350 A  
HETATM   32  C   UNL     1     -13.027  11.195  71.352  1.00  0.00    -0.506 A  
HETATM   33  C   UNL     1     -12.128  11.245  70.276  1.00  0.00    -0.459 A  
HETATM   34  C   UNL     1     -11.294  10.161  70.081  1.00  0.00    -0.303 A  
ENDBRANCH  22  25
ENDBRANCH  18  19
ENDBRANCH  17  18
ENDBRANCH   8  17
TORSDOF 4
ENDMDL
MODEL       46
REMARK 921   NORMALIZED FREE ENERGY PREDICTED BY IDOCK:   -6.96 KCAL/MOL
REMARK 922        TOTAL FREE ENERGY PREDICTED BY IDOCK:   -9.37 KCAL/MOL
REMARK 923 INTER-LIGAND FREE ENERGY PREDICTED BY IDOCK:   -9.31 KCAL/MOL
REMARK 924 INTRA-LIGAND FREE ENERGY PREDICTED BY IDOCK:   -0.06 KCAL/MOL
REMARK 927      BINDING AFFINITY PREDICTED BY RF-SCORE:    0.00 PKD
ROOT
HETATM    1  F   UNL     1     -13.736  11.867  71.958  1.00  0.00    -0.427 F  
HETATM    2  C   UNL     1     -13.132  10.684  71.784  1.00  0.00    -0.466 A  
HETATM    3  C   UNL     1     -13.525   9.591  72.543  1.00  0.00    -0.381 A  
HETATM    4  C   UNL     1     -12.880   8.360  72.371  1.00  0.00    -0.323 A  
HETATM    5  C   UNL     1     -11.836   8.210  71.435  1.00  0.00    -0.329 A  
HETATM    6  C   UNL     1     -11.096   6.865  71.321  1.00  0.00    -0.293 C  
HETATM    7  C   UNL     1     -11.467   9.340  70.685  1.00  0.00    -0.327 A  
HETATM    8  C   UNL     1     -11.265   6.137  69.952  1.00  0.00    -0.484 C  
HETATM    9  C   UNL     1     -12.109  10.569  70.856  1.00  0.00    -0.487 A  
HETATM   10  C   UNL     1      -9.688   6.807  71.932  1.00  0.00    -0.160 A  
HETATM   11  C   UNL     1      -9.051   7.925  72.494  1.00  0.00    -0.245 A  
HETATM   12  F   UNL     1      -6.017   6.450  73.838  1.00  0.00    -0.057 F  
HETATM   13  C   UNL     1      -9.039   5.562  72.041  1.00  0.00    -0.150 A  
HETATM   14  C   UNL     1      -7.806   7.807  73.125  1.00  0.00    -0.160 A  
HETATM   15  C   UNL     1      -7.194   6.563  73.209  1.00  0.00    -0.081 A  
HETATM   16  C   UNL     1      -7.797   5.438  72.672  1.00  0.00    -0.102 A  
ENDROOT
BRANCH   8  17
HETATM   17  C   UNL     1     -10.842   6.803  68.636  1.00  0.00    -0.277 C  
BRANCH  17  18
HETATM   18  C   UNL     1      -9.468   7.477  68.555  1.00  0.00    -0.146 C  
BRANCH  18  19
HETATM   19  N   UNL     1      -9.415   8.937  68.457  1.00  0.00    -0.147 NA 
HETATM   20  C   UNL     1      -7.701   9.914  66.763  1.00  0.00    -0.099 C  
HETATM   21  C   UNL     1      -8.104   9.558  68.214  1.00  0.00    -0.102 C  
HETATM   22  C   UNL     1      -8.857  10.307  65.818  1.00  0.00    -0.161 C  
HETATM   23  C   UNL     1      -9.992   9.315  66.073  1.00  0.00    -0.325 C  
HETATM   24  C   UNL     1     -10.437   9.429  67.526  1.00  0.00    -0.280 C  
BRANCH  22  25
HETATM   25  N   UNL     1      -9.317  11.703  65.855  1.00  0.00    -0.227 N  
HETATM   26  C   UNL     1      -8.913  12.734  66.739  1.00  0.00    -0.188 C  
HETATM   27  O   UNL     1      -8.078  12.706  67.626  1.00  0.00    -0.148 OA 
HETATM   28  N   UNL     1      -9.671  13.869  66.412  1.00  0.00    -0.291 NA 
HETATM   29  C   UNL     1     -10.533  13.563  65.376  1.00  0.00    -0.315 A  
HETATM   30  C   UNL     1     -11.472  14.375  64.768  1.00  0.00    -0.402 A  
HETATM   31  C   UNL     1     -12.253  13.799  63.771  1.00  0.00    -0.364 A  
HETATM   32  C   UNL     1     -12.075  12.452  63.401  1.00  0.00    -0.620 A  
HETATM   33  C   UNL     1     -11.091  11.660  64.012  1.00  0.00    -0.458 A  
HETATM   34  C   UNL     1     -10.333  12.233  65.016  1.00  0.00    -0.291 A  
ENDBRANCH  22  25
ENDBRANCH  18  19
ENDBRANCH  17  18
ENDBRANCH   8  17
TORSDOF 4
ENDMDL
MODEL       47
REMARK 921   NORMALIZED FREE ENERGY PREDICTED BY IDOCK:   -6.95 KCAL/MOL
REMARK 922        TOTAL FREE ENERGY PREDICTED BY IDOCK:   -9.36 KCAL/MOL
REMARK 923 INTER-LIGAND FREE ENERGY PREDICTED BY IDOCK:   -8.71 KCAL/MOL
REMARK 924 INTRA-LIGAND FREE ENERGY PREDICTED BY IDOCK:   -0.65 KCAL/MOL
REMARK 927      BINDING AFFINITY PREDICTED BY RF-SCORE:    0.00 PKD
ROOT
HETATM    1  F   UNL     1      -9.621   1.545  67.774  1.00  0.00    -0.190 F  
HETATM    2  C   UNL     1      -9.411   2.717  68.386  1.00  0.00    -0.145 A  
HETATM    3  C   UNL     1      -9.014   2.740  69.715  1.00  0.00    -0.168 A  
HETATM    4  C   UNL     1      -8.812   3.968  70.358  1.00  0.00    -0.137 A  
HETATM    5  C   UNL     1      -9.004   5.186  69.675  1.00  0.00    -0.137 A  
HETATM    6  C   UNL     1      -8.847   6.520  70.428  1.00  0.00    -0.151 C  
HETATM    7  C   UNL     1      -9.406   5.122  68.330  1.00  0.00    -0.152 A  
HETATM    8  C   UNL     1      -7.676   7.422  69.929  1.00  0.00    -0.099 C  
HETATM    9  C   UNL     1      -9.608   3.898  67.688  1.00  0.00    -0.205 A  
HETATM   10  C   UNL     1     -10.145   7.260  70.784  1.00  0.00    -0.193 A  
HETATM   11  C   UNL     1     -11.415   6.812  70.385  1.00  0.00    -0.419 A  
HETATM   12  F   UNL     1     -13.597   9.168  72.080  1.00  0.00    -0.369 F  
HETATM   13  C   UNL     1     -10.086   8.375  71.641  1.00  0.00    -0.308 A  
HETATM   14  C   UNL     1     -12.579   7.464  70.810  1.00  0.00    -0.097 A  
HETATM   15  C   UNL     1     -12.481   8.564  71.653  1.00  0.00    -0.330 A  
HETATM   16  C   UNL     1     -11.245   9.028  72.071  1.00  0.00    -0.379 A  
ENDROOT
BRANCH   8  17
HETATM   17  C   UNL     1      -7.607   7.909  68.476  1.00  0.00    -0.105 C  
BRANCH  17  18
HETATM   18  C   UNL     1      -7.055   9.309  68.189  1.00  0.00    -0.077 C  
BRANCH  18  19
HETATM   19  N   UNL     1      -7.872  10.230  67.397  1.00  0.00    -0.102 NA 
HETATM   20  C   UNL     1     -10.354   9.544  67.036  1.00  0.00    -0.319 C  
HETATM   21  C   UNL     1      -8.899   9.649  66.519  1.00  0.00    -0.142 C  
HETATM   22  C   UNL     1     -10.803  10.648  68.018  1.00  0.00    -0.261 C  
HETATM   23  C   UNL     1      -9.655  10.852  69.006  1.00  0.00    -0.170 C  
HETATM   24  C   UNL     1      -8.414  11.298  68.244  1.00  0.00    -0.152 C  
BRANCH  22  25
HETATM   25  N   UNL     1     -11.276  11.915  67.442  1.00  0.00    -0.284 N  
HETATM   26  C   UNL     1     -11.719  13.074  68.124  1.00  0.00    -0.351 C  
HETATM   27  O   UNL     1     -11.769  13.292  69.322  1.00  0.00    -0.288 OA 
HETATM   28  N   UNL     1     -12.116  13.996  67.143  1.00  0.00    -0.429 NA 
HETATM   29  C   UNL     1     -11.949  13.435  65.891  1.00  0.00    -0.409 A  
HETATM   30  C   UNL     1     -12.243  13.982  64.656  1.00  0.00    -0.460 A  
HETATM   31  C   UNL     1     -12.023  13.178  63.542  1.00  0.00    -0.580 A  
HETATM   32  C   UNL     1     -11.512  11.873  63.683  1.00  0.00    -0.551 A  
HETATM   33  C   UNL     1     -11.192  11.355  64.947  1.00  0.00    -0.180 A  
HETATM   34  C   UNL     1     -11.433  12.152  66.050  1.00  0.00    -0.370 A  
ENDBRANCH  22  25
ENDBRANCH  18  19
ENDBRANCH  17  18
ENDBRANCH   8  17
TORSDOF 4
ENDMDL
MODEL       48
REMARK 921   NORMALIZED FREE ENERGY PREDICTED BY IDOCK:   -6.86 KCAL/MOL
REMARK 922        TOTAL FREE ENERGY PREDICTED BY IDOCK:   -9.25 KCAL/MOL
REMARK 923 INTER-LIGAND FREE ENERGY PREDICTED BY IDOCK:   -8.79 KCAL/MOL
REMARK 924 INTRA-LIGAND FREE ENERGY PREDICTED BY IDOCK:   -0.46 KCAL/MOL
REMARK 927      BINDING AFFINITY PREDICTED BY RF-SCORE:    0.00 PKD
ROOT
HETATM    1  F   UNL     1     -11.056   6.204  73.531  1.00  0.00    -0.258 F  
HETATM    2  C   UNL     1     -10.951   6.918  72.403  1.00  0.00    -0.246 A  
HETATM    3  C   UNL     1     -11.255   6.331  71.183  1.00  0.00    -0.365 A  
HETATM    4  C   UNL     1     -11.128   7.075  70.004  1.00  0.00    -0.316 A  
HETATM    5  C   UNL     1     -10.696   8.417  70.034  1.00  0.00    -0.236 A  
HETATM    6  C   UNL     1     -10.494   9.186  68.716  1.00  0.00    -0.236 C  
HETATM    7  C   UNL     1     -10.398   8.977  71.288  1.00  0.00    -0.383 A  
HETATM    8  C   UNL     1     -11.450  10.403  68.513  1.00  0.00    -0.231 C  
HETATM    9  C   UNL     1     -10.524   8.236  72.465  1.00  0.00    -0.406 A  
HETATM   10  C   UNL     1      -9.041   9.406  68.269  1.00  0.00    -0.128 A  
HETATM   11  C   UNL     1      -7.936   9.011  69.041  1.00  0.00    -0.102 A  
HETATM   12  F   UNL     1      -5.170   9.760  66.809  1.00  0.00    -0.038 F  
HETATM   13  C   UNL     1      -8.789   9.921  66.983  1.00  0.00    -0.144 A  
HETATM   14  C   UNL     1      -6.629   9.144  68.554  1.00  0.00    -0.055 A  
HETATM   15  C   UNL     1      -6.419   9.661  67.282  1.00  0.00    -0.069 A  
HETATM   16  C   UNL     1      -7.487  10.053  66.491  1.00  0.00    -0.105 A  
ENDROOT
BRANCH   8  17
HETATM   17  C   UNL     1     -11.486  11.565  69.515  1.00  0.00    -0.378 C  
BRANCH  17  18
HETATM   18  C   UNL     1     -11.648  12.994  68.987  1.00  0.00    -0.318 C  
BRANCH  18  19
HETATM   19  N   UNL     1     -10.464  13.854  68.937  1.00  0.00    -0.221 NA 
HETATM   20  C   UNL     1      -9.137  13.857  66.700  1.00  0.00    -0.209 C  
HETATM   21  C   UNL     1      -9.307  13.379  68.163  1.00  0.00    -0.217 C  
HETATM   22  C   UNL     1      -9.668  15.272  66.386  1.00  0.00    -0.285 C  
HETATM   23  C   UNL     1     -11.026  15.398  67.077  1.00  0.00    -0.306 C  
HETATM   24  C   UNL     1     -10.838  15.227  68.579  1.00  0.00    -0.253 C  
BRANCH  22  25
HETATM   25  N   UNL     1      -8.783  16.408  66.682  1.00  0.00    -0.229 N  
HETATM   26  C   UNL     1      -7.419  16.379  67.061  1.00  0.00    -0.215 C  
HETATM   27  O   UNL     1      -6.673  15.423  67.184  1.00  0.00    -0.271 OA 
HETATM   28  N   UNL     1      -7.031  17.709  67.284  1.00  0.00    -0.163 NA 
HETATM   29  C   UNL     1      -8.111  18.544  67.074  1.00  0.00    -0.248 A  
HETATM   30  C   UNL     1      -8.178  19.918  67.212  1.00  0.00    -0.350 A  
HETATM   31  C   UNL     1      -9.414  20.516  66.985  1.00  0.00    -0.516 A  
HETATM   32  C   UNL     1     -10.533  19.743  66.620  1.00  0.00    -0.615 A  
HETATM   33  C   UNL     1     -10.429  18.354  66.455  1.00  0.00    -0.411 A  
HETATM   34  C   UNL     1      -9.204  17.765  66.703  1.00  0.00    -0.269 A  
ENDBRANCH  22  25
ENDBRANCH  18  19
ENDBRANCH  17  18
ENDBRANCH   8  17
TORSDOF 4
ENDMDL
MODEL       49
REMARK 921   NORMALIZED FREE ENERGY PREDICTED BY IDOCK:   -6.82 KCAL/MOL
REMARK 922        TOTAL FREE ENERGY PREDICTED BY IDOCK:   -9.20 KCAL/MOL
REMARK 923 INTER-LIGAND FREE ENERGY PREDICTED BY IDOCK:   -9.01 KCAL/MOL
REMARK 924 INTRA-LIGAND FREE ENERGY PREDICTED BY IDOCK:   -0.19 KCAL/MOL
REMARK 927      BINDING AFFINITY PREDICTED BY RF-SCORE:    0.00 PKD
ROOT
HETATM    1  F   UNL     1      -9.710  14.226  64.790  1.00  0.00    -0.279 F  
HETATM    2  C   UNL     1     -10.340  13.827  65.902  1.00  0.00    -0.309 A  
HETATM    3  C   UNL     1     -11.726  13.842  65.954  1.00  0.00    -0.370 A  
HETATM    4  C   UNL     1     -12.381  13.441  67.124  1.00  0.00    -0.198 A  
HETATM    5  C   UNL     1     -11.654  13.017  68.256  1.00  0.00    -0.375 A  
HETATM    6  C   UNL     1     -12.399  12.653  69.553  1.00  0.00    -0.002 C  
HETATM    7  C   UNL     1     -10.251  13.015  68.165  1.00  0.00    -0.239 A  
HETATM    8  C   UNL     1     -12.272  11.160  69.986  1.00  0.00    -0.402 C  
HETATM    9  C   UNL     1      -9.597  13.416  66.998  1.00  0.00    -0.244 A  
HETATM   10  C   UNL     1     -12.326  13.680  70.693  1.00  0.00    -0.440 A  
HETATM   11  C   UNL     1     -11.562  14.856  70.616  1.00  0.00    -0.341 A  
HETATM   12  F   UNL     1     -12.468  16.531  73.709  1.00  0.00    -0.519 F  
HETATM   13  C   UNL     1     -13.144  13.506  71.826  1.00  0.00    -0.475 A  
HETATM   14  C   UNL     1     -11.599  15.811  71.640  1.00  0.00    -0.537 A  
HETATM   15  C   UNL     1     -12.414  15.602  72.745  1.00  0.00    -0.436 A  
HETATM   16  C   UNL     1     -13.186  14.457  72.850  1.00  0.00    -0.613 A  
ENDROOT
BRANCH   8  17
HETATM   17  C   UNL     1     -10.903  10.521  70.258  1.00  0.00    -0.241 C  
BRANCH  17  18
HETATM   18  C   UNL     1     -10.820   9.325  71.213  1.00  0.00    -0.347 C  
BRANCH  18  19
HETATM   19  N   UNL     1      -9.855   8.265  70.916  1.00  0.00    -0.179 NA 
HETATM   20  C   UNL     1     -10.683   5.825  71.270  1.00  0.00    -0.323 C  
HETATM   21  C   UNL     1      -9.885   7.059  71.758  1.00  0.00    -0.162 C  
HETATM   22  C   UNL     1     -10.748   5.624  69.741  1.00  0.00    -0.331 C  
HETATM   23  C   UNL     1     -11.016   6.998  69.126  1.00  0.00    -0.193 C  
HETATM   24  C   UNL     1      -9.872   7.937  69.486  1.00  0.00    -0.176 C  
BRANCH  22  25
HETATM   25  N   UNL     1      -9.617   4.937  69.100  1.00  0.00    -0.148 N  
HETATM   26  C   UNL     1      -8.387   4.546  69.683  1.00  0.00    -0.069 C  
HETATM   27  O   UNL     1      -8.012   4.653  70.837  1.00  0.00    -0.077 OA 
HETATM   28  N   UNL     1      -7.616   3.975  68.659  1.00  0.00    -0.058 NA 
HETATM   29  C   UNL     1      -8.322   4.021  67.472  1.00  0.00    -0.098 A  
HETATM   30  C   UNL     1      -7.925   3.598  66.217  1.00  0.00    -0.089 A  
HETATM   31  C   UNL     1      -8.818   3.806  65.170  1.00  0.00    -0.123 A  
HETATM   32  C   UNL     1     -10.069   4.412  65.397  1.00  0.00    -0.238 A  
HETATM   33  C   UNL     1     -10.459   4.802  66.687  1.00  0.00    -0.216 A  
HETATM   34  C   UNL     1      -9.558   4.611  67.719  1.00  0.00    -0.159 A  
ENDBRANCH  22  25
ENDBRANCH  18  19
ENDBRANCH  17  18
ENDBRANCH   8  17
TORSDOF 4
ENDMDL
MODEL       50
REMARK 921   NORMALIZED FREE ENERGY PREDICTED BY IDOCK:   -6.82 KCAL/MOL
REMARK 922        TOTAL FREE ENERGY PREDICTED BY IDOCK:   -9.20 KCAL/MOL
REMARK 923 INTER-LIGAND FREE ENERGY PREDICTED BY IDOCK:   -9.10 KCAL/MOL
REMARK 924 INTRA-LIGAND FREE ENERGY PREDICTED BY IDOCK:   -0.10 KCAL/MOL
REMARK 927      BINDING AFFINITY PREDICTED BY RF-SCORE:    0.00 PKD
ROOT
HETATM    1  F   UNL     1     -12.861  15.825  71.866  1.00  0.00    -0.406 F  
HETATM    2  C   UNL     1     -12.121  15.352  70.855  1.00  0.00    -0.364 A  
HETATM    3  C   UNL     1     -11.365  16.224  70.086  1.00  0.00    -0.292 A  
HETATM    4  C   UNL     1     -10.606  15.729  69.019  1.00  0.00    -0.232 A  
HETATM    5  C   UNL     1     -10.595  14.353  68.711  1.00  0.00    -0.256 A  
HETATM    6  C   UNL     1      -9.811  13.848  67.486  1.00  0.00    -0.236 C  
HETATM    7  C   UNL     1     -11.373  13.500  69.513  1.00  0.00    -0.265 A  
HETATM    8  C   UNL     1      -8.616  12.900  67.818  1.00  0.00    -0.185 C  
HETATM    9  C   UNL     1     -12.131  13.994  70.578  1.00  0.00    -0.424 A  
HETATM   10  C   UNL     1     -10.644  13.455  66.257  1.00  0.00    -0.292 A  
HETATM   11  C   UNL     1     -12.048  13.467  66.249  1.00  0.00    -0.476 A  
HETATM   12  F   UNL     1     -12.774  12.687  62.777  1.00  0.00    -0.273 F  
HETATM   13  C   UNL     1      -9.986  13.178  65.043  1.00  0.00    -0.163 A  
HETATM   14  C   UNL     1     -12.767  13.194  65.078  1.00  0.00    -0.456 A  
HETATM   15  C   UNL     1     -12.084  12.920  63.900  1.00  0.00    -0.480 A  
HETATM   16  C   UNL     1     -10.699  12.907  63.871  1.00  0.00    -0.390 A  
ENDROOT
BRANCH   8  17
HETATM   17  C   UNL     1      -8.827  11.586  68.580  1.00  0.00    -0.139 C  
BRANCH  17  18
HETATM   18  C   UNL     1      -9.180  10.320  67.791  1.00  0.00    -0.141 C  
BRANCH  18  19
HETATM   19  N   UNL     1      -9.484   9.098  68.537  1.00  0.00    -0.145 NA 
HETATM   20  C   UNL     1      -8.823   9.092  71.052  1.00  0.00    -0.291 C  
HETATM   21  C   UNL     1      -8.539   8.685  69.585  1.00  0.00    -0.131 C  
HETATM   22  C   UNL     1     -10.312   9.207  71.444  1.00  0.00    -0.338 C  
HETATM   23  C   UNL     1     -11.014   9.938  70.301  1.00  0.00    -0.366 C  
HETATM   24  C   UNL     1     -10.868   9.121  69.022  1.00  0.00    -0.090 C  
BRANCH  22  25
HETATM   25  N   UNL     1     -11.008   7.971  71.828  1.00  0.00    -0.240 N  
HETATM   26  C   UNL     1     -12.400   7.709  71.809  1.00  0.00    -0.319 C  
HETATM   27  O   UNL     1     -13.314   8.424  71.438  1.00  0.00    -0.299 OA 
HETATM   28  N   UNL     1     -12.576   6.411  72.314  1.00  0.00    -0.126 NA 
HETATM   29  C   UNL     1     -11.347   5.881  72.657  1.00  0.00    -0.292 A  
HETATM   30  C   UNL     1     -11.066   4.649  73.217  1.00  0.00    -0.403 A  
HETATM   31  C   UNL     1      -9.734   4.379  73.513  1.00  0.00    -0.146 A  
HETATM   32  C   UNL     1      -8.727   5.325  73.238  1.00  0.00    -0.115 A  
HETATM   33  C   UNL     1      -9.037   6.555  72.639  1.00  0.00    -0.134 A  
HETATM   34  C   UNL     1     -10.365   6.825  72.368  1.00  0.00    -0.195 A  
ENDBRANCH  22  25
ENDBRANCH  18  19
ENDBRANCH  17  18
ENDBRANCH   8  17
TORSDOF 4
ENDMDL
MODEL       51
REMARK 921   NORMALIZED FREE ENERGY PREDICTED BY IDOCK:   -6.81 KCAL/MOL
REMARK 922        TOTAL FREE ENERGY PREDICTED BY IDOCK:   -9.20 KCAL/MOL
REMARK 923 INTER-LIGAND FREE ENERGY PREDICTED BY IDOCK:   -9.29 KCAL/MOL
REMARK 924 INTRA-LIGAND FREE ENERGY PREDICTED BY IDOCK:    0.10 KCAL/MOL
REMARK 927      BINDING AFFINITY PREDICTED BY RF-SCORE:    0.00 PKD
ROOT
HETATM    1  F   UNL     1     -13.038  16.303  72.016  1.00  0.00    -0.452 F  
HETATM    2  C   UNL     1     -12.420  15.518  71.124  1.00  0.00    -0.432 A  
HETATM    3  C   UNL     1     -11.186  15.893  70.613  1.00  0.00    -0.402 A  
HETATM    4  C   UNL     1     -10.551  15.078  69.668  1.00  0.00    -0.252 A  
HETATM    5  C   UNL     1     -11.143  13.877  69.227  1.00  0.00    -0.261 A  
HETATM    6  C   UNL     1     -10.456  13.040  68.133  1.00  0.00    -0.252 C  
HETATM    7  C   UNL     1     -12.393  13.531  69.768  1.00  0.00    -0.249 A  
HETATM    8  C   UNL     1      -9.980  11.626  68.590  1.00  0.00    -0.192 C  
HETATM    9  C   UNL     1     -13.029  14.343  70.711  1.00  0.00    -0.388 A  
HETATM   10  C   UNL     1     -11.079  13.107  66.730  1.00  0.00    -0.314 A  
HETATM   11  C   UNL     1     -12.258  13.816  66.450  1.00  0.00    -0.480 A  
HETATM   12  F   UNL     1     -12.485  13.478  62.841  1.00  0.00    -0.521 F  
HETATM   13  C   UNL     1     -10.390  12.531  65.646  1.00  0.00    -0.294 A  
HETATM   14  C   UNL     1     -12.740  13.929  65.140  1.00  0.00    -0.434 A  
HETATM   15  C   UNL     1     -12.036  13.344  64.095  1.00  0.00    -0.450 A  
HETATM   16  C   UNL     1     -10.865  12.643  64.335  1.00  0.00    -0.386 A  
ENDROOT
BRANCH   8  17
HETATM   17  C   UNL     1     -10.967  10.596  69.154  1.00  0.00    -0.296 C  
BRANCH  17  18
HETATM   18  C   UNL     1     -10.788  10.112  70.597  1.00  0.00    -0.235 C  
BRANCH  18  19
HETATM   19  N   UNL     1     -10.202   8.789  70.819  1.00  0.00    -0.199 NA 
HETATM   20  C   UNL     1      -9.274   8.326  73.203  1.00  0.00    -0.293 C  
HETATM   21  C   UNL     1      -9.042   8.697  71.718  1.00  0.00    -0.247 C  
HETATM   22  C   UNL     1     -10.467   7.388  73.487  1.00  0.00    -0.345 C  
HETATM   23  C   UNL     1     -11.633   7.888  72.635  1.00  0.00    -0.435 C  
HETATM   24  C   UNL     1     -11.243   7.815  71.164  1.00  0.00    -0.264 C  
BRANCH  22  25
HETATM   25  N   UNL     1     -10.244   5.943  73.335  1.00  0.00    -0.198 N  
HETATM   26  C   UNL     1     -11.205   4.929  73.103  1.00  0.00    -0.326 C  
HETATM   27  O   UNL     1     -12.408   5.030  72.941  1.00  0.00    -0.019 OA 
HETATM   28  N   UNL     1     -10.511   3.709  73.085  1.00  0.00    -0.167 NA 
HETATM   29  C   UNL     1      -9.169   3.940  73.316  1.00  0.00    -0.105 A  
HETATM   30  C   UNL     1      -8.140   3.021  73.411  1.00  0.00    -0.072 A  
HETATM   31  C   UNL     1      -6.874   3.520  73.701  1.00  0.00    -0.044 A  
HETATM   32  C   UNL     1      -6.664   4.902  73.876  1.00  0.00    -0.070 A  
HETATM   33  C   UNL     1      -7.721   5.815  73.741  1.00  0.00    -0.097 A  
HETATM   34  C   UNL     1      -8.980   5.311  73.474  1.00  0.00    -0.121 A  
ENDBRANCH  22  25
ENDBRANCH  18  19
ENDBRANCH  17  18
ENDBRANCH   8  17
TORSDOF 4
ENDMDL
MODEL       52
REMARK 921   NORMALIZED FREE ENERGY PREDICTED BY IDOCK:   -6.76 KCAL/MOL
REMARK 922        TOTAL FREE ENERGY PREDICTED BY IDOCK:   -9.13 KCAL/MOL
REMARK 923 INTER-LIGAND FREE ENERGY PREDICTED BY IDOCK:   -9.13 KCAL/MOL
REMARK 924 INTRA-LIGAND FREE ENERGY PREDICTED BY IDOCK:    0.00 KCAL/MOL
REMARK 927      BINDING AFFINITY PREDICTED BY RF-SCORE:    0.00 PKD
ROOT
HETATM    1  F   UNL     1     -13.450  15.622  72.374  1.00  0.00    -0.441 F  
HETATM    2  C   UNL     1     -12.647  15.172  71.401  1.00  0.00    -0.354 A  
HETATM    3  C   UNL     1     -11.683  16.010  70.859  1.00  0.00    -0.438 A  
HETATM    4  C   UNL     1     -10.857  15.542  69.830  1.00  0.00    -0.301 A  
HETATM    5  C   UNL     1     -10.985  14.228  69.334  1.00  0.00    -0.242 A  
HETATM    6  C   UNL     1     -10.113  13.767  68.152  1.00  0.00    -0.245 C  
HETATM    7  C   UNL     1     -11.972  13.409  69.909  1.00  0.00    -0.408 A  
HETATM    8  C   UNL     1      -9.111  12.619  68.485  1.00  0.00    -0.052 C  
HETATM    9  C   UNL     1     -12.797  13.875  70.936  1.00  0.00    -0.370 A  
HETATM   10  C   UNL     1     -10.814  13.658  66.789  1.00  0.00    -0.291 A  
HETATM   11  C   UNL     1     -12.190  13.880  66.616  1.00  0.00    -0.465 A  
HETATM   12  F   UNL     1     -12.528  13.652  63.008  1.00  0.00    -0.530 F  
HETATM   13  C   UNL     1     -10.038  13.438  65.636  1.00  0.00    -0.285 A  
HETATM   14  C   UNL     1     -12.770  13.864  65.342  1.00  0.00    -0.525 A  
HETATM   15  C   UNL     1     -11.974  13.639  64.226  1.00  0.00    -0.445 A  
HETATM   16  C   UNL     1     -10.612  13.423  64.360  1.00  0.00    -0.423 A  
ENDROOT
BRANCH   8  17
HETATM   17  C   UNL     1      -9.596  11.266  69.023  1.00  0.00    -0.048 C  
BRANCH  17  18
HETATM   18  C   UNL     1      -9.786  10.104  68.042  1.00  0.00    -0.142 C  
BRANCH  18  19
HETATM   19  N   UNL     1      -9.273   8.785  68.420  1.00  0.00    -0.138 NA 
HETATM   20  C   UNL     1     -10.964   7.181  69.573  1.00  0.00    -0.214 C  
HETATM   21  C   UNL     1      -9.786   8.183  69.660  1.00  0.00    -0.184 C  
HETATM   22  C   UNL     1     -11.031   6.327  68.288  1.00  0.00    -0.321 C  
HETATM   23  C   UNL     1     -10.742   7.268  67.118  1.00  0.00    -0.413 C  
HETATM   24  C   UNL     1      -9.348   7.858  67.286  1.00  0.00    -0.148 C  
BRANCH  22  25
HETATM   25  N   UNL     1     -10.210   5.109  68.241  1.00  0.00    -0.143 N  
HETATM   26  C   UNL     1      -9.757   4.404  67.100  1.00  0.00    -0.197 C  
HETATM   27  O   UNL     1      -9.909   4.667  65.920  1.00  0.00    -0.182 OA 
HETATM   28  N   UNL     1      -9.056   3.281  67.568  1.00  0.00    -0.157 NA 
HETATM   29  C   UNL     1      -9.082   3.267  68.949  1.00  0.00    -0.146 A  
HETATM   30  C   UNL     1      -8.544   2.329  69.811  1.00  0.00    -0.100 A  
HETATM   31  C   UNL     1      -8.757   2.529  71.172  1.00  0.00    -0.116 A  
HETATM   32  C   UNL     1      -9.479   3.646  71.634  1.00  0.00    -0.215 A  
HETATM   33  C   UNL     1      -9.986   4.599  70.738  1.00  0.00    -0.284 A  
HETATM   34  C   UNL     1      -9.789   4.384  69.387  1.00  0.00    -0.168 A  
ENDBRANCH  22  25
ENDBRANCH  18  19
ENDBRANCH  17  18
ENDBRANCH   8  17
TORSDOF 4
ENDMDL
MODEL       53
REMARK 921   NORMALIZED FREE ENERGY PREDICTED BY IDOCK:   -6.74 KCAL/MOL
REMARK 922        TOTAL FREE ENERGY PREDICTED BY IDOCK:   -9.11 KCAL/MOL
REMARK 923 INTER-LIGAND FREE ENERGY PREDICTED BY IDOCK:   -8.66 KCAL/MOL
REMARK 924 INTRA-LIGAND FREE ENERGY PREDICTED BY IDOCK:   -0.44 KCAL/MOL
REMARK 927      BINDING AFFINITY PREDICTED BY RF-SCORE:    0.00 PKD
ROOT
HETATM    1  F   UNL     1     -12.607  12.529  63.160  1.00  0.00    -0.560 F  
HETATM    2  C   UNL     1     -12.090  13.141  64.234  1.00  0.00    -0.414 A  
HETATM    3  C   UNL     1     -12.880  13.351  65.355  1.00  0.00    -0.388 A  
HETATM    4  C   UNL     1     -12.342  14.006  66.469  1.00  0.00    -0.442 A  
HETATM    5  C   UNL     1     -11.006  14.456  66.473  1.00  0.00    -0.316 A  
HETATM    6  C   UNL     1     -10.465  15.240  67.683  1.00  0.00    -0.263 C  
HETATM    7  C   UNL     1     -10.237  14.225  65.319  1.00  0.00    -0.408 A  
HETATM    8  C   UNL     1      -9.318  14.528  68.466  1.00  0.00    -0.203 C  
HETATM    9  C   UNL     1     -10.773  13.571  64.207  1.00  0.00    -0.324 A  
HETATM   10  C   UNL     1     -10.295  16.755  67.495  1.00  0.00    -0.301 A  
HETATM   11  C   UNL     1     -10.533  17.406  66.273  1.00  0.00    -0.276 A  
HETATM   12  F   UNL     1     -10.115  20.892  67.199  1.00  0.00    -0.581 F  
HETATM   13  C   UNL     1      -9.999  17.556  68.614  1.00  0.00    -0.347 A  
HETATM   14  C   UNL     1     -10.458  18.800  66.170  1.00  0.00    -0.499 A  
HETATM   15  C   UNL     1     -10.158  19.558  67.295  1.00  0.00    -0.405 A  
HETATM   16  C   UNL     1      -9.925  18.949  68.518  1.00  0.00    -0.463 A  
ENDROOT
BRANCH   8  17
HETATM   17  C   UNL     1      -8.006  14.133  67.776  1.00  0.00    -0.175 C  
BRANCH  17  18
HETATM   18  C   UNL     1      -6.999  13.265  68.539  1.00  0.00    -0.103 C  
BRANCH  18  19
HETATM   19  N   UNL     1      -6.675  11.943  68.002  1.00  0.00    -0.066 NA 
HETATM   20  C   UNL     1      -6.700   9.974  69.701  1.00  0.00    -0.068 C  
HETATM   21  C   UNL     1      -5.922  11.021  68.867  1.00  0.00    -0.040 C  
HETATM   22  C   UNL     1      -8.010   9.450  69.075  1.00  0.00    -0.091 C  
HETATM   23  C   UNL     1      -8.741  10.663  68.500  1.00  0.00    -0.141 C  
HETATM   24  C   UNL     1      -7.869  11.310  67.432  1.00  0.00    -0.128 C  
BRANCH  22  25
HETATM   25  N   UNL     1      -7.904   8.350  68.105  1.00  0.00    -0.109 N  
HETATM   26  C   UNL     1      -6.806   8.020  67.274  1.00  0.00    -0.074 C  
HETATM   27  O   UNL     1      -5.706   8.540  67.207  1.00  0.00    -0.038 OA 
HETATM   28  N   UNL     1      -7.205   6.927  66.489  1.00  0.00    -0.071 NA 
HETATM   29  C   UNL     1      -8.510   6.591  66.798  1.00  0.00    -0.113 A  
HETATM   30  C   UNL     1      -9.299   5.601  66.244  1.00  0.00    -0.169 A  
HETATM   31  C   UNL     1     -10.608   5.505  66.706  1.00  0.00    -0.360 A  
HETATM   32  C   UNL     1     -11.088   6.378  67.702  1.00  0.00    -0.388 A  
HETATM   33  C   UNL     1     -10.255   7.353  68.270  1.00  0.00    -0.213 A  
HETATM   34  C   UNL     1      -8.962   7.456  67.791  1.00  0.00    -0.127 A  
ENDBRANCH  22  25
ENDBRANCH  18  19
ENDBRANCH  17  18
ENDBRANCH   8  17
TORSDOF 4
ENDMDL
MODEL       54
REMARK 921   NORMALIZED FREE ENERGY PREDICTED BY IDOCK:   -6.72 KCAL/MOL
REMARK 922        TOTAL FREE ENERGY PREDICTED BY IDOCK:   -9.08 KCAL/MOL
REMARK 923 INTER-LIGAND FREE ENERGY PREDICTED BY IDOCK:   -8.89 KCAL/MOL
REMARK 924 INTRA-LIGAND FREE ENERGY PREDICTED BY IDOCK:   -0.19 KCAL/MOL
REMARK 927      BINDING AFFINITY PREDICTED BY RF-SCORE:    0.00 PKD
ROOT
HETATM    1  F   UNL     1     -12.764  13.007  63.147  1.00  0.00    -0.425 F  
HETATM    2  C   UNL     1     -12.093  13.351  64.254  1.00  0.00    -0.424 A  
HETATM    3  C   UNL     1     -12.776  13.885  65.337  1.00  0.00    -0.525 A  
HETATM    4  C   UNL     1     -12.070  14.260  66.486  1.00  0.00    -0.454 A  
HETATM    5  C   UNL     1     -10.671  14.101  66.565  1.00  0.00    -0.289 A  
HETATM    6  C   UNL     1      -9.912  14.590  67.812  1.00  0.00    -0.225 C  
HETATM    7  C   UNL     1     -10.014  13.555  65.448  1.00  0.00    -0.220 A  
HETATM    8  C   UNL     1      -9.218  13.466  68.641  1.00  0.00     0.001 C  
HETATM    9  C   UNL     1     -10.718  13.181  64.300  1.00  0.00    -0.431 A  
HETATM   10  C   UNL     1      -9.106  15.889  67.654  1.00  0.00    -0.200 A  
HETATM   11  C   UNL     1      -8.981  16.569  66.432  1.00  0.00    -0.340 A  
HETATM   12  F   UNL     1      -7.173  19.556  67.427  1.00  0.00    -0.224 F  
HETATM   13  C   UNL     1      -8.556  16.497  68.798  1.00  0.00    -0.262 A  
HETATM   14  C   UNL     1      -8.317  17.798  66.352  1.00  0.00    -0.281 A  
HETATM   15  C   UNL     1      -7.783  18.366  67.502  1.00  0.00    -0.228 A  
HETATM   16  C   UNL     1      -7.894  17.727  68.726  1.00  0.00    -0.251 A  
ENDROOT
BRANCH   8  17
HETATM   17  C   UNL     1      -8.163  12.546  68.013  1.00  0.00    -0.166 C  
BRANCH  17  18
HETATM   18  C   UNL     1      -8.418  11.035  67.988  1.00  0.00    -0.129 C  
BRANCH  18  19
HETATM   19  N   UNL     1      -9.461  10.491  68.860  1.00  0.00    -0.185 NA 
HETATM   20  C   UNL     1     -10.654   8.338  68.022  1.00  0.00    -0.188 C  
HETATM   21  C   UNL     1     -10.632   9.873  68.220  1.00  0.00    -0.229 C  
HETATM   22  C   UNL     1      -9.909   7.508  69.090  1.00  0.00    -0.170 C  
HETATM   23  C   UNL     1      -8.585   8.224  69.361  1.00  0.00    -0.134 C  
HETATM   24  C   UNL     1      -8.875   9.624  69.888  1.00  0.00    -0.221 C  
BRANCH  22  25
HETATM   25  N   UNL     1     -10.635   7.191  70.329  1.00  0.00    -0.221 N  
HETATM   26  C   UNL     1     -11.560   8.000  71.032  1.00  0.00    -0.283 C  
HETATM   27  O   UNL     1     -11.986   9.106  70.751  1.00  0.00    -0.272 OA 
HETATM   28  N   UNL     1     -11.940   7.281  72.176  1.00  0.00    -0.287 NA 
HETATM   29  C   UNL     1     -11.266   6.075  72.206  1.00  0.00    -0.293 A  
HETATM   30  C   UNL     1     -11.319   5.082  73.166  1.00  0.00    -0.397 A  
HETATM   31  C   UNL     1     -10.495   3.977  72.977  1.00  0.00    -0.250 A  
HETATM   32  C   UNL     1      -9.659   3.885  71.848  1.00  0.00    -0.217 A  
HETATM   33  C   UNL     1      -9.649   4.893  70.872  1.00  0.00    -0.241 A  
HETATM   34  C   UNL     1     -10.455   5.997  71.077  1.00  0.00    -0.229 A  
ENDBRANCH  22  25
ENDBRANCH  18  19
ENDBRANCH  17  18
ENDBRANCH   8  17
TORSDOF 4
ENDMDL
MODEL       55
REMARK 921   NORMALIZED FREE ENERGY PREDICTED BY IDOCK:   -6.68 KCAL/MOL
REMARK 922        TOTAL FREE ENERGY PREDICTED BY IDOCK:   -9.03 KCAL/MOL
REMARK 923 INTER-LIGAND FREE ENERGY PREDICTED BY IDOCK:   -8.31 KCAL/MOL
REMARK 924 INTRA-LIGAND FREE ENERGY PREDICTED BY IDOCK:   -0.72 KCAL/MOL
REMARK 927      BINDING AFFINITY PREDICTED BY RF-SCORE:    0.00 PKD
ROOT
HETATM    1  F   UNL     1      -7.971   2.422  65.073  1.00  0.00    -0.074 F  
HETATM    2  C   UNL     1      -8.023   3.594  65.720  1.00  0.00    -0.093 A  
HETATM    3  C   UNL     1      -7.187   3.822  66.803  1.00  0.00    -0.068 A  
HETATM    4  C   UNL     1      -7.256   5.041  67.488  1.00  0.00    -0.070 A  
HETATM    5  C   UNL     1      -8.162   6.047  67.092  1.00  0.00    -0.105 A  
HETATM    6  C   UNL     1      -8.267   7.348  67.909  1.00  0.00    -0.120 C  
HETATM    7  C   UNL     1      -8.992   5.779  65.990  1.00  0.00    -0.157 A  
HETATM    8  C   UNL     1      -7.841   8.639  67.145  1.00  0.00    -0.097 C  
HETATM    9  C   UNL     1      -8.924   4.562  65.306  1.00  0.00    -0.144 A  
HETATM   10  C   UNL     1      -9.504   7.490  68.809  1.00  0.00    -0.148 A  
HETATM   11  C   UNL     1     -10.540   6.542  68.842  1.00  0.00    -0.280 A  
HETATM   12  F   UNL     1     -12.634   7.827  71.516  1.00  0.00    -0.306 F  
HETATM   13  C   UNL     1      -9.565   8.555  69.728  1.00  0.00    -0.170 A  
HETATM   14  C   UNL     1     -11.603   6.663  69.745  1.00  0.00    -0.354 A  
HETATM   15  C   UNL     1     -11.631   7.730  70.635  1.00  0.00    -0.218 A  
HETATM   16  C   UNL     1     -10.622   8.679  70.634  1.00  0.00    -0.249 A  
ENDROOT
BRANCH   8  17
HETATM   17  C   UNL     1      -8.537   9.065  65.846  1.00  0.00    -0.172 C  
BRANCH  17  18
HETATM   18  C   UNL     1      -9.855   9.843  65.932  1.00  0.00    -0.274 C  
BRANCH  18  19
HETATM   19  N   UNL     1      -9.796  11.283  66.189  1.00  0.00    -0.217 NA 
HETATM   20  C   UNL     1     -12.010  12.604  65.850  1.00  0.00    -0.497 C  
HETATM   21  C   UNL     1     -10.616  12.162  65.341  1.00  0.00    -0.272 C  
HETATM   22  C   UNL     1     -12.154  12.757  67.379  1.00  0.00    -0.158 C  
HETATM   23  C   UNL     1     -11.458  11.551  68.011  1.00  0.00    -0.381 C  
HETATM   24  C   UNL     1      -9.986  11.561  67.616  1.00  0.00    -0.184 C  
BRANCH  22  25
HETATM   25  N   UNL     1     -11.719  14.028  67.976  1.00  0.00    -0.340 N  
HETATM   26  C   UNL     1     -10.992  15.078  67.364  1.00  0.00    -0.315 C  
HETATM   27  O   UNL     1     -10.605  15.180  66.213  1.00  0.00    -0.294 OA 
HETATM   28  N   UNL     1     -10.773  16.051  68.352  1.00  0.00    -0.275 NA 
HETATM   29  C   UNL     1     -11.323  15.624  69.546  1.00  0.00    -0.327 A  
HETATM   30  C   UNL     1     -11.309  16.256  70.775  1.00  0.00    -0.327 A  
HETATM   31  C   UNL     1     -11.899  15.580  71.839  1.00  0.00    -0.514 A  
HETATM   32  C   UNL     1     -12.489  14.315  71.652  1.00  0.00    -0.419 A  
HETATM   33  C   UNL     1     -12.517  13.711  70.386  1.00  0.00    -0.364 A  
HETATM   34  C   UNL     1     -11.911  14.379  69.339  1.00  0.00    -0.325 A  
ENDBRANCH  22  25
ENDBRANCH  18  19
ENDBRANCH  17  18
ENDBRANCH   8  17
TORSDOF 4
ENDMDL
MODEL       56
REMARK 921   NORMALIZED FREE ENERGY PREDICTED BY IDOCK:   -6.66 KCAL/MOL
REMARK 922        TOTAL FREE ENERGY PREDICTED BY IDOCK:   -9.01 KCAL/MOL
REMARK 923 INTER-LIGAND FREE ENERGY PREDICTED BY IDOCK:   -8.86 KCAL/MOL
REMARK 924 INTRA-LIGAND FREE ENERGY PREDICTED BY IDOCK:   -0.15 KCAL/MOL
REMARK 927      BINDING AFFINITY PREDICTED BY RF-SCORE:    0.00 PKD
ROOT
HETATM    1  F   UNL     1     -13.142  15.988  72.015  1.00  0.00    -0.502 F  
HETATM    2  C   UNL     1     -12.397  15.383  71.081  1.00  0.00    -0.385 A  
HETATM    3  C   UNL     1     -11.349  16.068  70.484  1.00  0.00    -0.420 A  
HETATM    4  C   UNL     1     -10.583  15.439  69.495  1.00  0.00    -0.270 A  
HETATM    5  C   UNL     1     -10.857  14.115  69.095  1.00  0.00    -0.254 A  
HETATM    6  C   UNL     1     -10.046  13.476  67.953  1.00  0.00    -0.248 C  
HETATM    7  C   UNL     1     -11.927  13.454  69.722  1.00  0.00    -0.396 A  
HETATM    8  C   UNL     1      -9.176  12.251  68.372  1.00  0.00    -0.145 C  
HETATM    9  C   UNL     1     -12.692  14.081  70.709  1.00  0.00    -0.396 A  
HETATM   10  C   UNL     1     -10.759  13.347  66.598  1.00  0.00    -0.282 A  
HETATM   11  C   UNL     1     -12.103  13.707  66.403  1.00  0.00    -0.478 A  
HETATM   12  F   UNL     1     -12.477  13.258  62.819  1.00  0.00    -0.451 F  
HETATM   13  C   UNL     1     -10.016  12.960  65.467  1.00  0.00    -0.226 A  
HETATM   14  C   UNL     1     -12.686  13.663  65.131  1.00  0.00    -0.443 A  
HETATM   15  C   UNL     1     -11.923  13.271  64.038  1.00  0.00    -0.465 A  
HETATM   16  C   UNL     1     -10.593  12.917  64.193  1.00  0.00    -0.442 A  
ENDROOT
BRANCH   8  17
HETATM   17  C   UNL     1      -9.805  11.003  69.004  1.00  0.00    -0.165 C  
BRANCH  17  18
HETATM   18  C   UNL     1     -10.144   9.808  68.105  1.00  0.00    -0.165 C  
BRANCH  18  19
HETATM   19  N   UNL     1      -9.473   8.533  68.363  1.00  0.00    -0.135 NA 
HETATM   20  C   UNL     1     -10.940   6.649  69.392  1.00  0.00    -0.361 C  
HETATM   21  C   UNL     1      -9.887   7.772  69.552  1.00  0.00    -0.179 C  
HETATM   22  C   UNL     1     -10.935   5.904  68.040  1.00  0.00    -0.155 C  
HETATM   23  C   UNL     1     -10.782   6.967  66.952  1.00  0.00    -0.386 C  
HETATM   24  C   UNL     1      -9.462   7.702  67.154  1.00  0.00    -0.155 C  
BRANCH  22  25
HETATM   25  N   UNL     1      -9.978   4.799  67.879  1.00  0.00    -0.133 N  
HETATM   26  C   UNL     1      -9.080   4.274  68.840  1.00  0.00    -0.128 C  
HETATM   27  O   UNL     1      -8.929   4.587  70.007  1.00  0.00    -0.086 OA 
HETATM   28  N   UNL     1      -8.343   3.266  68.198  1.00  0.00    -0.077 NA 
HETATM   29  C   UNL     1      -8.746   3.172  66.879  1.00  0.00    -0.127 A  
HETATM   30  C   UNL     1      -8.263   2.337  65.889  1.00  0.00    -0.089 A  
HETATM   31  C   UNL     1      -8.814   2.480  64.619  1.00  0.00    -0.113 A  
HETATM   32  C   UNL     1      -9.826   3.428  64.374  1.00  0.00    -0.174 A  
HETATM   33  C   UNL     1     -10.320   4.241  65.406  1.00  0.00    -0.217 A  
HETATM   34  C   UNL     1      -9.752   4.108  66.659  1.00  0.00    -0.211 A  
ENDBRANCH  22  25
ENDBRANCH  18  19
ENDBRANCH  17  18
ENDBRANCH   8  17
TORSDOF 4
ENDMDL
MODEL       57
REMARK 921   NORMALIZED FREE ENERGY PREDICTED BY IDOCK:   -6.64 KCAL/MOL
REMARK 922        TOTAL FREE ENERGY PREDICTED BY IDOCK:   -8.98 KCAL/MOL
REMARK 923 INTER-LIGAND FREE ENERGY PREDICTED BY IDOCK:   -8.55 KCAL/MOL
REMARK 924 INTRA-LIGAND FREE ENERGY PREDICTED BY IDOCK:   -0.43 KCAL/MOL
REMARK 927      BINDING AFFINITY PREDICTED BY RF-SCORE:    0.00 PKD
ROOT
HETATM    1  F   UNL     1     -12.846  13.670  65.800  1.00  0.00    -0.495 F  
HETATM    2  C   UNL     1     -11.870  12.754  65.747  1.00  0.00    -0.434 A  
HETATM    3  C   UNL     1     -11.482  12.229  64.523  1.00  0.00    -0.401 A  
HETATM    4  C   UNL     1     -10.474  11.259  64.472  1.00  0.00    -0.396 A  
HETATM    5  C   UNL     1      -9.842  10.805  65.648  1.00  0.00    -0.299 A  
HETATM    6  C   UNL     1      -8.790   9.684  65.568  1.00  0.00    -0.204 C  
HETATM    7  C   UNL     1     -10.262  11.360  66.869  1.00  0.00    -0.254 A  
HETATM    8  C   UNL     1      -7.348  10.106  65.989  1.00  0.00    -0.118 C  
HETATM    9  C   UNL     1     -11.268  12.329  66.920  1.00  0.00    -0.367 A  
HETATM   10  C   UNL     1      -9.236   8.293  66.045  1.00  0.00    -0.226 A  
HETATM   11  C   UNL     1     -10.501   8.046  66.604  1.00  0.00    -0.199 A  
HETATM   12  F   UNL     1     -10.444   4.436  66.994  1.00  0.00    -0.194 F  
HETATM   13  C   UNL     1      -8.397   7.187  65.814  1.00  0.00    -0.144 A  
HETATM   14  C   UNL     1     -10.902   6.746  66.938  1.00  0.00    -0.402 A  
HETATM   15  C   UNL     1     -10.045   5.680  66.700  1.00  0.00    -0.198 A  
HETATM   16  C   UNL     1      -8.794   5.887  66.143  1.00  0.00    -0.149 A  
ENDROOT
BRANCH   8  17
HETATM   17  C   UNL     1      -7.056  10.668  67.387  1.00  0.00    -0.090 C  
BRANCH  17  18
HETATM   18  C   UNL     1      -6.651   9.701  68.505  1.00  0.00    -0.052 C  
BRANCH  18  19
HETATM   19  N   UNL     1      -7.580   8.629  68.867  1.00  0.00    -0.090 NA 
HETATM   20  C   UNL     1      -7.565   7.887  71.359  1.00  0.00    -0.083 C  
HETATM   21  C   UNL     1      -7.144   7.663  69.887  1.00  0.00    -0.063 C  
HETATM   22  C   UNL     1      -8.929   8.578  71.574  1.00  0.00    -0.213 C  
HETATM   23  C   UNL     1      -9.001   9.733  70.575  1.00  0.00    -0.052 C  
HETATM   24  C   UNL     1      -8.910   9.175  69.160  1.00  0.00    -0.146 C  
BRANCH  22  25
HETATM   25  N   UNL     1     -10.130   7.730  71.535  1.00  0.00    -0.177 N  
HETATM   26  C   UNL     1     -10.213   6.342  71.268  1.00  0.00    -0.200 C  
HETATM   27  O   UNL     1      -9.318   5.543  71.055  1.00  0.00    -0.149 OA 
HETATM   28  N   UNL     1     -11.575   6.004  71.293  1.00  0.00    -0.202 NA 
HETATM   29  C   UNL     1     -12.325   7.137  71.545  1.00  0.00    -0.370 A  
HETATM   30  C   UNL     1     -13.699   7.260  71.623  1.00  0.00    -0.446 A  
HETATM   31  C   UNL     1     -14.207   8.538  71.842  1.00  0.00    -0.536 A  
HETATM   32  C   UNL     1     -13.345   9.642  71.987  1.00  0.00    -0.547 A  
HETATM   33  C   UNL     1     -11.951   9.482  71.936  1.00  0.00    -0.381 A  
HETATM   34  C   UNL     1     -11.456   8.214  71.697  1.00  0.00    -0.274 A  
ENDBRANCH  22  25
ENDBRANCH  18  19
ENDBRANCH  17  18
ENDBRANCH   8  17
TORSDOF 4
ENDMDL
MODEL       58
REMARK 921   NORMALIZED FREE ENERGY PREDICTED BY IDOCK:   -6.63 KCAL/MOL
REMARK 922        TOTAL FREE ENERGY PREDICTED BY IDOCK:   -8.97 KCAL/MOL
REMARK 923 INTER-LIGAND FREE ENERGY PREDICTED BY IDOCK:   -8.75 KCAL/MOL
REMARK 924 INTRA-LIGAND FREE ENERGY PREDICTED BY IDOCK:   -0.21 KCAL/MOL
REMARK 927      BINDING AFFINITY PREDICTED BY RF-SCORE:    0.00 PKD
ROOT
HETATM    1  F   UNL     1     -11.769  16.620  63.866  1.00  0.00    -0.287 F  
HETATM    2  C   UNL     1     -11.637  15.515  64.611  1.00  0.00    -0.281 A  
HETATM    3  C   UNL     1     -12.552  14.481  64.481  1.00  0.00    -0.207 A  
HETATM    4  C   UNL     1     -12.421  13.335  65.274  1.00  0.00    -0.543 A  
HETATM    5  C   UNL     1     -11.369  13.210  66.204  1.00  0.00    -0.343 A  
HETATM    6  C   UNL     1     -11.293  11.971  67.115  1.00  0.00    -0.396 C  
HETATM    7  C   UNL     1     -10.461  14.278  66.307  1.00  0.00    -0.291 A  
HETATM    8  C   UNL     1     -10.044  11.065  66.887  1.00  0.00    -0.248 C  
HETATM    9  C   UNL     1     -10.591  15.423  65.516  1.00  0.00    -0.400 A  
HETATM   10  C   UNL     1     -11.703  12.175  68.581  1.00  0.00    -0.382 A  
HETATM   11  C   UNL     1     -12.051  13.429  69.111  1.00  0.00    -0.306 A  
HETATM   12  F   UNL     1     -13.102  12.545  72.473  1.00  0.00    -0.504 F  
HETATM   13  C   UNL     1     -11.849  11.051  69.415  1.00  0.00    -0.407 A  
HETATM   14  C   UNL     1     -12.509  13.555  70.428  1.00  0.00    -0.345 A  
HETATM   15  C   UNL     1     -12.637  12.423  71.223  1.00  0.00    -0.230 A  
HETATM   16  C   UNL     1     -12.309  11.171  70.731  1.00  0.00    -0.504 A  
ENDROOT
BRANCH   8  17
HETATM   17  C   UNL     1      -8.620  11.614  67.040  1.00  0.00    -0.169 C  
BRANCH  17  18
HETATM   18  C   UNL     1      -7.934  11.524  68.408  1.00  0.00    -0.143 C  
BRANCH  18  19
HETATM   19  N   UNL     1      -7.598  12.769  69.100  1.00  0.00     0.158 NA 
HETATM   20  C   UNL     1      -5.297  13.827  68.514  1.00  0.00    -0.094 C  
HETATM   21  C   UNL     1      -6.190  12.991  69.462  1.00  0.00    -0.117 C  
HETATM   22  C   UNL     1      -6.011  14.945  67.724  1.00  0.00    -0.112 C  
HETATM   23  C   UNL     1      -7.323  14.353  67.211  1.00  0.00    -0.070 C  
HETATM   24  C   UNL     1      -8.174  13.922  68.399  1.00  0.00    -0.153 C  
BRANCH  22  25
HETATM   25  N   UNL     1      -6.207  16.234  68.403  1.00  0.00    -0.116 N  
HETATM   26  C   UNL     1      -5.826  16.598  69.717  1.00  0.00    -0.206 C  
HETATM   27  O   UNL     1      -5.223  15.947  70.553  1.00  0.00    -0.152 OA 
HETATM   28  N   UNL     1      -6.276  17.911  69.923  1.00  0.00    -0.170 NA 
HETATM   29  C   UNL     1      -6.933  18.354  68.790  1.00  0.00    -0.277 A  
HETATM   30  C   UNL     1      -7.556  19.569  68.575  1.00  0.00    -0.378 A  
HETATM   31  C   UNL     1      -8.193  19.743  67.350  1.00  0.00    -0.342 A  
HETATM   32  C   UNL     1      -8.184  18.722  66.380  1.00  0.00    -0.299 A  
HETATM   33  C   UNL     1      -7.516  17.510  66.613  1.00  0.00    -0.280 A  
HETATM   34  C   UNL     1      -6.904  17.336  67.840  1.00  0.00    -0.162 A  
ENDBRANCH  22  25
ENDBRANCH  18  19
ENDBRANCH  17  18
ENDBRANCH   8  17
TORSDOF 4
ENDMDL
MODEL       59
REMARK 921   NORMALIZED FREE ENERGY PREDICTED BY IDOCK:   -6.62 KCAL/MOL
REMARK 922        TOTAL FREE ENERGY PREDICTED BY IDOCK:   -8.96 KCAL/MOL
REMARK 923 INTER-LIGAND FREE ENERGY PREDICTED BY IDOCK:   -8.11 KCAL/MOL
REMARK 924 INTRA-LIGAND FREE ENERGY PREDICTED BY IDOCK:   -0.84 KCAL/MOL
REMARK 927      BINDING AFFINITY PREDICTED BY RF-SCORE:    0.00 PKD
ROOT
HETATM    1  F   UNL     1      -7.644   6.730  72.549  1.00  0.00    -0.092 F  
HETATM    2  C   UNL     1      -8.363   7.329  71.591  1.00  0.00    -0.108 A  
HETATM    3  C   UNL     1      -9.187   6.571  70.772  1.00  0.00    -0.156 A  
HETATM    4  C   UNL     1      -9.924   7.197  69.759  1.00  0.00    -0.180 A  
HETATM    5  C   UNL     1      -9.846   8.590  69.558  1.00  0.00    -0.187 A  
HETATM    6  C   UNL     1     -10.609   9.240  68.390  1.00  0.00    -0.234 C  
HETATM    7  C   UNL     1      -9.000   9.324  70.407  1.00  0.00    -0.278 A  
HETATM    8  C   UNL     1     -11.732  10.237  68.814  1.00  0.00    -0.021 C  
HETATM    9  C   UNL     1      -8.264   8.700  71.418  1.00  0.00    -0.205 A  
HETATM   10  C   UNL     1      -9.768   9.669  67.178  1.00  0.00    -0.222 A  
HETATM   11  C   UNL     1      -8.368   9.563  67.143  1.00  0.00    -0.131 A  
HETATM   12  F   UNL     1      -7.636  10.558  63.728  1.00  0.00    -0.143 F  
HETATM   13  C   UNL     1     -10.421  10.082  66.002  1.00  0.00    -0.145 A  
HETATM   14  C   UNL     1      -7.648   9.877  65.984  1.00  0.00    -0.106 A  
HETATM   15  C   UNL     1      -8.326  10.286  64.843  1.00  0.00    -0.172 A  
HETATM   16  C   UNL     1      -9.707  10.394  64.840  1.00  0.00    -0.372 A  
ENDROOT
BRANCH   8  17
HETATM   17  C   UNL     1     -11.421  11.472  69.669  1.00  0.00    -0.373 C  
BRANCH  17  18
HETATM   18  C   UNL     1     -11.619  12.865  69.060  1.00  0.00    -0.322 C  
BRANCH  18  19
HETATM   19  N   UNL     1     -10.456  13.747  68.952  1.00  0.00    -0.210 NA 
HETATM   20  C   UNL     1      -9.061  13.547  66.767  1.00  0.00    -0.223 C  
HETATM   21  C   UNL     1      -9.264  13.225  68.267  1.00  0.00    -0.197 C  
HETATM   22  C   UNL     1      -9.616  14.905  66.287  1.00  0.00    -0.307 C  
HETATM   23  C   UNL     1     -10.998  15.067  66.921  1.00  0.00    -0.324 C  
HETATM   24  C   UNL     1     -10.853  15.063  68.438  1.00  0.00    -0.256 C  
BRANCH  22  25
HETATM   25  N   UNL     1      -8.770  16.091  66.484  1.00  0.00    -0.272 N  
HETATM   26  C   UNL     1      -7.410  16.139  66.877  1.00  0.00    -0.220 C  
HETATM   27  O   UNL     1      -6.638  15.222  67.097  1.00  0.00    -0.292 OA 
HETATM   28  N   UNL     1      -7.064  17.496  66.978  1.00  0.00    -0.168 NA 
HETATM   29  C   UNL     1      -8.166  18.274  66.679  1.00  0.00    -0.262 A  
HETATM   30  C   UNL     1      -8.275  19.652  66.687  1.00  0.00    -0.342 A  
HETATM   31  C   UNL     1      -9.525  20.188  66.392  1.00  0.00    -0.479 A  
HETATM   32  C   UNL     1     -10.617  19.350  66.090  1.00  0.00    -0.571 A  
HETATM   33  C   UNL     1     -10.469  17.955  66.058  1.00  0.00    -0.293 A  
HETATM   34  C   UNL     1      -9.230  17.430  66.373  1.00  0.00    -0.249 A  
ENDBRANCH  22  25
ENDBRANCH  18  19
ENDBRANCH  17  18
ENDBRANCH   8  17
TORSDOF 4
ENDMDL
MODEL       60
REMARK 921   NORMALIZED FREE ENERGY PREDICTED BY IDOCK:   -6.62 KCAL/MOL
REMARK 922        TOTAL FREE ENERGY PREDICTED BY IDOCK:   -8.95 KCAL/MOL
REMARK 923 INTER-LIGAND FREE ENERGY PREDICTED BY IDOCK:   -9.21 KCAL/MOL
REMARK 924 INTRA-LIGAND FREE ENERGY PREDICTED BY IDOCK:    0.26 KCAL/MOL
REMARK 927      BINDING AFFINITY PREDICTED BY RF-SCORE:    0.00 PKD
ROOT
HETATM    1  F   UNL     1      -8.130  20.712  67.706  1.00  0.00    -0.309 F  
HETATM    2  C   UNL     1      -8.827  19.569  67.729  1.00  0.00    -0.318 A  
HETATM    3  C   UNL     1     -10.161  19.567  67.348  1.00  0.00    -0.525 A  
HETATM    4  C   UNL     1     -10.892  18.373  67.389  1.00  0.00    -0.306 A  
HETATM    5  C   UNL     1     -10.294  17.168  67.810  1.00  0.00    -0.347 A  
HETATM    6  C   UNL     1     -11.142  15.887  67.916  1.00  0.00    -0.317 C  
HETATM    7  C   UNL     1      -8.940  17.210  68.188  1.00  0.00    -0.240 A  
HETATM    8  C   UNL     1     -10.728  14.744  66.939  1.00  0.00    -0.308 C  
HETATM    9  C   UNL     1      -8.210  18.401  68.147  1.00  0.00    -0.303 A  
HETATM   10  C   UNL     1     -11.526  15.439  69.334  1.00  0.00    -0.335 A  
HETATM   11  C   UNL     1     -11.074  16.092  70.492  1.00  0.00    -0.338 A  
HETATM   12  F   UNL     1     -12.894  14.329  73.093  1.00  0.00    -0.516 F  
HETATM   13  C   UNL     1     -12.461  14.399  69.494  1.00  0.00    -0.164 A  
HETATM   14  C   UNL     1     -11.525  15.708  71.761  1.00  0.00    -0.505 A  
HETATM   15  C   UNL     1     -12.444  14.674  71.880  1.00  0.00    -0.341 A  
HETATM   16  C   UNL     1     -12.916  14.013  70.758  1.00  0.00    -0.298 A  
ENDROOT
BRANCH   8  17
HETATM   17  C   UNL     1      -9.314  14.148  66.960  1.00  0.00    -0.253 C  
BRANCH  17  18
HETATM   18  C   UNL     1      -8.822  13.452  68.234  1.00  0.00    -0.172 C  
BRANCH  18  19
HETATM   19  N   UNL     1      -8.691  11.994  68.223  1.00  0.00    -0.179 NA 
HETATM   20  C   UNL     1     -10.820  10.654  67.565  1.00  0.00    -0.351 C  
HETATM   21  C   UNL     1      -9.856  11.201  68.646  1.00  0.00    -0.202 C  
HETATM   22  C   UNL     1     -10.181  10.306  66.204  1.00  0.00    -0.217 C  
HETATM   23  C   UNL     1      -9.222  11.445  65.862  1.00  0.00    -0.231 C  
HETATM   24  C   UNL     1      -8.149  11.534  66.941  1.00  0.00    -0.164 C  
BRANCH  22  25
HETATM   25  N   UNL     1      -9.549   8.985  66.070  1.00  0.00    -0.267 N  
HETATM   26  C   UNL     1      -8.602   8.562  65.105  1.00  0.00    -0.152 C  
HETATM   27  O   UNL     1      -8.077   9.199  64.209  1.00  0.00    -0.131 OA 
HETATM   28  N   UNL     1      -8.342   7.207  65.359  1.00  0.00    -0.136 NA 
HETATM   29  C   UNL     1      -9.108   6.784  66.429  1.00  0.00    -0.152 A  
HETATM   30  C   UNL     1      -9.184   5.522  66.989  1.00  0.00    -0.116 A  
HETATM   31  C   UNL     1     -10.080   5.352  68.040  1.00  0.00    -0.224 A  
HETATM   32  C   UNL     1     -10.860   6.428  68.506  1.00  0.00    -0.382 A  
HETATM   33  C   UNL     1     -10.738   7.706  67.940  1.00  0.00    -0.176 A  
HETATM   34  C   UNL     1      -9.861   7.863  66.883  1.00  0.00    -0.239 A  
ENDBRANCH  22  25
ENDBRANCH  18  19
ENDBRANCH  17  18
ENDBRANCH   8  17
TORSDOF 4
ENDMDL
MODEL       61
REMARK 921   NORMALIZED FREE ENERGY PREDICTED BY IDOCK:   -6.62 KCAL/MOL
REMARK 922        TOTAL FREE ENERGY PREDICTED BY IDOCK:   -8.95 KCAL/MOL
REMARK 923 INTER-LIGAND FREE ENERGY PREDICTED BY IDOCK:   -8.11 KCAL/MOL
REMARK 924 INTRA-LIGAND FREE ENERGY PREDICTED BY IDOCK:   -0.84 KCAL/MOL
REMARK 927      BINDING AFFINITY PREDICTED BY RF-SCORE:    0.00 PKD
ROOT
HETATM    1  F   UNL     1     -13.136  15.896  74.417  1.00  0.00    -0.487 F  
HETATM    2  C   UNL     1     -12.914  15.696  73.111  1.00  0.00    -0.535 A  
HETATM    3  C   UNL     1     -13.987  15.554  72.243  1.00  0.00    -0.642 A  
HETATM    4  C   UNL     1     -13.752  15.328  70.881  1.00  0.00    -0.363 A  
HETATM    5  C   UNL     1     -12.439  15.244  70.374  1.00  0.00    -0.426 A  
HETATM    6  C   UNL     1     -12.211  14.921  68.886  1.00  0.00    -0.143 C  
HETATM    7  C   UNL     1     -11.378  15.393  71.284  1.00  0.00    -0.441 A  
HETATM    8  C   UNL     1     -11.531  16.059  68.064  1.00  0.00    -0.199 C  
HETATM    9  C   UNL     1     -11.612  15.619  72.643  1.00  0.00    -0.484 A  
HETATM   10  C   UNL     1     -11.735  13.497  68.562  1.00  0.00    -0.392 A  
HETATM   11  C   UNL     1     -11.436  12.546  69.552  1.00  0.00    -0.299 A  
HETATM   12  F   UNL     1     -10.772   9.585  67.557  1.00  0.00    -0.299 F  
HETATM   13  C   UNL     1     -11.701  13.074  67.220  1.00  0.00    -0.429 A  
HETATM   14  C   UNL     1     -11.097  11.231  69.212  1.00  0.00    -0.314 A  
HETATM   15  C   UNL     1     -11.069  10.851  67.876  1.00  0.00    -0.302 A  
HETATM   16  C   UNL     1     -11.366  11.761  66.875  1.00  0.00    -0.386 A  
ENDROOT
BRANCH   8  17
HETATM   17  C   UNL     1     -10.150  16.605  68.448  1.00  0.00    -0.268 C  
BRANCH  17  18
HETATM   18  C   UNL     1      -8.900  15.947  67.853  1.00  0.00    -0.179 C  
BRANCH  18  19
HETATM   19  N   UNL     1      -8.639  14.541  68.166  1.00  0.00    -0.162 NA 
HETATM   20  C   UNL     1      -6.261  13.658  67.594  1.00  0.00    -0.129 C  
HETATM   21  C   UNL     1      -7.765  13.789  67.252  1.00  0.00    -0.076 C  
HETATM   22  C   UNL     1      -5.911  13.627  69.097  1.00  0.00    -0.084 C  
HETATM   23  C   UNL     1      -6.754  14.710  69.770  1.00  0.00    -0.165 C  
HETATM   24  C   UNL     1      -8.230  14.391  69.566  1.00  0.00     0.316 C  
BRANCH  22  25
HETATM   25  N   UNL     1      -6.009  12.333  69.789  1.00  0.00    -0.124 N  
HETATM   26  C   UNL     1      -5.625  12.020  71.116  1.00  0.00     0.044 C  
HETATM   27  O   UNL     1      -5.171  12.749  71.980  1.00  0.00    -0.353 OA 
HETATM   28  N   UNL     1      -5.866  10.649  71.295  1.00  0.00    -0.335 NA 
HETATM   29  C   UNL     1      -6.365  10.113  70.122  1.00  0.00    -0.107 A  
HETATM   30  C   UNL     1      -6.706   8.801  69.851  1.00  0.00    -0.045 A  
HETATM   31  C   UNL     1      -7.142   8.516  68.561  1.00  0.00    -0.073 A  
HETATM   32  C   UNL     1      -7.236   9.532  67.590  1.00  0.00    -0.082 A  
HETATM   33  C   UNL     1      -6.913  10.861  67.902  1.00  0.00    -0.073 A  
HETATM   34  C   UNL     1      -6.461  11.133  69.179  1.00  0.00    -0.074 A  
ENDBRANCH  22  25
ENDBRANCH  18  19
ENDBRANCH  17  18
ENDBRANCH   8  17
TORSDOF 4
ENDMDL
MODEL       62
REMARK 921   NORMALIZED FREE ENERGY PREDICTED BY IDOCK:   -6.59 KCAL/MOL
REMARK 922        TOTAL FREE ENERGY PREDICTED BY IDOCK:   -8.91 KCAL/MOL
REMARK 923 INTER-LIGAND FREE ENERGY PREDICTED BY IDOCK:   -8.52 KCAL/MOL
REMARK 924 INTRA-LIGAND FREE ENERGY PREDICTED BY IDOCK:   -0.39 KCAL/MOL
REMARK 927      BINDING AFFINITY PREDICTED BY RF-SCORE:    0.00 PKD
ROOT
HETATM    1  F   UNL     1     -13.224  16.185  72.090  1.00  0.00    -0.495 F  
HETATM    2  C   UNL     1     -12.522  15.469  71.201  1.00  0.00    -0.432 A  
HETATM    3  C   UNL     1     -11.331  15.971  70.697  1.00  0.00    -0.424 A  
HETATM    4  C   UNL     1     -10.609  15.227  69.756  1.00  0.00    -0.293 A  
HETATM    5  C   UNL     1     -11.071  13.971  69.312  1.00  0.00    -0.271 A  
HETATM    6  C   UNL     1     -10.294  13.211  68.221  1.00  0.00    -0.256 C  
HETATM    7  C   UNL     1     -12.281  13.496  69.846  1.00  0.00    -0.356 A  
HETATM    8  C   UNL     1      -9.677  11.854  68.681  1.00  0.00    -0.116 C  
HETATM    9  C   UNL     1     -13.003  14.238  70.785  1.00  0.00    -0.368 A  
HETATM   10  C   UNL     1     -10.913  13.213  66.815  1.00  0.00    -0.298 A  
HETATM   11  C   UNL     1     -12.159  13.796  66.528  1.00  0.00    -0.483 A  
HETATM   12  F   UNL     1     -12.329  13.437  62.918  1.00  0.00    -0.575 F  
HETATM   13  C   UNL     1     -10.162  12.712  65.735  1.00  0.00    -0.288 A  
HETATM   14  C   UNL     1     -12.643  13.858  65.216  1.00  0.00    -0.508 A  
HETATM   15  C   UNL     1     -11.875  13.350  64.175  1.00  0.00    -0.442 A  
HETATM   16  C   UNL     1     -10.639  12.774  64.422  1.00  0.00    -0.402 A  
ENDROOT
BRANCH   8  17
HETATM   17  C   UNL     1     -10.553  10.727  69.240  1.00  0.00    -0.261 C  
BRANCH  17  18
HETATM   18  C   UNL     1      -9.881   9.445  69.744  1.00  0.00    -0.201 C  
BRANCH  18  19
HETATM   19  N   UNL     1     -10.157   8.192  69.040  1.00  0.00    -0.200 NA 
HETATM   20  C   UNL     1      -9.631   8.164  66.493  1.00  0.00    -0.303 C  
HETATM   21  C   UNL     1     -10.647   8.280  67.656  1.00  0.00    -0.194 C  
HETATM   22  C   UNL     1      -8.405   7.263  66.755  1.00  0.00    -0.119 C  
HETATM   23  C   UNL     1      -7.915   7.585  68.167  1.00  0.00    -0.123 C  
HETATM   24  C   UNL     1      -9.024   7.269  69.164  1.00  0.00    -0.135 C  
BRANCH  22  25
HETATM   25  N   UNL     1      -8.567   5.818  66.536  1.00  0.00    -0.119 N  
HETATM   26  C   UNL     1      -9.768   5.091  66.353  1.00  0.00    -0.182 C  
HETATM   27  O   UNL     1     -10.915   5.498  66.296  1.00  0.00    -0.193 OA 
HETATM   28  N   UNL     1      -9.410   3.739  66.236  1.00  0.00    -0.172 NA 
HETATM   29  C   UNL     1      -8.039   3.614  66.359  1.00  0.00    -0.099 A  
HETATM   30  C   UNL     1      -7.273   2.464  66.336  1.00  0.00    -0.061 A  
HETATM   31  C   UNL     1      -5.904   2.614  66.535  1.00  0.00    -0.023 A  
HETATM   32  C   UNL     1      -5.339   3.887  66.737  1.00  0.00    -0.013 A  
HETATM   33  C   UNL     1      -6.136   5.042  66.723  1.00  0.00    -0.031 A  
HETATM   34  C   UNL     1      -7.498   4.883  66.546  1.00  0.00    -0.087 A  
ENDBRANCH  22  25
ENDBRANCH  18  19
ENDBRANCH  17  18
ENDBRANCH   8  17
TORSDOF 4
ENDMDL
MODEL       63
REMARK 921   NORMALIZED FREE ENERGY PREDICTED BY IDOCK:   -6.55 KCAL/MOL
REMARK 922        TOTAL FREE ENERGY PREDICTED BY IDOCK:   -8.87 KCAL/MOL
REMARK 923 INTER-LIGAND FREE ENERGY PREDICTED BY IDOCK:   -8.39 KCAL/MOL
REMARK 924 INTRA-LIGAND FREE ENERGY PREDICTED BY IDOCK:   -0.48 KCAL/MOL
REMARK 927      BINDING AFFINITY PREDICTED BY RF-SCORE:    0.00 PKD
ROOT
HETATM    1  F   UNL     1      -5.423  13.385  70.235  1.00  0.00    -0.093 F  
HETATM    2  C   UNL     1      -6.266  13.946  69.358  1.00  0.00    -0.106 A  
HETATM    3  C   UNL     1      -5.795  14.381  68.128  1.00  0.00    -0.135 A  
HETATM    4  C   UNL     1      -6.675  14.982  67.220  1.00  0.00     0.015 A  
HETATM    5  C   UNL     1      -8.039  15.153  67.535  1.00  0.00    -0.196 A  
HETATM    6  C   UNL     1      -8.967  15.885  66.548  1.00  0.00    -0.331 C  
HETATM    7  C   UNL     1      -8.479  14.700  68.790  1.00  0.00    -0.161 A  
HETATM    8  C   UNL     1     -10.107  15.006  65.945  1.00  0.00    -0.343 C  
HETATM    9  C   UNL     1      -7.601  14.099  69.696  1.00  0.00     0.315 A  
HETATM   10  C   UNL     1      -9.367  17.319  66.923  1.00  0.00    -0.264 A  
HETATM   11  C   UNL     1      -8.990  17.928  68.132  1.00  0.00    -0.268 A  
HETATM   12  F   UNL     1     -10.235  21.309  67.679  1.00  0.00    -0.355 F  
HETATM   13  C   UNL     1     -10.044  18.112  65.977  1.00  0.00    -0.272 A  
HETATM   14  C   UNL     1      -9.296  19.269  68.393  1.00  0.00    -0.422 A  
HETATM   15  C   UNL     1      -9.970  20.019  67.437  1.00  0.00    -0.433 A  
HETATM   16  C   UNL     1     -10.349  19.453  66.231  1.00  0.00    -0.584 A  
ENDROOT
BRANCH   8  17
HETATM   17  C   UNL     1     -11.140  14.312  66.842  1.00  0.00    -0.315 C  
BRANCH  17  18
HETATM   18  C   UNL     1     -12.074  13.266  66.225  1.00  0.00    -0.414 C  
BRANCH  18  19
HETATM   19  N   UNL     1     -11.732  11.851  66.380  1.00  0.00    -0.541 NA 
HETATM   20  C   UNL     1      -9.255  11.325  66.973  1.00  0.00    -0.173 C  
HETATM   21  C   UNL     1     -10.399  11.418  65.934  1.00  0.00    -0.250 C  
HETATM   22  C   UNL     1      -9.677  10.953  68.411  1.00  0.00    -0.176 C  
HETATM   23  C   UNL     1     -10.931  11.768  68.727  1.00  0.00    -0.281 C  
HETATM   24  C   UNL     1     -12.031  11.393  67.741  1.00  0.00     0.005 C  
BRANCH  22  25
HETATM   25  N   UNL     1      -9.847   9.525  68.718  1.00  0.00    -0.164 N  
HETATM   26  C   UNL     1      -9.428   8.410  67.952  1.00  0.00    -0.146 C  
HETATM   27  O   UNL     1      -8.808   8.383  66.904  1.00  0.00    -0.135 OA 
HETATM   28  N   UNL     1      -9.864   7.263  68.634  1.00  0.00    -0.157 NA 
HETATM   29  C   UNL     1     -10.548   7.638  69.775  1.00  0.00    -0.244 A  
HETATM   30  C   UNL     1     -11.168   6.833  70.712  1.00  0.00    -0.352 A  
HETATM   31  C   UNL     1     -11.836   7.473  71.751  1.00  0.00    -0.327 A  
HETATM   32  C   UNL     1     -11.860   8.879  71.836  1.00  0.00    -0.440 A  
HETATM   33  C   UNL     1     -11.195   9.671  70.888  1.00  0.00    -0.422 A  
HETATM   34  C   UNL     1     -10.551   9.028  69.847  1.00  0.00    -0.228 A  
ENDBRANCH  22  25
ENDBRANCH  18  19
ENDBRANCH  17  18
ENDBRANCH   8  17
TORSDOF 4
ENDMDL
MODEL       64
REMARK 921   NORMALIZED FREE ENERGY PREDICTED BY IDOCK:   -6.54 KCAL/MOL
REMARK 922        TOTAL FREE ENERGY PREDICTED BY IDOCK:   -8.86 KCAL/MOL
REMARK 923 INTER-LIGAND FREE ENERGY PREDICTED BY IDOCK:   -8.26 KCAL/MOL
REMARK 924 INTRA-LIGAND FREE ENERGY PREDICTED BY IDOCK:   -0.60 KCAL/MOL
REMARK 927      BINDING AFFINITY PREDICTED BY RF-SCORE:    0.00 PKD
ROOT
HETATM    1  F   UNL     1     -14.157   9.764  72.519  1.00  0.00    -0.384 F  
HETATM    2  C   UNL     1     -13.211   8.988  71.975  1.00  0.00    -0.429 A  
HETATM    3  C   UNL     1     -13.518   7.690  71.594  1.00  0.00    -0.415 A  
HETATM    4  C   UNL     1     -12.523   6.875  71.041  1.00  0.00    -0.364 A  
HETATM    5  C   UNL     1     -11.209   7.354  70.861  1.00  0.00    -0.292 A  
HETATM    6  C   UNL     1     -10.118   6.412  70.320  1.00  0.00    -0.216 C  
HETATM    7  C   UNL     1     -10.936   8.674  71.258  1.00  0.00    -0.333 A  
HETATM    8  C   UNL     1      -9.531   6.816  68.932  1.00  0.00    -0.128 C  
HETATM    9  C   UNL     1     -11.929   9.488  71.810  1.00  0.00    -0.443 A  
HETATM   10  C   UNL     1      -9.096   5.892  71.342  1.00  0.00    -0.148 A  
HETATM   11  C   UNL     1      -9.083   6.300  72.686  1.00  0.00    -0.136 A  
HETATM   12  F   UNL     1      -6.493   4.170  74.081  1.00  0.00    -0.039 F  
HETATM   13  C   UNL     1      -8.200   4.876  70.960  1.00  0.00    -0.104 A  
HETATM   14  C   UNL     1      -8.195   5.730  73.607  1.00  0.00    -0.111 A  
HETATM   15  C   UNL     1      -7.321   4.733  73.192  1.00  0.00    -0.082 A  
HETATM   16  C   UNL     1      -7.312   4.301  71.876  1.00  0.00    -0.068 A  
ENDROOT
BRANCH   8  17
HETATM   17  C   UNL     1      -8.860   8.179  68.715  1.00  0.00    -0.138 C  
BRANCH  17  18
HETATM   18  C   UNL     1      -8.693   8.704  67.285  1.00  0.00    -0.129 C  
BRANCH  18  19
HETATM   19  N   UNL     1      -9.606   9.748  66.817  1.00  0.00    -0.169 NA 
HETATM   20  C   UNL     1     -10.745  11.190  68.657  1.00  0.00    -0.234 C  
HETATM   21  C   UNL     1     -10.797  10.030  67.632  1.00  0.00    -0.278 C  
HETATM   22  C   UNL     1      -9.845  12.386  68.278  1.00  0.00    -0.224 C  
HETATM   23  C   UNL     1      -8.547  11.802  67.720  1.00  0.00    -0.151 C  
HETATM   24  C   UNL     1      -8.865  10.970  66.484  1.00  0.00    -0.169 C  
BRANCH  22  25
HETATM   25  N   UNL     1     -10.419  13.413  67.397  1.00  0.00    -0.243 N  
HETATM   26  C   UNL     1     -11.481  13.275  66.470  1.00  0.00    -0.337 C  
HETATM   27  O   UNL     1     -12.172  12.302  66.227  1.00  0.00    -0.628 OA 
HETATM   28  N   UNL     1     -11.626  14.517  65.832  1.00  0.00    -0.353 NA 
HETATM   29  C   UNL     1     -10.682  15.399  66.323  1.00  0.00    -0.312 A  
HETATM   30  C   UNL     1     -10.453  16.711  65.952  1.00  0.00    -0.324 A  
HETATM   31  C   UNL     1      -9.396  17.368  66.575  1.00  0.00    -0.288 A  
HETATM   32  C   UNL     1      -8.612  16.715  67.545  1.00  0.00    -0.199 A  
HETATM   33  C   UNL     1      -8.888  15.393  67.926  1.00  0.00    -0.168 A  
HETATM   34  C   UNL     1      -9.926  14.740  67.288  1.00  0.00    -0.231 A  
ENDBRANCH  22  25
ENDBRANCH  18  19
ENDBRANCH  17  18
ENDBRANCH   8  17
TORSDOF 4
ENDMDL
MODEL       65
REMARK 921   NORMALIZED FREE ENERGY PREDICTED BY IDOCK:   -6.54 KCAL/MOL
REMARK 922        TOTAL FREE ENERGY PREDICTED BY IDOCK:   -8.85 KCAL/MOL
REMARK 923 INTER-LIGAND FREE ENERGY PREDICTED BY IDOCK:   -8.54 KCAL/MOL
REMARK 924 INTRA-LIGAND FREE ENERGY PREDICTED BY IDOCK:   -0.32 KCAL/MOL
REMARK 927      BINDING AFFINITY PREDICTED BY RF-SCORE:    0.00 PKD
ROOT
HETATM    1  F   UNL     1     -14.217  13.421  72.566  1.00  0.00    -0.605 F  
HETATM    2  C   UNL     1     -13.384  13.792  71.585  1.00  0.00    -0.354 A  
HETATM    3  C   UNL     1     -13.346  15.117  71.176  1.00  0.00    -0.535 A  
HETATM    4  C   UNL     1     -12.486  15.499  70.139  1.00  0.00    -0.351 A  
HETATM    5  C   UNL     1     -11.653  14.556  69.501  1.00  0.00    -0.350 A  
HETATM    6  C   UNL     1     -10.774  14.990  68.314  1.00  0.00    -0.253 C  
HETATM    7  C   UNL     1     -11.720  13.224  69.943  1.00  0.00    -0.330 A  
HETATM    8  C   UNL     1      -9.237  14.890  68.565  1.00  0.00    -0.192 C  
HETATM    9  C   UNL     1     -12.577  12.842  70.978  1.00  0.00    -0.376 A  
HETATM   10  C   UNL     1     -11.246  14.553  66.919  1.00  0.00    -0.340 A  
HETATM   11  C   UNL     1     -12.367  13.733  66.713  1.00  0.00    -0.365 A  
HETATM   12  F   UNL     1     -12.610  13.708  63.090  1.00  0.00    -0.482 F  
HETATM   13  C   UNL     1     -10.605  15.081  65.782  1.00  0.00    -0.351 A  
HETATM   14  C   UNL     1     -12.819  13.436  65.421  1.00  0.00    -0.388 A  
HETATM   15  C   UNL     1     -12.158  13.971  64.322  1.00  0.00    -0.445 A  
HETATM   16  C   UNL     1     -11.053  14.790  64.490  1.00  0.00    -0.260 A  
ENDROOT
BRANCH   8  17
HETATM   17  C   UNL     1      -8.574  13.556  68.934  1.00  0.00     0.209 C  
BRANCH  17  18
HETATM   18  C   UNL     1      -7.953  12.704  67.822  1.00  0.00    -0.158 C  
BRANCH  18  19
HETATM   19  N   UNL     1      -8.640  11.475  67.423  1.00  0.00    -0.141 NA 
HETATM   20  C   UNL     1      -7.254   9.280  67.579  1.00  0.00    -0.080 C  
HETATM   21  C   UNL     1      -7.847  10.440  66.742  1.00  0.00    -0.117 C  
HETATM   22  C   UNL     1      -8.077   8.847  68.811  1.00  0.00    -0.114 C  
HETATM   23  C   UNL     1      -8.541  10.128  69.504  1.00  0.00    -0.177 C  
HETATM   24  C   UNL     1      -9.412  10.927  68.543  1.00  0.00    -0.185 C  
BRANCH  22  25
HETATM   25  N   UNL     1      -9.180   7.901  68.590  1.00  0.00    -0.143 N  
HETATM   26  C   UNL     1     -10.309   7.667  69.412  1.00  0.00    -0.214 C  
HETATM   27  O   UNL     1     -10.636   8.217  70.449  1.00  0.00    -0.215 OA 
HETATM   28  N   UNL     1     -11.046   6.638  68.807  1.00  0.00    -0.252 NA 
HETATM   29  C   UNL     1     -10.399   6.224  67.658  1.00  0.00    -0.195 A  
HETATM   30  C   UNL     1     -10.760   5.218  66.780  1.00  0.00    -0.241 A  
HETATM   31  C   UNL     1      -9.897   4.969  65.717  1.00  0.00    -0.150 A  
HETATM   32  C   UNL     1      -8.719   5.724  65.551  1.00  0.00    -0.141 A  
HETATM   33  C   UNL     1      -8.394   6.760  66.440  1.00  0.00    -0.121 A  
HETATM   34  C   UNL     1      -9.245   6.988  67.505  1.00  0.00    -0.124 A  
ENDBRANCH  22  25
ENDBRANCH  18  19
ENDBRANCH  17  18
ENDBRANCH   8  17
TORSDOF 4
ENDMDL
MODEL       66
REMARK 921   NORMALIZED FREE ENERGY PREDICTED BY IDOCK:   -6.52 KCAL/MOL
REMARK 922        TOTAL FREE ENERGY PREDICTED BY IDOCK:   -8.83 KCAL/MOL
REMARK 923 INTER-LIGAND FREE ENERGY PREDICTED BY IDOCK:   -8.20 KCAL/MOL
REMARK 924 INTRA-LIGAND FREE ENERGY PREDICTED BY IDOCK:   -0.63 KCAL/MOL
REMARK 927      BINDING AFFINITY PREDICTED BY RF-SCORE:    0.00 PKD
ROOT
HETATM    1  F   UNL     1     -12.214  13.713  62.625  1.00  0.00    -0.263 F  
HETATM    2  C   UNL     1     -11.901  13.437  63.898  1.00  0.00    -0.439 A  
HETATM    3  C   UNL     1     -12.529  12.388  64.552  1.00  0.00    -0.519 A  
HETATM    4  C   UNL     1     -12.212  12.113  65.888  1.00  0.00     0.053 A  
HETATM    5  C   UNL     1     -11.260  12.886  66.583  1.00  0.00    -0.342 A  
HETATM    6  C   UNL     1     -10.987  12.608  68.072  1.00  0.00    -0.266 C  
HETATM    7  C   UNL     1     -10.644  13.941  65.887  1.00  0.00    -0.293 A  
HETATM    8  C   UNL     1      -9.542  12.112  68.393  1.00  0.00    -0.186 C  
HETATM    9  C   UNL     1     -10.960  14.216  64.554  1.00  0.00    -0.340 A  
HETATM   10  C   UNL     1     -11.578  13.612  69.074  1.00  0.00    -0.356 A  
HETATM   11  C   UNL     1     -12.264  14.772  68.679  1.00  0.00    -0.112 A  
HETATM   12  F   UNL     1     -13.410  16.074  71.870  1.00  0.00    -0.512 F  
HETATM   13  C   UNL     1     -11.539  13.312  70.448  1.00  0.00    -0.018 A  
HETATM   14  C   UNL     1     -12.869  15.611  69.623  1.00  0.00     0.336 A  
HETATM   15  C   UNL     1     -12.806  15.285  70.973  1.00  0.00    -0.440 A  
HETATM   16  C   UNL     1     -12.144  14.144  71.396  1.00  0.00    -0.306 A  
ENDROOT
BRANCH   8  17
HETATM   17  C   UNL     1      -8.311  12.953  68.032  1.00  0.00    -0.169 C  
BRANCH  17  18
HETATM   18  C   UNL     1      -7.794  13.982  69.044  1.00  0.00     0.023 C  
BRANCH  18  19
HETATM   19  N   UNL     1      -7.322  15.274  68.542  1.00  0.00    -0.115 NA 
HETATM   20  C   UNL     1      -8.424  16.128  66.347  1.00  0.00    -0.369 C  
HETATM   21  C   UNL     1      -7.242  15.452  67.084  1.00  0.00    -0.144 C  
HETATM   22  C   UNL     1      -9.201  17.193  67.150  1.00  0.00    -0.236 C  
HETATM   23  C   UNL     1      -9.402  16.626  68.555  1.00  0.00    -0.236 C  
HETATM   24  C   UNL     1      -8.040  16.375  69.192  1.00  0.00    -0.198 C  
BRANCH  22  25
HETATM   25  N   UNL     1      -8.653  18.557  67.172  1.00  0.00    -0.264 N  
HETATM   26  C   UNL     1      -9.144  19.686  67.872  1.00  0.00    -0.327 C  
HETATM   27  O   UNL     1     -10.093  19.769  68.632  1.00  0.00    -0.438 OA 
HETATM   28  N   UNL     1      -8.314  20.766  67.535  1.00  0.00    -0.199 NA 
HETATM   29  C   UNL     1      -7.348  20.342  66.643  1.00  0.00    -0.274 A  
HETATM   30  C   UNL     1      -6.352  21.083  66.034  1.00  0.00    -0.265 A  
HETATM   31  C   UNL     1      -5.532  20.415  65.129  1.00  0.00    -0.208 A  
HETATM   32  C   UNL     1      -5.715  19.044  64.865  1.00  0.00    -0.291 A  
HETATM   33  C   UNL     1      -6.714  18.309  65.522  1.00  0.00    -0.221 A  
HETATM   34  C   UNL     1      -7.537  18.983  66.403  1.00  0.00    -0.263 A  
ENDBRANCH  22  25
ENDBRANCH  18  19
ENDBRANCH  17  18
ENDBRANCH   8  17
TORSDOF 4
ENDMDL
MODEL       67
REMARK 921   NORMALIZED FREE ENERGY PREDICTED BY IDOCK:   -6.40 KCAL/MOL
REMARK 922        TOTAL FREE ENERGY PREDICTED BY IDOCK:   -8.69 KCAL/MOL
REMARK 923 INTER-LIGAND FREE ENERGY PREDICTED BY IDOCK:   -8.25 KCAL/MOL
REMARK 924 INTRA-LIGAND FREE ENERGY PREDICTED BY IDOCK:   -0.44 KCAL/MOL
REMARK 927      BINDING AFFINITY PREDICTED BY RF-SCORE:    0.00 PKD
ROOT
HETATM    1  F   UNL     1     -13.794  12.405  72.346  1.00  0.00    -0.557 F  
HETATM    2  C   UNL     1     -12.977  12.782  71.354  1.00  0.00    -0.266 A  
HETATM    3  C   UNL     1     -12.894  14.121  71.000  1.00  0.00    -0.421 A  
HETATM    4  C   UNL     1     -12.052  14.510  69.951  1.00  0.00    -0.389 A  
HETATM    5  C   UNL     1     -11.284  13.562  69.245  1.00  0.00    -0.285 A  
HETATM    6  C   UNL     1     -10.425  14.009  68.048  1.00  0.00    -0.241 C  
HETATM    7  C   UNL     1     -11.395  12.215  69.632  1.00  0.00    -0.223 A  
HETATM    8  C   UNL     1      -8.887  13.831  68.241  1.00  0.00    -0.185 C  
HETATM    9  C   UNL     1     -12.234  11.826  70.680  1.00  0.00    -0.443 A  
HETATM   10  C   UNL     1     -10.962  13.654  66.653  1.00  0.00    -0.295 A  
HETATM   11  C   UNL     1     -12.125  12.893  66.451  1.00  0.00    -0.400 A  
HETATM   12  F   UNL     1     -12.487  13.038  62.841  1.00  0.00    -0.516 F  
HETATM   13  C   UNL     1     -10.336  14.203  65.518  1.00  0.00    -0.368 A  
HETATM   14  C   UNL     1     -12.631  12.673  65.164  1.00  0.00    -0.459 A  
HETATM   15  C   UNL     1     -11.984  13.227  64.067  1.00  0.00    -0.465 A  
HETATM   16  C   UNL     1     -10.839  13.989  64.230  1.00  0.00    -0.124 A  
ENDROOT
BRANCH   8  17
HETATM   17  C   UNL     1      -8.273  12.456  68.530  1.00  0.00    -0.086 C  
BRANCH  17  18
HETATM   18  C   UNL     1      -8.627  11.278  67.615  1.00  0.00    -0.124 C  
BRANCH  18  19
HETATM   19  N   UNL     1      -8.118   9.950  67.963  1.00  0.00    -0.108 NA 
HETATM   20  C   UNL     1      -7.132   9.687  70.354  1.00  0.00    -0.138 C  
HETATM   21  C   UNL     1      -6.933   9.879  68.831  1.00  0.00    -0.062 C  
HETATM   22  C   UNL     1      -8.370   8.867  70.776  1.00  0.00    -0.175 C  
HETATM   23  C   UNL     1      -9.534   9.349  69.910  1.00  0.00    -0.235 C  
HETATM   24  C   UNL     1      -9.205   9.091  68.444  1.00  0.00    -0.136 C  
BRANCH  22  25
HETATM   25  N   UNL     1      -8.245   7.402  70.777  1.00  0.00    -0.110 N  
HETATM   26  C   UNL     1      -7.309   6.604  70.075  1.00  0.00    -0.089 C  
HETATM   27  O   UNL     1      -6.387   6.949  69.357  1.00  0.00    -0.036 OA 
HETATM   28  N   UNL     1      -7.625   5.266  70.356  1.00  0.00    -0.073 NA 
HETATM   29  C   UNL     1      -8.729   5.219  71.187  1.00  0.00    -0.128 A  
HETATM   30  C   UNL     1      -9.389   4.110  71.680  1.00  0.00    -0.202 A  
HETATM   31  C   UNL     1     -10.515   4.343  72.464  1.00  0.00    -0.235 A  
HETATM   32  C   UNL     1     -10.942   5.655  72.742  1.00  0.00    -0.320 A  
HETATM   33  C   UNL     1     -10.234   6.764  72.254  1.00  0.00    -0.210 A  
HETATM   34  C   UNL     1      -9.129   6.525  71.459  1.00  0.00    -0.144 A  
ENDBRANCH  22  25
ENDBRANCH  18  19
ENDBRANCH  17  18
ENDBRANCH   8  17
TORSDOF 4
ENDMDL
MODEL       68
REMARK 921   NORMALIZED FREE ENERGY PREDICTED BY IDOCK:   -6.40 KCAL/MOL
REMARK 922        TOTAL FREE ENERGY PREDICTED BY IDOCK:   -8.69 KCAL/MOL
REMARK 923 INTER-LIGAND FREE ENERGY PREDICTED BY IDOCK:   -9.18 KCAL/MOL
REMARK 924 INTRA-LIGAND FREE ENERGY PREDICTED BY IDOCK:    0.49 KCAL/MOL
REMARK 927      BINDING AFFINITY PREDICTED BY RF-SCORE:    0.00 PKD
ROOT
HETATM    1  F   UNL     1      -7.436   4.214  69.664  1.00  0.00    -0.051 F  
HETATM    2  C   UNL     1      -7.823   5.473  69.421  1.00  0.00    -0.087 A  
HETATM    3  C   UNL     1      -7.124   6.530  69.985  1.00  0.00    -0.074 A  
HETATM    4  C   UNL     1      -7.540   7.845  69.743  1.00  0.00    -0.090 A  
HETATM    5  C   UNL     1      -8.661   8.115  68.932  1.00  0.00    -0.130 A  
HETATM    6  C   UNL     1      -9.140   9.567  68.745  1.00  0.00    -0.133 C  
HETATM    7  C   UNL     1      -9.343   7.018  68.378  1.00  0.00    -0.130 A  
HETATM    8  C   UNL     1      -9.036  10.109  67.285  1.00  0.00    -0.151 C  
HETATM    9  C   UNL     1      -8.928   5.706  68.619  1.00  0.00    -0.113 A  
HETATM   10  C   UNL     1     -10.408   9.971  69.512  1.00  0.00    -0.256 A  
HETATM   11  C   UNL     1     -11.157   9.067  70.282  1.00  0.00    -0.263 A  
HETATM   12  F   UNL     1     -13.628  11.256  71.796  1.00  0.00    -0.388 F  
HETATM   13  C   UNL     1     -10.785  11.327  69.546  1.00  0.00    -0.147 A  
HETATM   14  C   UNL     1     -12.252   9.498  71.041  1.00  0.00    -0.385 A  
HETATM   15  C   UNL     1     -12.598  10.843  71.047  1.00  0.00    -0.417 A  
HETATM   16  C   UNL     1     -11.876  11.763  70.304  1.00  0.00    -0.382 A  
ENDROOT
BRANCH   8  17
HETATM   17  C   UNL     1      -9.764   9.420  66.124  1.00  0.00    -0.334 C  
BRANCH  17  18
HETATM   18  C   UNL     1     -10.512  10.283  65.102  1.00  0.00     0.001 C  
BRANCH  18  19
HETATM   19  N   UNL     1     -10.162  11.700  65.000  1.00  0.00    -0.263 NA 
HETATM   20  C   UNL     1     -11.958  13.256  63.944  1.00  0.00    -0.541 C  
HETATM   21  C   UNL     1     -10.647  12.441  63.826  1.00  0.00    -0.452 C  
HETATM   22  C   UNL     1     -12.257  13.857  65.335  1.00  0.00    -0.444 C  
HETATM   23  C   UNL     1     -11.939  12.770  66.362  1.00  0.00    -0.443 C  
HETATM   24  C   UNL     1     -10.465  12.398  66.254  1.00  0.00    -0.245 C  
BRANCH  22  25
HETATM   25  N   UNL     1     -11.625  15.142  65.668  1.00  0.00    -0.196 N  
HETATM   26  C   UNL     1     -11.249  16.185  64.787  1.00  0.00    -0.304 C  
HETATM   27  O   UNL     1     -11.398  16.268  63.581  1.00  0.00    -0.653 OA 
HETATM   28  N   UNL     1     -10.639  17.177  65.571  1.00  0.00    -0.579 NA 
HETATM   29  C   UNL     1     -10.613  16.769  66.891  1.00  0.00    -0.219 A  
HETATM   30  C   UNL     1     -10.079  17.424  67.985  1.00  0.00    -0.326 A  
HETATM   31  C   UNL     1     -10.143  16.764  69.208  1.00  0.00    -0.240 A  
HETATM   32  C   UNL     1     -10.737  15.491  69.312  1.00  0.00    -0.245 A  
HETATM   33  C   UNL     1     -11.300  14.864  68.190  1.00  0.00    -0.326 A  
HETATM   34  C   UNL     1     -11.215  15.516  66.975  1.00  0.00    -0.177 A  
ENDBRANCH  22  25
ENDBRANCH  18  19
ENDBRANCH  17  18
ENDBRANCH   8  17
TORSDOF 4
ENDMDL
MODEL       69
REMARK 921   NORMALIZED FREE ENERGY PREDICTED BY IDOCK:   -6.40 KCAL/MOL
REMARK 922        TOTAL FREE ENERGY PREDICTED BY IDOCK:   -8.68 KCAL/MOL
REMARK 923 INTER-LIGAND FREE ENERGY PREDICTED BY IDOCK:   -8.31 KCAL/MOL
REMARK 924 INTRA-LIGAND FREE ENERGY PREDICTED BY IDOCK:   -0.38 KCAL/MOL
REMARK 927      BINDING AFFINITY PREDICTED BY RF-SCORE:    0.00 PKD
ROOT
HETATM    1  F   UNL     1      -8.104   5.521  65.994  1.00  0.00    -0.101 F  
HETATM    2  C   UNL     1      -8.687   6.678  66.335  1.00  0.00    -0.141 A  
HETATM    3  C   UNL     1     -10.010   6.686  66.753  1.00  0.00    -0.238 A  
HETATM    4  C   UNL     1     -10.623   7.899  67.091  1.00  0.00    -0.383 A  
HETATM    5  C   UNL     1      -9.916   9.117  67.017  1.00  0.00    -0.294 A  
HETATM    6  C   UNL     1     -10.638  10.442  67.323  1.00  0.00    -0.322 C  
HETATM    7  C   UNL     1      -8.578   9.068  66.589  1.00  0.00    -0.134 A  
HETATM    8  C   UNL     1     -10.104  11.205  68.574  1.00  0.00    -0.208 C  
HETATM    9  C   UNL     1      -7.966   7.858  66.251  1.00  0.00    -0.103 A  
HETATM   10  C   UNL     1     -10.994  11.320  66.114  1.00  0.00    -0.252 A  
HETATM   11  C   UNL     1     -10.621  11.000  64.799  1.00  0.00    -0.350 A  
HETATM   12  F   UNL     1     -12.293  13.605  62.900  1.00  0.00    -0.516 F  
HETATM   13  C   UNL     1     -11.826  12.440  66.302  1.00  0.00    -0.431 A  
HETATM   14  C   UNL     1     -11.047  11.778  63.716  1.00  0.00    -0.513 A  
HETATM   15  C   UNL     1     -11.864  12.879  63.941  1.00  0.00    -0.473 A  
HETATM   16  C   UNL     1     -12.257  13.220  65.225  1.00  0.00    -0.492 A  
ENDROOT
BRANCH   8  17
HETATM   17  C   UNL     1      -8.640  11.653  68.672  1.00  0.00    -0.086 C  
BRANCH  17  18
HETATM   18  C   UNL     1      -8.128  12.730  67.708  1.00  0.00    -0.168 C  
BRANCH  18  19
HETATM   19  N   UNL     1      -7.860  14.067  68.240  1.00  0.00    -0.130 NA 
HETATM   20  C   UNL     1      -7.175  15.878  66.504  1.00  0.00     0.299 C  
HETATM   21  C   UNL     1      -6.794  14.854  67.601  1.00  0.00    -0.181 C  
HETATM   22  C   UNL     1      -8.558  16.548  66.655  1.00  0.00    -0.254 C  
HETATM   23  C   UNL     1      -9.542  15.444  67.044  1.00  0.00    -0.227 C  
HETATM   24  C   UNL     1      -9.106  14.830  68.368  1.00  0.00    -0.188 C  
BRANCH  22  25
HETATM   25  N   UNL     1      -8.651  17.716  67.543  1.00  0.00    -0.221 N  
HETATM   26  C   UNL     1      -9.809  18.438  67.920  1.00  0.00    -0.329 C  
HETATM   27  O   UNL     1     -10.975  18.231  67.631  1.00  0.00    -0.333 OA 
HETATM   28  N   UNL     1      -9.381  19.497  68.735  1.00  0.00    -0.379 NA 
HETATM   29  C   UNL     1      -8.004  19.458  68.853  1.00  0.00    -0.325 A  
HETATM   30  C   UNL     1      -7.173  20.327  69.535  1.00  0.00     0.137 A  
HETATM   31  C   UNL     1      -5.805  20.087  69.452  1.00  0.00    -0.326 A  
HETATM   32  C   UNL     1      -5.307  18.997  68.711  1.00  0.00    -0.200 A  
HETATM   33  C   UNL     1      -6.176  18.112  68.056  1.00  0.00    -0.176 A  
HETATM   34  C   UNL     1      -7.532  18.369  68.125  1.00  0.00    -0.267 A  
ENDBRANCH  22  25
ENDBRANCH  18  19
ENDBRANCH  17  18
ENDBRANCH   8  17
TORSDOF 4
ENDMDL
MODEL       70
REMARK 921   NORMALIZED FREE ENERGY PREDICTED BY IDOCK:   -6.40 KCAL/MOL
REMARK 922        TOTAL FREE ENERGY PREDICTED BY IDOCK:   -8.68 KCAL/MOL
REMARK 923 INTER-LIGAND FREE ENERGY PREDICTED BY IDOCK:   -7.92 KCAL/MOL
REMARK 924 INTRA-LIGAND FREE ENERGY PREDICTED BY IDOCK:   -0.76 KCAL/MOL
REMARK 927      BINDING AFFINITY PREDICTED BY RF-SCORE:    0.00 PKD
ROOT
HETATM    1  F   UNL     1     -13.057   9.970  71.936  1.00  0.00    -0.427 F  
HETATM    2  C   UNL     1     -12.420  10.824  71.124  1.00  0.00    -0.414 A  
HETATM    3  C   UNL     1     -12.697  12.181  71.196  1.00  0.00    -0.351 A  
HETATM    4  C   UNL     1     -12.042  13.069  70.335  1.00  0.00    -0.391 A  
HETATM    5  C   UNL     1     -11.099  12.607  69.393  1.00  0.00    -0.130 A  
HETATM    6  C   UNL     1     -10.451  13.598  68.409  1.00  0.00    -0.251 C  
HETATM    7  C   UNL     1     -10.845  11.225  69.351  1.00  0.00    -0.239 A  
HETATM    8  C   UNL     1      -8.909  13.773  68.576  1.00  0.00    -0.116 C  
HETATM    9  C   UNL     1     -11.498  10.338  70.210  1.00  0.00    -0.395 A  
HETATM   10  C   UNL     1     -10.957  13.550  66.960  1.00  0.00    -0.297 A  
HETATM   11  C   UNL     1     -11.899  12.611  66.509  1.00  0.00    -0.463 A  
HETATM   12  F   UNL     1     -12.488  13.731  63.105  1.00  0.00    -0.527 F  
HETATM   13  C   UNL     1     -10.556  14.556  66.060  1.00  0.00    -0.311 A  
HETATM   14  C   UNL     1     -12.405  12.663  65.204  1.00  0.00    -0.547 A  
HETATM   15  C   UNL     1     -11.981  13.668  64.342  1.00  0.00    -0.437 A  
HETATM   16  C   UNL     1     -11.059  14.614  64.757  1.00  0.00    -0.394 A  
ENDROOT
BRANCH   8  17
HETATM   17  C   UNL     1      -7.952  12.582  68.449  1.00  0.00    -0.139 C  
BRANCH  17  18
HETATM   18  C   UNL     1      -8.125  11.613  67.274  1.00  0.00    -0.160 C  
BRANCH  18  19
HETATM   19  N   UNL     1      -7.474  10.304  67.351  1.00  0.00    -0.093 NA 
HETATM   20  C   UNL     1      -8.271   8.733  69.264  1.00  0.00    -0.108 C  
HETATM   21  C   UNL     1      -7.241   9.734  68.687  1.00  0.00    -0.073 C  
HETATM   22  C   UNL     1      -9.003   7.847  68.232  1.00  0.00    -0.132 C  
HETATM   23  C   UNL     1      -9.392   8.756  67.067  1.00  0.00    -0.200 C  
HETATM   24  C   UNL     1      -8.130   9.348  66.452  1.00  0.00    -0.108 C  
BRANCH  22  25
HETATM   25  N   UNL     1      -8.318   6.626  67.783  1.00  0.00    -0.122 N  
HETATM   26  C   UNL     1      -6.977   6.237  68.020  1.00  0.00    -0.080 C  
HETATM   27  O   UNL     1      -6.116   6.798  68.674  1.00  0.00    -0.024 OA 
HETATM   28  N   UNL     1      -6.781   5.022  67.345  1.00  0.00    -0.054 NA 
HETATM   29  C   UNL     1      -7.945   4.667  66.691  1.00  0.00    -0.103 A  
HETATM   30  C   UNL     1      -8.181   3.567  65.887  1.00  0.00    -0.097 A  
HETATM   31  C   UNL     1      -9.440   3.471  65.303  1.00  0.00    -0.154 A  
HETATM   32  C   UNL     1     -10.423   4.452  65.539  1.00  0.00    -0.228 A  
HETATM   33  C   UNL     1     -10.167   5.541  66.386  1.00  0.00    -0.247 A  
HETATM   34  C   UNL     1      -8.907   5.641  66.945  1.00  0.00    -0.113 A  
ENDBRANCH  22  25
ENDBRANCH  18  19
ENDBRANCH  17  18
ENDBRANCH   8  17
TORSDOF 4
ENDMDL
MODEL       71
REMARK 921   NORMALIZED FREE ENERGY PREDICTED BY IDOCK:   -6.38 KCAL/MOL
REMARK 922        TOTAL FREE ENERGY PREDICTED BY IDOCK:   -8.66 KCAL/MOL
REMARK 923 INTER-LIGAND FREE ENERGY PREDICTED BY IDOCK:   -8.14 KCAL/MOL
REMARK 924 INTRA-LIGAND FREE ENERGY PREDICTED BY IDOCK:   -0.51 KCAL/MOL
REMARK 927      BINDING AFFINITY PREDICTED BY RF-SCORE:    0.00 PKD
ROOT
HETATM    1  F   UNL     1      -7.031   7.881  66.042  1.00  0.00    -0.057 F  
HETATM    2  C   UNL     1      -8.015   8.723  66.385  1.00  0.00    -0.103 A  
HETATM    3  C   UNL     1      -9.133   8.844  65.574  1.00  0.00    -0.248 A  
HETATM    4  C   UNL     1     -10.152   9.738  65.925  1.00  0.00    -0.314 A  
HETATM    5  C   UNL     1     -10.062  10.519  67.096  1.00  0.00    -0.253 A  
HETATM    6  C   UNL     1     -11.162  11.547  67.418  1.00  0.00    -0.367 C  
HETATM    7  C   UNL     1      -8.914  10.368  67.893  1.00  0.00    -0.128 A  
HETATM    8  C   UNL     1     -11.976  11.252  68.716  1.00  0.00    -0.350 C  
HETATM    9  C   UNL     1      -7.897   9.476  67.542  1.00  0.00    -0.102 A  
HETATM   10  C   UNL     1     -10.807  13.023  67.182  1.00  0.00    -0.278 A  
HETATM   11  C   UNL     1      -9.531  13.448  66.776  1.00  0.00    -0.263 A  
HETATM   12  F   UNL     1     -10.063  17.004  66.266  1.00  0.00    -0.269 F  
HETATM   13  C   UNL     1     -11.823  13.994  67.263  1.00  0.00    -0.445 A  
HETATM   14  C   UNL     1      -9.277  14.793  66.481  1.00  0.00    -0.304 A  
HETATM   15  C   UNL     1     -10.303  15.724  66.576  1.00  0.00    -0.294 A  
HETATM   16  C   UNL     1     -11.575  15.338  66.967  1.00  0.00    -0.098 A  
ENDROOT
BRANCH   8  17
HETATM   17  C   UNL     1     -11.288  11.138  70.082  1.00  0.00    -0.295 C  
BRANCH  17  18
HETATM   18  C   UNL     1     -11.961  10.314  71.185  1.00  0.00    -0.376 C  
BRANCH  18  19
HETATM   19  N   UNL     1     -11.236   9.168  71.736  1.00  0.00    -0.375 NA 
HETATM   20  C   UNL     1     -12.431   6.864  71.572  1.00  0.00    -0.420 C  
HETATM   21  C   UNL     1     -12.024   8.112  72.391  1.00  0.00    -0.372 C  
HETATM   22  C   UNL     1     -11.442   6.429  70.468  1.00  0.00    -0.379 C  
HETATM   23  C   UNL     1     -10.997   7.702  69.748  1.00  0.00    -0.178 C  
HETATM   24  C   UNL     1     -10.303   8.622  70.746  1.00  0.00    -0.204 C  
BRANCH  22  25
HETATM   25  N   UNL     1     -10.305   5.589  70.870  1.00  0.00    -0.229 N  
HETATM   26  C   UNL     1      -9.120   5.315  70.144  1.00  0.00    -0.133 C  
HETATM   27  O   UNL     1      -8.765   5.740  69.059  1.00  0.00    -0.112 OA 
HETATM   28  N   UNL     1      -8.366   4.421  70.920  1.00  0.00    -0.086 NA 
HETATM   29  C   UNL     1      -9.055   4.127  72.082  1.00  0.00    -0.120 A  
HETATM   30  C   UNL     1      -8.692   3.272  73.105  1.00  0.00    -0.082 A  
HETATM   31  C   UNL     1      -9.599   3.116  74.149  1.00  0.00    -0.121 A  
HETATM   32  C   UNL     1     -10.822   3.814  74.152  1.00  0.00    -0.222 A  
HETATM   33  C   UNL     1     -11.151   4.701  73.116  1.00  0.00    -0.371 A  
HETATM   34  C   UNL     1     -10.254   4.834  72.072  1.00  0.00    -0.195 A  
ENDBRANCH  22  25
ENDBRANCH  18  19
ENDBRANCH  17  18
ENDBRANCH   8  17
TORSDOF 4
ENDMDL
MODEL       72
REMARK 921   NORMALIZED FREE ENERGY PREDICTED BY IDOCK:   -6.38 KCAL/MOL
REMARK 922        TOTAL FREE ENERGY PREDICTED BY IDOCK:   -8.65 KCAL/MOL
REMARK 923 INTER-LIGAND FREE ENERGY PREDICTED BY IDOCK:   -7.73 KCAL/MOL
REMARK 924 INTRA-LIGAND FREE ENERGY PREDICTED BY IDOCK:   -0.93 KCAL/MOL
REMARK 927      BINDING AFFINITY PREDICTED BY RF-SCORE:    0.00 PKD
ROOT
HETATM    1  F   UNL     1      -7.368   8.065  65.964  1.00  0.00    -0.068 F  
HETATM    2  C   UNL     1      -8.259   8.998  66.326  1.00  0.00    -0.115 A  
HETATM    3  C   UNL     1      -9.286   9.344  65.460  1.00  0.00    -0.292 A  
HETATM    4  C   UNL     1     -10.205  10.332  65.833  1.00  0.00    -0.293 A  
HETATM    5  C   UNL     1     -10.107  10.982  67.081  1.00  0.00    -0.227 A  
HETATM    6  C   UNL     1     -11.086  12.116  67.433  1.00  0.00    -0.330 C  
HETATM    7  C   UNL     1      -9.053  10.604  67.931  1.00  0.00    -0.145 A  
HETATM    8  C   UNL     1     -12.031  11.816  68.638  1.00  0.00    -0.299 C  
HETATM    9  C   UNL     1      -8.135   9.619  67.558  1.00  0.00    -0.114 A  
HETATM   10  C   UNL     1     -10.527  13.546  67.371  1.00  0.00    -0.247 A  
HETATM   11  C   UNL     1      -9.179  13.829  67.094  1.00  0.00    -0.245 A  
HETATM   12  F   UNL     1      -9.207  17.456  66.914  1.00  0.00    -0.230 F  
HETATM   13  C   UNL     1     -11.412  14.634  67.484  1.00  0.00    -0.378 A  
HETATM   14  C   UNL     1      -8.731  15.148  66.954  1.00  0.00    -0.289 A  
HETATM   15  C   UNL     1      -9.634  16.197  67.077  1.00  0.00    -0.224 A  
HETATM   16  C   UNL     1     -10.971  15.953  67.343  1.00  0.00    -0.257 A  
ENDROOT
BRANCH   8  17
HETATM   17  C   UNL     1     -11.472  11.485  70.027  1.00  0.00    -0.304 C  
BRANCH  17  18
HETATM   18  C   UNL     1     -12.283  10.574  70.955  1.00  0.00    -0.400 C  
BRANCH  18  19
HETATM   19  N   UNL     1     -11.574   9.532  71.700  1.00  0.00    -0.393 NA 
HETATM   20  C   UNL     1     -12.505   7.116  71.467  1.00  0.00    -0.418 C  
HETATM   21  C   UNL     1     -12.372   8.435  72.267  1.00  0.00    -0.376 C  
HETATM   22  C   UNL     1     -11.294   6.732  70.590  1.00  0.00    -0.334 C  
HETATM   23  C   UNL     1     -10.838   8.009  69.885  1.00  0.00    -0.217 C  
HETATM   24  C   UNL     1     -10.427   9.038  70.931  1.00  0.00    -0.254 C  
BRANCH  22  25
HETATM   25  N   UNL     1     -10.181   6.028  71.244  1.00  0.00    -0.199 N  
HETATM   26  C   UNL     1     -10.091   5.592  72.588  1.00  0.00    -0.180 C  
HETATM   27  O   UNL     1     -10.918   5.666  73.480  1.00  0.00    -0.276 OA 
HETATM   28  N   UNL     1      -8.818   5.022  72.746  1.00  0.00    -0.121 NA 
HETATM   29  C   UNL     1      -8.124   5.110  71.554  1.00  0.00    -0.115 A  
HETATM   30  C   UNL     1      -6.833   4.702  71.276  1.00  0.00    -0.035 A  
HETATM   31  C   UNL     1      -6.353   4.955  69.995  1.00  0.00    -0.030 A  
HETATM   32  C   UNL     1      -7.163   5.589  69.033  1.00  0.00    -0.069 A  
HETATM   33  C   UNL     1      -8.481   5.964  69.332  1.00  0.00    -0.113 A  
HETATM   34  C   UNL     1      -8.944   5.728  70.613  1.00  0.00    -0.140 A  
ENDBRANCH  22  25
ENDBRANCH  18  19
ENDBRANCH  17  18
ENDBRANCH   8  17
TORSDOF 4
ENDMDL
MODEL       73
REMARK 921   NORMALIZED FREE ENERGY PREDICTED BY IDOCK:   -6.37 KCAL/MOL
REMARK 922        TOTAL FREE ENERGY PREDICTED BY IDOCK:   -8.65 KCAL/MOL
REMARK 923 INTER-LIGAND FREE ENERGY PREDICTED BY IDOCK:   -8.14 KCAL/MOL
REMARK 924 INTRA-LIGAND FREE ENERGY PREDICTED BY IDOCK:   -0.51 KCAL/MOL
REMARK 927      BINDING AFFINITY PREDICTED BY RF-SCORE:    0.00 PKD
ROOT
HETATM    1  F   UNL     1     -10.577  20.540  68.894  1.00  0.00    -0.450 F  
HETATM    2  C   UNL     1     -10.163  19.413  68.302  1.00  0.00    -0.433 A  
HETATM    3  C   UNL     1      -9.754  19.440  66.976  1.00  0.00    -0.425 A  
HETATM    4  C   UNL     1      -9.338  18.257  66.354  1.00  0.00    -0.280 A  
HETATM    5  C   UNL     1      -9.323  17.033  67.054  1.00  0.00    -0.249 A  
HETATM    6  C   UNL     1      -8.932  15.736  66.323  1.00  0.00    -0.381 C  
HETATM    7  C   UNL     1      -9.744  17.045  68.396  1.00  0.00    -0.279 A  
HETATM    8  C   UNL     1      -7.627  15.057  66.844  1.00  0.00     0.076 C  
HETATM    9  C   UNL     1     -10.160  18.226  69.017  1.00  0.00    -0.283 A  
HETATM   10  C   UNL     1     -10.080  14.778  65.970  1.00  0.00    -0.327 A  
HETATM   11  C   UNL     1     -11.412  15.006  66.353  1.00  0.00    -0.225 A  
HETATM   12  F   UNL     1     -13.139  12.285  64.679  1.00  0.00    -0.543 F  
HETATM   13  C   UNL     1      -9.821  13.679  65.130  1.00  0.00    -0.115 A  
HETATM   14  C   UNL     1     -12.441  14.157  65.930  1.00  0.00    -0.479 A  
HETATM   15  C   UNL     1     -12.147  13.078  65.105  1.00  0.00    -0.433 A  
HETATM   16  C   UNL     1     -10.846  12.829  64.702  1.00  0.00    -0.361 A  
ENDROOT
BRANCH   8  17
HETATM   17  C   UNL     1      -7.489  14.610  68.305  1.00  0.00    -0.117 C  
BRANCH  17  18
HETATM   18  C   UNL     1      -7.146  13.146  68.603  1.00  0.00    -0.103 C  
BRANCH  18  19
HETATM   19  N   UNL     1      -7.916  12.100  67.928  1.00  0.00    -0.139 NA 
HETATM   20  C   UNL     1      -6.585   9.999  67.170  1.00  0.00    -0.070 C  
HETATM   21  C   UNL     1      -7.255  11.356  66.845  1.00  0.00    -0.144 C  
HETATM   22  C   UNL     1      -7.241   9.175  68.299  1.00  0.00    -0.078 C  
HETATM   23  C   UNL     1      -7.567  10.154  69.427  1.00  0.00    -0.133 C  
HETATM   24  C   UNL     1      -8.541  11.205  68.908  1.00  0.00    -0.087 C  
BRANCH  22  25
HETATM   25  N   UNL     1      -8.390   8.331  67.941  1.00  0.00    -0.127 N  
HETATM   26  C   UNL     1      -9.144   8.343  66.742  1.00  0.00    -0.157 C  
HETATM   27  O   UNL     1      -8.987   9.016  65.739  1.00  0.00    -0.171 OA 
HETATM   28  N   UNL     1     -10.167   7.395  66.897  1.00  0.00    -0.267 NA 
HETATM   29  C   UNL     1     -10.076   6.820  68.150  1.00  0.00    -0.164 A  
HETATM   30  C   UNL     1     -10.897   5.868  68.724  1.00  0.00    -0.353 A  
HETATM   31  C   UNL     1     -10.610   5.492  70.032  1.00  0.00    -0.384 A  
HETATM   32  C   UNL     1      -9.521   6.057  70.723  1.00  0.00    -0.189 A  
HETATM   33  C   UNL     1      -8.684   6.999  70.105  1.00  0.00    -0.141 A  
HETATM   34  C   UNL     1      -8.988   7.383  68.813  1.00  0.00    -0.129 A  
ENDBRANCH  22  25
ENDBRANCH  18  19
ENDBRANCH  17  18
ENDBRANCH   8  17
TORSDOF 4
ENDMDL
MODEL       74
REMARK 921   NORMALIZED FREE ENERGY PREDICTED BY IDOCK:   -6.36 KCAL/MOL
REMARK 922        TOTAL FREE ENERGY PREDICTED BY IDOCK:   -8.64 KCAL/MOL
REMARK 923 INTER-LIGAND FREE ENERGY PREDICTED BY IDOCK:   -8.65 KCAL/MOL
REMARK 924 INTRA-LIGAND FREE ENERGY PREDICTED BY IDOCK:    0.01 KCAL/MOL
REMARK 927      BINDING AFFINITY PREDICTED BY RF-SCORE:    0.00 PKD
ROOT
HETATM    1  F   UNL     1      -9.783  14.607  64.847  1.00  0.00    -0.304 F  
HETATM    2  C   UNL     1     -10.388  14.176  65.962  1.00  0.00    -0.309 A  
HETATM    3  C   UNL     1     -11.769  14.245  66.068  1.00  0.00    -0.384 A  
HETATM    4  C   UNL     1     -12.397  13.809  67.241  1.00  0.00    -0.203 A  
HETATM    5  C   UNL     1     -11.648  13.296  68.320  1.00  0.00    -0.369 A  
HETATM    6  C   UNL     1     -12.359  12.895  69.625  1.00  0.00    -0.083 C  
HETATM    7  C   UNL     1     -10.251  13.242  68.175  1.00  0.00    -0.243 A  
HETATM    8  C   UNL     1     -12.279  11.376  69.975  1.00  0.00    -0.377 C  
HETATM    9  C   UNL     1      -9.623  13.677  67.004  1.00  0.00    -0.251 A  
HETATM   10  C   UNL     1     -12.200  13.856  70.813  1.00  0.00    -0.441 A  
HETATM   11  C   UNL     1     -11.390  15.002  70.767  1.00  0.00    -0.307 A  
HETATM   12  F   UNL     1     -12.108  16.546  73.974  1.00  0.00    -0.525 F  
HETATM   13  C   UNL     1     -12.982  13.655  71.966  1.00  0.00    -0.427 A  
HETATM   14  C   UNL     1     -11.348  15.902  71.839  1.00  0.00    -0.306 A  
HETATM   15  C   UNL     1     -12.130  15.668  72.963  1.00  0.00    -0.481 A  
HETATM   16  C   UNL     1     -12.946  14.552  73.039  1.00  0.00    -0.596 A  
ENDROOT
BRANCH   8  17
HETATM   17  C   UNL     1     -10.931  10.669  70.160  1.00  0.00    -0.292 C  
BRANCH  17  18
HETATM   18  C   UNL     1     -10.911   9.149  70.356  1.00  0.00    -0.248 C  
BRANCH  18  19
HETATM   19  N   UNL     1      -9.911   8.367  69.627  1.00  0.00    -0.189 NA 
HETATM   20  C   UNL     1     -10.828   6.649  67.904  1.00  0.00    -0.353 C  
HETATM   21  C   UNL     1     -10.242   6.972  69.300  1.00  0.00    -0.186 C  
HETATM   22  C   UNL     1     -10.357   7.556  66.747  1.00  0.00    -0.262 C  
HETATM   23  C   UNL     1     -10.385   8.991  67.272  1.00  0.00    -0.342 C  
HETATM   24  C   UNL     1      -9.431   9.108  68.455  1.00  0.00    -0.142 C  
BRANCH  22  25
HETATM   25  N   UNL     1      -9.079   7.222  66.102  1.00  0.00    -0.153 N  
HETATM   26  C   UNL     1      -8.148   8.102  65.498  1.00  0.00    -0.130 C  
HETATM   27  O   UNL     1      -8.177   9.317  65.415  1.00  0.00    -0.117 OA 
HETATM   28  N   UNL     1      -7.115   7.306  64.979  1.00  0.00    -0.062 NA 
HETATM   29  C   UNL     1      -7.391   5.975  65.227  1.00  0.00    -0.076 A  
HETATM   30  C   UNL     1      -6.659   4.861  64.862  1.00  0.00    -0.043 A  
HETATM   31  C   UNL     1      -7.191   3.619  65.197  1.00  0.00    -0.067 A  
HETATM   32  C   UNL     1      -8.416   3.520  65.886  1.00  0.00    -0.112 A  
HETATM   33  C   UNL     1      -9.122   4.670  66.272  1.00  0.00    -0.122 A  
HETATM   34  C   UNL     1      -8.598   5.899  65.918  1.00  0.00    -0.145 A  
ENDBRANCH  22  25
ENDBRANCH  18  19
ENDBRANCH  17  18
ENDBRANCH   8  17
TORSDOF 4
ENDMDL
MODEL       75
REMARK 921   NORMALIZED FREE ENERGY PREDICTED BY IDOCK:   -6.35 KCAL/MOL
REMARK 922        TOTAL FREE ENERGY PREDICTED BY IDOCK:   -8.63 KCAL/MOL
REMARK 923 INTER-LIGAND FREE ENERGY PREDICTED BY IDOCK:   -8.34 KCAL/MOL
REMARK 924 INTRA-LIGAND FREE ENERGY PREDICTED BY IDOCK:   -0.28 KCAL/MOL
REMARK 927      BINDING AFFINITY PREDICTED BY RF-SCORE:    0.00 PKD
ROOT
HETATM    1  F   UNL     1      -9.391   2.241  65.394  1.00  0.00    -0.143 F  
HETATM    2  C   UNL     1      -9.270   3.421  66.016  1.00  0.00    -0.161 A  
HETATM    3  C   UNL     1      -8.249   3.615  66.935  1.00  0.00    -0.095 A  
HETATM    4  C   UNL     1      -8.135   4.843  67.597  1.00  0.00    -0.094 A  
HETATM    5  C   UNL     1      -9.042   5.893  67.344  1.00  0.00    -0.110 A  
HETATM    6  C   UNL     1      -8.938   7.205  68.142  1.00  0.00    -0.128 C  
HETATM    7  C   UNL     1     -10.064   5.658  66.407  1.00  0.00    -0.199 A  
HETATM    8  C   UNL     1      -8.584   8.464  67.290  1.00  0.00    -0.123 C  
HETATM    9  C   UNL     1     -10.178   4.433  65.746  1.00  0.00    -0.257 A  
HETATM   10  C   UNL     1      -9.991   7.424  69.238  1.00  0.00    -0.173 A  
HETATM   11  C   UNL     1     -11.053   6.533  69.468  1.00  0.00    -0.425 A  
HETATM   12  F   UNL     1     -12.583   7.957  72.437  1.00  0.00    -0.303 F  
HETATM   13  C   UNL     1      -9.836   8.499  70.133  1.00  0.00    -0.184 A  
HETATM   14  C   UNL     1     -11.935   6.721  70.539  1.00  0.00    -0.385 A  
HETATM   15  C   UNL     1     -11.754   7.797  71.398  1.00  0.00    -0.282 A  
HETATM   16  C   UNL     1     -10.714   8.690  71.205  1.00  0.00    -0.322 A  
ENDROOT
BRANCH   8  17
HETATM   17  C   UNL     1      -9.473   8.913  66.123  1.00  0.00    -0.318 C  
BRANCH  17  18
HETATM   18  C   UNL     1     -10.564   9.957  66.381  1.00  0.00    -0.056 C  
BRANCH  18  19
HETATM   19  N   UNL     1     -10.155  11.323  66.713  1.00  0.00    -0.213 NA 
HETATM   20  C   UNL     1     -11.937  13.180  66.339  1.00  0.00    -0.462 C  
HETATM   21  C   UNL     1     -10.674  12.414  65.874  1.00  0.00    -0.266 C  
HETATM   22  C   UNL     1     -12.124  13.309  67.866  1.00  0.00    -0.228 C  
HETATM   23  C   UNL     1     -11.797  11.942  68.467  1.00  0.00    -0.357 C  
HETATM   24  C   UNL     1     -10.351  11.588  68.142  1.00  0.00    -0.195 C  
BRANCH  22  25
HETATM   25  N   UNL     1     -11.415  14.403  68.545  1.00  0.00    -0.281 N  
HETATM   26  C   UNL     1     -11.298  14.637  69.937  1.00  0.00    -0.259 C  
HETATM   27  O   UNL     1     -11.718  13.974  70.869  1.00  0.00    -0.239 OA 
HETATM   28  N   UNL     1     -10.572  15.829  70.088  1.00  0.00    -0.328 NA 
HETATM   29  C   UNL     1     -10.260  16.338  68.842  1.00  0.00    -0.256 A  
HETATM   30  C   UNL     1      -9.585  17.504  68.531  1.00  0.00    -0.305 A  
HETATM   31  C   UNL     1      -9.446  17.812  67.182  1.00  0.00    -0.265 A  
HETATM   32  C   UNL     1      -9.965  16.959  66.189  1.00  0.00    -0.332 A  
HETATM   33  C   UNL     1     -10.617  15.765  66.532  1.00  0.00    -0.306 A  
HETATM   34  C   UNL     1     -10.770  15.476  67.875  1.00  0.00    -0.294 A  
ENDBRANCH  22  25
ENDBRANCH  18  19
ENDBRANCH  17  18
ENDBRANCH   8  17
TORSDOF 4
ENDMDL
MODEL       76
REMARK 921   NORMALIZED FREE ENERGY PREDICTED BY IDOCK:   -6.33 KCAL/MOL
REMARK 922        TOTAL FREE ENERGY PREDICTED BY IDOCK:   -8.60 KCAL/MOL
REMARK 923 INTER-LIGAND FREE ENERGY PREDICTED BY IDOCK:   -8.64 KCAL/MOL
REMARK 924 INTRA-LIGAND FREE ENERGY PREDICTED BY IDOCK:    0.04 KCAL/MOL
REMARK 927      BINDING AFFINITY PREDICTED BY RF-SCORE:    0.00 PKD
ROOT
HETATM    1  F   UNL     1      -9.859   8.119  73.786  1.00  0.00    -0.287 F  
HETATM    2  C   UNL     1     -10.110   7.918  72.485  1.00  0.00    -0.261 A  
HETATM    3  C   UNL     1     -11.327   7.382  72.092  1.00  0.00    -0.311 A  
HETATM    4  C   UNL     1     -11.580   7.157  70.734  1.00  0.00    -0.358 A  
HETATM    5  C   UNL     1     -10.616   7.470  69.753  1.00  0.00    -0.245 A  
HETATM    6  C   UNL     1     -10.892   7.142  68.274  1.00  0.00    -0.156 C  
HETATM    7  C   UNL     1      -9.394   8.011  70.190  1.00  0.00    -0.156 A  
HETATM    8  C   UNL     1     -10.990   8.384  67.335  1.00  0.00     0.103 C  
HETATM    9  C   UNL     1      -9.142   8.236  71.546  1.00  0.00    -0.229 A  
HETATM   10  C   UNL     1     -10.148   5.930  67.693  1.00  0.00    -0.194 A  
HETATM   11  C   UNL     1      -9.200   5.193  68.421  1.00  0.00    -0.142 A  
HETATM   12  F   UNL     1      -8.447   2.483  66.123  1.00  0.00    -0.083 F  
HETATM   13  C   UNL     1     -10.503   5.456  66.416  1.00  0.00    -0.324 A  
HETATM   14  C   UNL     1      -8.615   4.038  67.886  1.00  0.00    -0.109 A  
HETATM   15  C   UNL     1      -8.987   3.603  66.620  1.00  0.00    -0.141 A  
HETATM   16  C   UNL     1      -9.925   4.302  65.878  1.00  0.00    -0.232 A  
ENDROOT
BRANCH   8  17
HETATM   17  C   UNL     1      -9.824   9.370  67.192  1.00  0.00    -0.242 C  
BRANCH  17  18
HETATM   18  C   UNL     1      -9.904  10.462  66.119  1.00  0.00    -0.222 C  
BRANCH  18  19
HETATM   19  N   UNL     1      -9.734  11.856  66.531  1.00  0.00    -0.205 NA 
HETATM   20  C   UNL     1     -11.718  13.457  66.019  1.00  0.00    -0.398 C  
HETATM   21  C   UNL     1     -10.317  12.898  65.672  1.00  0.00    -0.282 C  
HETATM   22  C   UNL     1     -12.079  13.491  67.520  1.00  0.00    -0.300 C  
HETATM   23  C   UNL     1     -11.620  12.159  68.115  1.00  0.00    -0.397 C  
HETATM   24  C   UNL     1     -10.112  12.028  67.938  1.00  0.00    -0.195 C  
BRANCH  22  25
HETATM   25  N   UNL     1     -11.610  14.643  68.304  1.00  0.00    -0.311 N  
HETATM   26  C   UNL     1     -11.758  14.874  69.693  1.00  0.00    -0.320 C  
HETATM   27  O   UNL     1     -12.264  14.164  70.544  1.00  0.00    -0.315 OA 
HETATM   28  N   UNL     1     -11.193  16.131  69.958  1.00  0.00    -0.354 NA 
HETATM   29  C   UNL     1     -10.723  16.681  68.780  1.00  0.00    -0.342 A  
HETATM   30  C   UNL     1     -10.125  17.912  68.582  1.00  0.00    -0.394 A  
HETATM   31  C   UNL     1      -9.787  18.245  67.274  1.00  0.00    -0.327 A  
HETATM   32  C   UNL     1     -10.039  17.354  66.213  1.00  0.00    -0.328 A  
HETATM   33  C   UNL     1     -10.618  16.098  66.447  1.00  0.00    -0.269 A  
HETATM   34  C   UNL     1     -10.970  15.782  67.746  1.00  0.00    -0.314 A  
ENDBRANCH  22  25
ENDBRANCH  18  19
ENDBRANCH  17  18
ENDBRANCH   8  17
TORSDOF 4
ENDMDL
MODEL       77
REMARK 921   NORMALIZED FREE ENERGY PREDICTED BY IDOCK:   -6.32 KCAL/MOL
REMARK 922        TOTAL FREE ENERGY PREDICTED BY IDOCK:   -8.59 KCAL/MOL
REMARK 923 INTER-LIGAND FREE ENERGY PREDICTED BY IDOCK:   -8.27 KCAL/MOL
REMARK 924 INTRA-LIGAND FREE ENERGY PREDICTED BY IDOCK:   -0.33 KCAL/MOL
REMARK 927      BINDING AFFINITY PREDICTED BY RF-SCORE:    0.00 PKD
ROOT
HETATM    1  F   UNL     1     -11.026  16.396  64.106  1.00  0.00    -0.299 F  
HETATM    2  C   UNL     1     -11.044  15.243  64.787  1.00  0.00    -0.394 A  
HETATM    3  C   UNL     1     -12.059  14.325  64.562  1.00  0.00    -0.499 A  
HETATM    4  C   UNL     1     -12.085  13.128  65.287  1.00  0.00    -0.471 A  
HETATM    5  C   UNL     1     -11.092  12.837  66.246  1.00  0.00    -0.321 A  
HETATM    6  C   UNL     1     -11.188  11.547  67.081  1.00  0.00    -0.365 C  
HETATM    7  C   UNL     1     -10.080  13.792  66.446  1.00  0.00    -0.297 A  
HETATM    8  C   UNL     1     -10.035  10.524  66.843  1.00  0.00    -0.246 C  
HETATM    9  C   UNL     1     -10.054  14.986  65.722  1.00  0.00    -0.367 A  
HETATM   10  C   UNL     1     -11.635  11.712  68.542  1.00  0.00    -0.379 A  
HETATM   11  C   UNL     1     -11.870  12.963  69.134  1.00  0.00    -0.353 A  
HETATM   12  F   UNL     1     -13.150  12.011  72.396  1.00  0.00    -0.548 F  
HETATM   13  C   UNL     1     -11.937  10.564  69.300  1.00  0.00    -0.194 A  
HETATM   14  C   UNL     1     -12.367  13.065  70.439  1.00  0.00    -0.351 A  
HETATM   15  C   UNL     1     -12.648  11.910  71.159  1.00  0.00    -0.288 A  
HETATM   16  C   UNL     1     -12.436  10.659  70.603  1.00  0.00    -0.462 A  
ENDROOT
BRANCH   8  17
HETATM   17  C   UNL     1      -8.568  10.905  67.081  1.00  0.00    -0.130 C  
BRANCH  17  18
HETATM   18  C   UNL     1      -7.645   9.900  67.779  1.00  0.00    -0.090 C  
BRANCH  18  19
HETATM   19  N   UNL     1      -8.156   8.555  68.045  1.00  0.00    -0.115 NA 
HETATM   20  C   UNL     1      -6.548   6.941  69.299  1.00  0.00    -0.048 C  
HETATM   21  C   UNL     1      -7.201   7.438  67.986  1.00  0.00    -0.090 C  
HETATM   22  C   UNL     1      -7.411   7.070  70.572  1.00  0.00    -0.076 C  
HETATM   23  C   UNL     1      -8.068   8.449  70.522  1.00  0.00    -0.107 C  
HETATM   24  C   UNL     1      -8.947   8.537  69.280  1.00  0.00    -0.146 C  
BRANCH  22  25
HETATM   25  N   UNL     1      -8.380   5.999  70.845  1.00  0.00    -0.125 N  
HETATM   26  C   UNL     1      -8.775   4.939  69.993  1.00  0.00    -0.094 C  
HETATM   27  O   UNL     1      -8.378   4.658  68.877  1.00  0.00    -0.081 OA 
HETATM   28  N   UNL     1      -9.759   4.211  70.680  1.00  0.00    -0.197 NA 
HETATM   29  C   UNL     1      -9.991   4.798  71.910  1.00  0.00    -0.190 A  
HETATM   30  C   UNL     1     -10.897   4.426  72.885  1.00  0.00    -0.257 A  
HETATM   31  C   UNL     1     -10.964   5.226  74.022  1.00  0.00    -0.049 A  
HETATM   32  C   UNL     1     -10.132   6.354  74.161  1.00  0.00    -0.353 A  
HETATM   33  C   UNL     1      -9.199   6.690  73.169  1.00  0.00    -0.142 A  
HETATM   34  C   UNL     1      -9.153   5.903  72.033  1.00  0.00    -0.144 A  
ENDBRANCH  22  25
ENDBRANCH  18  19
ENDBRANCH  17  18
ENDBRANCH   8  17
TORSDOF 4
ENDMDL
MODEL       78
REMARK 921   NORMALIZED FREE ENERGY PREDICTED BY IDOCK:   -6.31 KCAL/MOL
REMARK 922        TOTAL FREE ENERGY PREDICTED BY IDOCK:   -8.57 KCAL/MOL
REMARK 923 INTER-LIGAND FREE ENERGY PREDICTED BY IDOCK:   -8.12 KCAL/MOL
REMARK 924 INTRA-LIGAND FREE ENERGY PREDICTED BY IDOCK:   -0.45 KCAL/MOL
REMARK 927      BINDING AFFINITY PREDICTED BY RF-SCORE:    0.00 PKD
ROOT
HETATM    1  F   UNL     1     -13.650  12.336  72.315  1.00  0.00    -0.589 F  
HETATM    2  C   UNL     1     -12.958  11.518  71.513  1.00  0.00    -0.380 A  
HETATM    3  C   UNL     1     -13.274  10.168  71.465  1.00  0.00    -0.496 A  
HETATM    4  C   UNL     1     -12.538   9.311  70.638  1.00  0.00     0.061 A  
HETATM    5  C   UNL     1     -11.476   9.798  69.848  1.00  0.00    -0.190 A  
HETATM    6  C   UNL     1     -10.636   8.821  69.006  1.00  0.00    -0.191 C  
HETATM    7  C   UNL     1     -11.186  11.172  69.923  1.00  0.00    -0.293 A  
HETATM    8  C   UNL     1     -10.737   9.030  67.463  1.00  0.00    -0.239 C  
HETATM    9  C   UNL     1     -11.920  12.027  70.748  1.00  0.00    -0.151 A  
HETATM   10  C   UNL     1      -9.233   8.493  69.538  1.00  0.00    -0.150 A  
HETATM   11  C   UNL     1      -8.688   9.099  70.682  1.00  0.00    -0.272 A  
HETATM   12  F   UNL     1      -5.564   7.286  71.061  1.00  0.00    -0.026 F  
HETATM   13  C   UNL     1      -8.494   7.460  68.931  1.00  0.00    -0.129 A  
HETATM   14  C   UNL     1      -7.444   8.701  71.187  1.00  0.00    -0.104 A  
HETATM   15  C   UNL     1      -6.740   7.682  70.558  1.00  0.00    -0.042 A  
HETATM   16  C   UNL     1      -7.252   7.057  69.433  1.00  0.00    -0.085 A  
ENDROOT
BRANCH   8  17
HETATM   17  C   UNL     1     -10.352  10.365  66.812  1.00  0.00    -0.294 C  
BRANCH  17  18
HETATM   18  C   UNL     1     -11.461  11.359  66.448  1.00  0.00     0.020 C  
BRANCH  18  19
HETATM   19  N   UNL     1     -11.075  12.697  65.997  1.00  0.00    -0.277 NA 
HETATM   20  C   UNL     1     -11.836  14.680  67.498  1.00  0.00    -0.375 C  
HETATM   21  C   UNL     1     -12.020  13.798  66.239  1.00  0.00    -0.429 C  
HETATM   22  C   UNL     1     -10.382  14.875  67.979  1.00  0.00    -0.244 C  
HETATM   23  C   UNL     1      -9.704  13.507  67.901  1.00  0.00    -0.225 C  
HETATM   24  C   UNL     1      -9.720  13.025  66.455  1.00  0.00    -0.266 C  
BRANCH  22  25
HETATM   25  N   UNL     1      -9.589  15.929  67.330  1.00  0.00    -0.220 N  
HETATM   26  C   UNL     1      -9.796  16.523  66.061  1.00  0.00    -0.322 C  
HETATM   27  O   UNL     1     -10.686  16.325  65.253  1.00  0.00    -0.459 OA 
HETATM   28  N   UNL     1      -8.749  17.437  65.866  1.00  0.00    -0.530 NA 
HETATM   29  C   UNL     1      -7.904  17.409  66.959  1.00  0.00    -0.210 A  
HETATM   30  C   UNL     1      -6.740  18.124  67.166  1.00  0.00    -0.205 A  
HETATM   31  C   UNL     1      -6.044  17.870  68.345  1.00  0.00    -0.179 A  
HETATM   32  C   UNL     1      -6.525  16.931  69.278  1.00  0.00    -0.228 A  
HETATM   33  C   UNL     1      -7.727  16.243  69.057  1.00  0.00    -0.224 A  
HETATM   34  C   UNL     1      -8.401  16.486  67.875  1.00  0.00    -0.173 A  
ENDBRANCH  22  25
ENDBRANCH  18  19
ENDBRANCH  17  18
ENDBRANCH   8  17
TORSDOF 4
ENDMDL
MODEL       79
REMARK 921   NORMALIZED FREE ENERGY PREDICTED BY IDOCK:   -6.30 KCAL/MOL
REMARK 922        TOTAL FREE ENERGY PREDICTED BY IDOCK:   -8.56 KCAL/MOL
REMARK 923 INTER-LIGAND FREE ENERGY PREDICTED BY IDOCK:   -8.01 KCAL/MOL
REMARK 924 INTRA-LIGAND FREE ENERGY PREDICTED BY IDOCK:   -0.56 KCAL/MOL
REMARK 927      BINDING AFFINITY PREDICTED BY RF-SCORE:    0.00 PKD
ROOT
HETATM    1  F   UNL     1     -10.212  19.171  68.613  1.00  0.00    -0.411 F  
HETATM    2  C   UNL     1      -9.914  17.984  68.069  1.00  0.00    -0.343 A  
HETATM    3  C   UNL     1      -9.219  17.930  66.870  1.00  0.00    -0.267 A  
HETATM    4  C   UNL     1      -8.924  16.688  66.295  1.00  0.00    -0.340 A  
HETATM    5  C   UNL     1      -9.320  15.486  66.916  1.00  0.00    -0.252 A  
HETATM    6  C   UNL     1      -9.047  14.138  66.223  1.00  0.00    -0.072 C  
HETATM    7  C   UNL     1     -10.022  15.581  68.130  1.00  0.00    -0.217 A  
HETATM    8  C   UNL     1      -8.063  13.197  66.984  1.00  0.00    -0.032 C  
HETATM    9  C   UNL     1     -10.317  16.820  68.705  1.00  0.00    -0.318 A  
HETATM   10  C   UNL     1     -10.256  13.447  65.576  1.00  0.00    -0.300 A  
HETATM   11  C   UNL     1     -11.564  13.949  65.666  1.00  0.00    -0.338 A  
HETATM   12  F   UNL     1     -13.386  11.663  63.513  1.00  0.00    -0.503 F  
HETATM   13  C   UNL     1     -10.045  12.321  64.758  1.00  0.00    -0.271 A  
HETATM   14  C   UNL     1     -12.623  13.339  64.982  1.00  0.00    -0.483 A  
HETATM   15  C   UNL     1     -12.377  12.226  64.188  1.00  0.00    -0.451 A  
HETATM   16  C   UNL     1     -11.097  11.708  64.070  1.00  0.00    -0.458 A  
ENDROOT
BRANCH   8  17
HETATM   17  C   UNL     1      -8.355  12.724  68.414  1.00  0.00    -0.119 C  
BRANCH  17  18
HETATM   18  C   UNL     1      -7.610  11.500  68.957  1.00  0.00    -0.058 C  
BRANCH  18  19
HETATM   19  N   UNL     1      -8.396  10.397  69.511  1.00  0.00    -0.147 NA 
HETATM   20  C   UNL     1     -10.443   9.624  68.107  1.00  0.00    -0.266 C  
HETATM   21  C   UNL     1      -9.851  10.419  69.295  1.00  0.00    -0.225 C  
HETATM   22  C   UNL     1      -9.687   8.338  67.711  1.00  0.00    -0.158 C  
HETATM   23  C   UNL     1      -8.197   8.677  67.734  1.00  0.00    -0.118 C  
HETATM   24  C   UNL     1      -7.805   9.106  69.143  1.00  0.00    -0.092 C  
BRANCH  22  25
HETATM   25  N   UNL     1      -9.993   7.113  68.465  1.00  0.00    -0.154 N  
HETATM   26  C   UNL     1     -10.820   6.972  69.605  1.00  0.00    -0.247 C  
HETATM   27  O   UNL     1     -11.486   7.813  70.184  1.00  0.00    -0.185 OA 
HETATM   28  N   UNL     1     -10.754   5.624  69.991  1.00  0.00    -0.323 NA 
HETATM   29  C   UNL     1      -9.904   4.944  69.140  1.00  0.00    -0.193 A  
HETATM   30  C   UNL     1      -9.531   3.614  69.177  1.00  0.00    -0.235 A  
HETATM   31  C   UNL     1      -8.613   3.189  68.221  1.00  0.00    -0.117 A  
HETATM   32  C   UNL     1      -8.104   4.084  67.261  1.00  0.00    -0.095 A  
HETATM   33  C   UNL     1      -8.525   5.423  67.226  1.00  0.00    -0.106 A  
HETATM   34  C   UNL     1      -9.422   5.842  68.191  1.00  0.00    -0.111 A  
ENDBRANCH  22  25
ENDBRANCH  18  19
ENDBRANCH  17  18
ENDBRANCH   8  17
TORSDOF 4
ENDMDL
MODEL       80
REMARK 921   NORMALIZED FREE ENERGY PREDICTED BY IDOCK:   -6.28 KCAL/MOL
REMARK 922        TOTAL FREE ENERGY PREDICTED BY IDOCK:   -8.54 KCAL/MOL
REMARK 923 INTER-LIGAND FREE ENERGY PREDICTED BY IDOCK:   -8.00 KCAL/MOL
REMARK 924 INTRA-LIGAND FREE ENERGY PREDICTED BY IDOCK:   -0.54 KCAL/MOL
REMARK 927      BINDING AFFINITY PREDICTED BY RF-SCORE:    0.00 PKD
ROOT
HETATM    1  F   UNL     1     -12.408  15.645  73.220  1.00  0.00    -0.422 F  
HETATM    2  C   UNL     1     -12.328  15.073  72.011  1.00  0.00    -0.347 A  
HETATM    3  C   UNL     1     -13.324  14.204  71.592  1.00  0.00    -0.440 A  
HETATM    4  C   UNL     1     -13.229  13.594  70.335  1.00  0.00     0.292 A  
HETATM    5  C   UNL     1     -12.136  13.852  69.483  1.00  0.00    -0.393 A  
HETATM    6  C   UNL     1     -12.021  13.110  68.138  1.00  0.00    -0.333 C  
HETATM    7  C   UNL     1     -11.147  14.739  69.942  1.00  0.00    -0.266 A  
HETATM    8  C   UNL     1     -12.109  14.023  66.876  1.00  0.00    -0.465 C  
HETATM    9  C   UNL     1     -11.241  15.347  71.196  1.00  0.00    -0.410 A  
HETATM   10  C   UNL     1     -10.980  11.983  68.068  1.00  0.00    -0.267 A  
HETATM   11  C   UNL     1     -10.109  11.678  69.127  1.00  0.00     0.053 A  
HETATM   12  F   UNL     1      -8.435   8.708  67.875  1.00  0.00    -0.123 F  
HETATM   13  C   UNL     1     -10.961  11.137  66.943  1.00  0.00    -0.333 A  
HETATM   14  C   UNL     1      -9.240  10.582  69.056  1.00  0.00    -0.193 A  
HETATM   15  C   UNL     1      -9.246   9.772  67.927  1.00  0.00    -0.124 A  
HETATM   16  C   UNL     1     -10.097  10.040  66.867  1.00  0.00    -0.287 A  
ENDROOT
BRANCH   8  17
HETATM   17  C   UNL     1     -11.117  15.171  66.650  1.00  0.00    -0.308 C  
BRANCH  17  18
HETATM   18  C   UNL     1      -9.619  14.855  66.586  1.00  0.00    -0.266 C  
BRANCH  18  19
HETATM   19  N   UNL     1      -8.812  15.063  67.790  1.00  0.00    -0.168 NA 
HETATM   20  C   UNL     1      -6.237  14.844  67.501  1.00  0.00    -0.036 C  
HETATM   21  C   UNL     1      -7.596  14.250  67.946  1.00  0.00    -0.153 C  
HETATM   22  C   UNL     1      -6.090  16.374  67.640  1.00  0.00    -0.143 C  
HETATM   23  C   UNL     1      -7.394  16.991  67.134  1.00  0.00    -0.202 C  
HETATM   24  C   UNL     1      -8.549  16.491  67.994  1.00  0.00    -0.184 C  
BRANCH  22  25
HETATM   25  N   UNL     1      -5.699  16.900  68.957  1.00  0.00    -0.144 N  
HETATM   26  C   UNL     1      -5.405  16.173  70.136  1.00  0.00    -0.161 C  
HETATM   27  O   UNL     1      -5.372  14.968  70.311  1.00  0.00    -0.109 OA 
HETATM   28  N   UNL     1      -5.136  17.118  71.139  1.00  0.00    -0.382 NA 
HETATM   29  C   UNL     1      -5.273  18.391  70.619  1.00  0.00    -0.266 A  
HETATM   30  C   UNL     1      -5.131  19.605  71.264  1.00  0.00    -0.309 A  
HETATM   31  C   UNL     1      -5.375  20.751  70.514  1.00  0.00    -0.265 A  
HETATM   32  C   UNL     1      -5.738  20.661  69.156  1.00  0.00    -0.402 A  
HETATM   33  C   UNL     1      -5.844  19.416  68.518  1.00  0.00    -0.233 A  
HETATM   34  C   UNL     1      -5.621  18.282  69.275  1.00  0.00    -0.210 A  
ENDBRANCH  22  25
ENDBRANCH  18  19
ENDBRANCH  17  18
ENDBRANCH   8  17
TORSDOF 4
ENDMDL
MODEL       81
REMARK 921   NORMALIZED FREE ENERGY PREDICTED BY IDOCK:   -6.27 KCAL/MOL
REMARK 922        TOTAL FREE ENERGY PREDICTED BY IDOCK:   -8.52 KCAL/MOL
REMARK 923 INTER-LIGAND FREE ENERGY PREDICTED BY IDOCK:   -8.00 KCAL/MOL
REMARK 924 INTRA-LIGAND FREE ENERGY PREDICTED BY IDOCK:   -0.52 KCAL/MOL
REMARK 927      BINDING AFFINITY PREDICTED BY RF-SCORE:    0.00 PKD
ROOT
HETATM    1  F   UNL     1     -10.235  10.412  62.738  1.00  0.00    -0.264 F  
HETATM    2  C   UNL     1     -10.558  11.270  63.715  1.00  0.00    -0.392 A  
HETATM    3  C   UNL     1     -11.731  12.005  63.627  1.00  0.00    -0.587 A  
HETATM    4  C   UNL     1     -12.057  12.914  64.641  1.00  0.00    -0.474 A  
HETATM    5  C   UNL     1     -11.213  13.094  65.756  1.00  0.00    -0.309 A  
HETATM    6  C   UNL     1     -11.560  14.154  66.817  1.00  0.00    -0.409 C  
HETATM    7  C   UNL     1     -10.034  12.331  65.809  1.00  0.00    -0.273 A  
HETATM    8  C   UNL     1     -11.872  13.584  68.235  1.00  0.00    -0.401 C  
HETATM    9  C   UNL     1      -9.707  11.424  64.798  1.00  0.00    -0.280 A  
HETATM   10  C   UNL     1     -10.726  15.444  66.792  1.00  0.00    -0.310 A  
HETATM   11  C   UNL     1      -9.647  15.640  65.915  1.00  0.00    -0.385 A  
HETATM   12  F   UNL     1      -8.758  19.094  66.597  1.00  0.00    -0.273 F  
HETATM   13  C   UNL     1     -11.119  16.529  67.597  1.00  0.00    -0.127 A  
HETATM   14  C   UNL     1      -8.973  16.867  65.860  1.00  0.00    -0.075 A  
HETATM   15  C   UNL     1      -9.386  17.914  66.674  1.00  0.00    -0.286 A  
HETATM   16  C   UNL     1     -10.452  17.758  67.544  1.00  0.00    -0.376 A  
ENDROOT
BRANCH   8  17
HETATM   17  C   UNL     1     -10.843  12.743  69.002  1.00  0.00    -0.192 C  
BRANCH  17  18
HETATM   18  C   UNL     1     -11.178  11.285  69.336  1.00  0.00    -0.280 C  
BRANCH  18  19
HETATM   19  N   UNL     1     -10.080  10.320  69.409  1.00  0.00    -0.224 NA 
HETATM   20  C   UNL     1     -10.703   7.930  70.222  1.00  0.00    -0.236 C  
HETATM   21  C   UNL     1     -10.110   9.333  70.499  1.00  0.00    -0.255 C  
HETATM   22  C   UNL     1     -10.527   7.394  68.785  1.00  0.00    -0.199 C  
HETATM   23  C   UNL     1     -10.840   8.554  67.840  1.00  0.00    -0.045 C  
HETATM   24  C   UNL     1      -9.859   9.690  68.103  1.00  0.00    -0.150 C  
BRANCH  22  25
HETATM   25  N   UNL     1      -9.253   6.736  68.459  1.00  0.00    -0.129 N  
HETATM   26  C   UNL     1      -7.991   6.922  69.073  1.00  0.00    -0.116 C  
HETATM   27  O   UNL     1      -7.690   7.627  70.020  1.00  0.00    -0.089 OA 
HETATM   28  N   UNL     1      -7.078   6.113  68.378  1.00  0.00    -0.080 NA 
HETATM   29  C   UNL     1      -7.734   5.456  67.354  1.00  0.00    -0.096 A  
HETATM   30  C   UNL     1      -7.211   4.591  66.411  1.00  0.00    -0.076 A  
HETATM   31  C   UNL     1      -8.088   4.102  65.448  1.00  0.00    -0.101 A  
HETATM   32  C   UNL     1      -9.446   4.472  65.454  1.00  0.00    -0.175 A  
HETATM   33  C   UNL     1      -9.957   5.327  66.443  1.00  0.00    -0.227 A  
HETATM   34  C   UNL     1      -9.076   5.826  67.383  1.00  0.00    -0.110 A  
ENDBRANCH  22  25
ENDBRANCH  18  19
ENDBRANCH  17  18
ENDBRANCH   8  17
TORSDOF 4
ENDMDL
MODEL       82
REMARK 921   NORMALIZED FREE ENERGY PREDICTED BY IDOCK:   -6.25 KCAL/MOL
REMARK 922        TOTAL FREE ENERGY PREDICTED BY IDOCK:   -8.50 KCAL/MOL
REMARK 923 INTER-LIGAND FREE ENERGY PREDICTED BY IDOCK:   -8.20 KCAL/MOL
REMARK 924 INTRA-LIGAND FREE ENERGY PREDICTED BY IDOCK:   -0.30 KCAL/MOL
REMARK 927      BINDING AFFINITY PREDICTED BY RF-SCORE:    0.00 PKD
ROOT
HETATM    1  F   UNL     1     -12.259  15.381  72.922  1.00  0.00    -0.388 F  
HETATM    2  C   UNL     1     -12.028  14.927  71.683  1.00  0.00    -0.363 A  
HETATM    3  C   UNL     1     -12.666  13.778  71.239  1.00  0.00    -0.450 A  
HETATM    4  C   UNL     1     -12.409  13.296  69.951  1.00  0.00    -0.228 A  
HETATM    5  C   UNL     1     -11.511  13.961  69.091  1.00  0.00    -0.345 A  
HETATM    6  C   UNL     1     -11.192  13.367  67.707  1.00  0.00    -0.306 C  
HETATM    7  C   UNL     1     -10.884  15.122  69.576  1.00  0.00    -0.270 A  
HETATM    8  C   UNL     1     -11.645  14.240  66.497  1.00  0.00    -0.390 C  
HETATM    9  C   UNL     1     -11.140  15.604  70.862  1.00  0.00    -0.377 A  
HETATM   10  C   UNL     1      -9.822  12.688  67.555  1.00  0.00    -0.203 A  
HETATM   11  C   UNL     1      -8.860  12.668  68.579  1.00  0.00    -0.044 A  
HETATM   12  F   UNL     1      -6.290  10.545  67.139  1.00  0.00    -0.061 F  
HETATM   13  C   UNL     1      -9.547  11.952  66.387  1.00  0.00    -0.239 A  
HETATM   14  C   UNL     1      -7.662  11.957  68.433  1.00  0.00    -0.131 A  
HETATM   15  C   UNL     1      -7.424  11.246  67.263  1.00  0.00    -0.126 A  
HETATM   16  C   UNL     1      -8.354  11.238  66.237  1.00  0.00    -0.142 A  
ENDROOT
BRANCH   8  17
HETATM   17  C   UNL     1     -11.134  15.675  66.312  1.00  0.00    -0.127 C  
BRANCH  17  18
HETATM   18  C   UNL     1      -9.627  15.912  66.165  1.00  0.00    -0.333 C  
BRANCH  18  19
HETATM   19  N   UNL     1      -8.958  16.759  67.154  1.00  0.00    -0.201 NA 
HETATM   20  C   UNL     1      -6.360  16.649  67.192  1.00  0.00    -0.219 C  
HETATM   21  C   UNL     1      -7.732  16.240  67.780  1.00  0.00    -0.142 C  
HETATM   22  C   UNL     1      -6.290  18.053  66.553  1.00  0.00    -0.204 C  
HETATM   23  C   UNL     1      -7.559  18.221  65.717  1.00  0.00    -0.069 C  
HETATM   24  C   UNL     1      -8.775  18.117  66.630  1.00  0.00    -0.264 C  
BRANCH  22  25
HETATM   25  N   UNL     1      -6.057  19.195  67.450  1.00  0.00    -0.189 N  
HETATM   26  C   UNL     1      -5.984  20.569  67.116  1.00  0.00    -0.193 C  
HETATM   27  O   UNL     1      -6.135  21.108  66.034  1.00  0.00    -0.256 OA 
HETATM   28  N   UNL     1      -5.695  21.260  68.303  1.00  0.00    -0.311 NA 
HETATM   29  C   UNL     1      -5.571  20.358  69.342  1.00  0.00    -0.320 A  
HETATM   30  C   UNL     1      -5.262  20.606  70.666  1.00  0.00    -0.289 A  
HETATM   31  C   UNL     1      -5.150  19.502  71.505  1.00  0.00    -0.360 A  
HETATM   32  C   UNL     1      -5.356  18.198  71.014  1.00  0.00    -0.210 A  
HETATM   33  C   UNL     1      -5.700  17.978  69.672  1.00  0.00    -0.235 A  
HETATM   34  C   UNL     1      -5.789  19.078  68.840  1.00  0.00    -0.212 A  
ENDBRANCH  22  25
ENDBRANCH  18  19
ENDBRANCH  17  18
ENDBRANCH   8  17
TORSDOF 4
ENDMDL
MODEL       83
REMARK 921   NORMALIZED FREE ENERGY PREDICTED BY IDOCK:   -6.25 KCAL/MOL
REMARK 922        TOTAL FREE ENERGY PREDICTED BY IDOCK:   -8.50 KCAL/MOL
REMARK 923 INTER-LIGAND FREE ENERGY PREDICTED BY IDOCK:   -8.04 KCAL/MOL
REMARK 924 INTRA-LIGAND FREE ENERGY PREDICTED BY IDOCK:   -0.46 KCAL/MOL
REMARK 927      BINDING AFFINITY PREDICTED BY RF-SCORE:    0.00 PKD
ROOT
HETATM    1  F   UNL     1     -11.926  13.589  62.508  1.00  0.00     0.038 F  
HETATM    2  C   UNL     1     -11.729  13.242  63.786  1.00  0.00    -0.421 A  
HETATM    3  C   UNL     1     -12.572  12.320  64.389  1.00  0.00    -0.447 A  
HETATM    4  C   UNL     1     -12.374  11.972  65.730  1.00  0.00     0.454 A  
HETATM    5  C   UNL     1     -11.325  12.541  66.482  1.00  0.00    -0.387 A  
HETATM    6  C   UNL     1     -11.177  12.196  67.975  1.00  0.00    -0.319 C  
HETATM    7  C   UNL     1     -10.492  13.471  65.836  1.00  0.00    -0.292 A  
HETATM    8  C   UNL     1      -9.868  11.432  68.345  1.00  0.00    -0.205 C  
HETATM    9  C   UNL     1     -10.689  13.819  64.498  1.00  0.00    -0.405 A  
HETATM   10  C   UNL     1     -11.615  13.279  68.973  1.00  0.00    -0.359 A  
HETATM   11  C   UNL     1     -12.051  14.553  68.577  1.00  0.00    -0.257 A  
HETATM   12  F   UNL     1     -13.077  16.003  71.744  1.00  0.00    -0.510 F  
HETATM   13  C   UNL     1     -11.695  12.958  70.341  1.00  0.00    -0.109 A  
HETATM   14  C   UNL     1     -12.531  15.478  69.513  1.00  0.00    -0.081 A  
HETATM   15  C   UNL     1     -12.591  15.127  70.856  1.00  0.00    -0.379 A  
HETATM   16  C   UNL     1     -12.176  13.876  71.281  1.00  0.00    -0.353 A  
ENDROOT
BRANCH   8  17
HETATM   17  C   UNL     1      -8.486  12.031  68.056  1.00  0.00    -0.168 C  
BRANCH  17  18
HETATM   18  C   UNL     1      -8.030  13.262  68.847  1.00  0.00     0.140 C  
BRANCH  18  19
HETATM   19  N   UNL     1      -8.462  14.582  68.387  1.00  0.00    -0.157 NA 
HETATM   20  C   UNL     1      -7.209  16.621  69.404  1.00  0.00    -0.132 C  
HETATM   21  C   UNL     1      -8.441  15.685  69.360  1.00  0.00    -0.244 C  
HETATM   22  C   UNL     1      -6.483  16.848  68.061  1.00  0.00    -0.144 C  
HETATM   23  C   UNL     1      -6.381  15.483  67.379  1.00  0.00    -0.106 C  
HETATM   24  C   UNL     1      -7.783  14.940  67.136  1.00  0.00    -0.142 C  
BRANCH  22  25
HETATM   25  N   UNL     1      -7.025  17.880  67.164  1.00  0.00    -0.176 N  
HETATM   26  C   UNL     1      -6.525  18.295  65.906  1.00  0.00    -0.259 C  
HETATM   27  O   UNL     1      -5.574  17.869  65.275  1.00  0.00    -0.105 OA 
HETATM   28  N   UNL     1      -7.352  19.340  65.466  1.00  0.00    -0.447 NA 
HETATM   29  C   UNL     1      -8.324  19.588  66.416  1.00  0.00    -0.347 A  
HETATM   30  C   UNL     1      -9.318  20.549  66.401  1.00  0.00    -0.213 A  
HETATM   31  C   UNL     1     -10.145  20.619  67.518  1.00  0.00    -0.346 A  
HETATM   32  C   UNL     1      -9.969  19.738  68.603  1.00  0.00    -0.535 A  
HETATM   33  C   UNL     1      -8.972  18.751  68.577  1.00  0.00    -0.375 A  
HETATM   34  C   UNL     1      -8.142  18.701  67.473  1.00  0.00    -0.249 A  
ENDBRANCH  22  25
ENDBRANCH  18  19
ENDBRANCH  17  18
ENDBRANCH   8  17
TORSDOF 4
ENDMDL
MODEL       84
REMARK 921   NORMALIZED FREE ENERGY PREDICTED BY IDOCK:   -6.24 KCAL/MOL
REMARK 922        TOTAL FREE ENERGY PREDICTED BY IDOCK:   -8.49 KCAL/MOL
REMARK 923 INTER-LIGAND FREE ENERGY PREDICTED BY IDOCK:   -8.21 KCAL/MOL
REMARK 924 INTRA-LIGAND FREE ENERGY PREDICTED BY IDOCK:   -0.28 KCAL/MOL
REMARK 927      BINDING AFFINITY PREDICTED BY RF-SCORE:    0.00 PKD
ROOT
HETATM    1  F   UNL     1     -10.959  17.470  64.670  1.00  0.00    -0.220 F  
HETATM    2  C   UNL     1     -11.022  16.186  65.047  1.00  0.00    -0.344 A  
HETATM    3  C   UNL     1     -12.152  15.436  64.755  1.00  0.00    -0.034 A  
HETATM    4  C   UNL     1     -12.223  14.099  65.165  1.00  0.00    -0.439 A  
HETATM    5  C   UNL     1     -11.160  13.498  65.870  1.00  0.00    -0.292 A  
HETATM    6  C   UNL     1     -11.297  12.049  66.373  1.00  0.00    -0.411 C  
HETATM    7  C   UNL     1     -10.032  14.289  66.147  1.00  0.00    -0.330 A  
HETATM    8  C   UNL     1     -10.301  11.035  65.730  1.00  0.00    -0.316 C  
HETATM    9  C   UNL     1      -9.961  15.623  65.738  1.00  0.00    -0.390 A  
HETATM   10  C   UNL     1     -11.543  11.870  67.879  1.00  0.00    -0.393 A  
HETATM   11  C   UNL     1     -11.565  12.943  68.784  1.00  0.00    -0.351 A  
HETATM   12  F   UNL     1     -12.540  11.292  71.868  1.00  0.00    -0.424 F  
HETATM   13  C   UNL     1     -11.876  10.594  68.372  1.00  0.00    -0.043 A  
HETATM   14  C   UNL     1     -11.887  12.746  70.132  1.00  0.00    -0.326 A  
HETATM   15  C   UNL     1     -12.205  11.472  70.584  1.00  0.00    -0.378 A  
HETATM   16  C   UNL     1     -12.201  10.391  69.717  1.00  0.00    -0.166 A  
ENDROOT
BRANCH   8  17
HETATM   17  C   UNL     1      -8.783  11.229  65.839  1.00  0.00    -0.146 C  
BRANCH  17  18
HETATM   18  C   UNL     1      -8.038  10.603  67.023  1.00  0.00    -0.120 C  
BRANCH  18  19
HETATM   19  N   UNL     1      -8.815   9.867  68.022  1.00  0.00    -0.125 NA 
HETATM   20  C   UNL     1      -7.786   7.632  68.863  1.00  0.00    -0.117 C  
HETATM   21  C   UNL     1      -8.786   8.398  67.963  1.00  0.00    -0.142 C  
HETATM   22  C   UNL     1      -7.450   8.294  70.216  1.00  0.00    -0.066 C  
HETATM   23  C   UNL     1      -7.242   9.783  69.940  1.00  0.00    -0.116 C  
HETATM   24  C   UNL     1      -8.529  10.369  69.371  1.00  0.00    -0.134 C  
BRANCH  22  25
HETATM   25  N   UNL     1      -8.376   8.058  71.333  1.00  0.00    -0.106 N  
HETATM   26  C   UNL     1      -8.148   8.260  72.716  1.00  0.00    -0.146 C  
HETATM   27  O   UNL     1      -7.162   8.705  73.278  1.00  0.00    -0.323 OA 
HETATM   28  N   UNL     1      -9.309   7.843  73.385  1.00  0.00    -0.282 NA 
HETATM   29  C   UNL     1     -10.228   7.379  72.463  1.00  0.00    -0.216 A  
HETATM   30  C   UNL     1     -11.484   6.849  72.691  1.00  0.00    -0.235 A  
HETATM   31  C   UNL     1     -12.194   6.406  71.579  1.00  0.00    -0.233 A  
HETATM   32  C   UNL     1     -11.646   6.510  70.285  1.00  0.00    -0.473 A  
HETATM   33  C   UNL     1     -10.382   7.082  70.080  1.00  0.00    -0.213 A  
HETATM   34  C   UNL     1      -9.675   7.500  71.191  1.00  0.00    -0.162 A  
ENDBRANCH  22  25
ENDBRANCH  18  19
ENDBRANCH  17  18
ENDBRANCH   8  17
TORSDOF 4
ENDMDL
MODEL       85
REMARK 921   NORMALIZED FREE ENERGY PREDICTED BY IDOCK:   -6.24 KCAL/MOL
REMARK 922        TOTAL FREE ENERGY PREDICTED BY IDOCK:   -8.49 KCAL/MOL
REMARK 923 INTER-LIGAND FREE ENERGY PREDICTED BY IDOCK:   -8.14 KCAL/MOL
REMARK 924 INTRA-LIGAND FREE ENERGY PREDICTED BY IDOCK:   -0.35 KCAL/MOL
REMARK 927      BINDING AFFINITY PREDICTED BY RF-SCORE:    0.00 PKD
ROOT
HETATM    1  F   UNL     1     -12.865  16.287  71.424  1.00  0.00    -0.432 F  
HETATM    2  C   UNL     1     -12.199  15.455  70.612  1.00  0.00    -0.385 A  
HETATM    3  C   UNL     1     -11.069  15.901  69.943  1.00  0.00    -0.343 A  
HETATM    4  C   UNL     1     -10.385  15.034  69.082  1.00  0.00    -0.249 A  
HETATM    5  C   UNL     1     -10.826  13.709  68.884  1.00  0.00    -0.264 A  
HETATM    6  C   UNL     1     -10.098  12.802  67.875  1.00  0.00    -0.231 C  
HETATM    7  C   UNL     1     -11.975  13.294  69.579  1.00  0.00    -0.366 A  
HETATM    8  C   UNL     1      -9.395  11.558  68.499  1.00  0.00    -0.171 C  
HETATM    9  C   UNL     1     -12.658  14.159  70.439  1.00  0.00    -0.397 A  
HETATM   10  C   UNL     1     -10.815  12.555  66.539  1.00  0.00    -0.287 A  
HETATM   11  C   UNL     1     -12.100  13.047  66.257  1.00  0.00    -0.453 A  
HETATM   12  F   UNL     1     -12.511  12.095  62.777  1.00  0.00    -0.346 F  
HETATM   13  C   UNL     1     -10.123  11.905  65.499  1.00  0.00    -0.277 A  
HETATM   14  C   UNL     1     -12.678  12.879  64.993  1.00  0.00    -0.474 A  
HETATM   15  C   UNL     1     -11.966  12.228  63.993  1.00  0.00    -0.462 A  
HETATM   16  C   UNL     1     -10.694  11.737  64.234  1.00  0.00    -0.395 A  
ENDROOT
BRANCH   8  17
HETATM   17  C   UNL     1     -10.183  10.513  69.300  1.00  0.00    -0.245 C  
BRANCH  17  18
HETATM   18  C   UNL     1     -10.305   9.090  68.743  1.00  0.00    -0.215 C  
BRANCH  18  19
HETATM   19  N   UNL     1      -9.632   8.777  67.482  1.00  0.00    -0.147 NA 
HETATM   20  C   UNL     1      -7.755   6.982  67.593  1.00  0.00    -0.112 C  
HETATM   21  C   UNL     1      -8.196   8.464  67.532  1.00  0.00    -0.125 C  
HETATM   22  C   UNL     1      -8.675   5.973  66.873  1.00  0.00    -0.112 C  
HETATM   23  C   UNL     1     -10.112   6.356  67.227  1.00  0.00    -0.207 C  
HETATM   24  C   UNL     1     -10.388   7.770  66.730  1.00  0.00    -0.277 C  
BRANCH  22  25
HETATM   25  N   UNL     1      -8.485   5.796  65.426  1.00  0.00    -0.149 N  
HETATM   26  C   UNL     1      -7.842   6.669  64.515  1.00  0.00    -0.115 C  
HETATM   27  O   UNL     1      -7.276   7.727  64.730  1.00  0.00    -0.062 OA 
HETATM   28  N   UNL     1      -7.962   6.089  63.243  1.00  0.00    -0.113 NA 
HETATM   29  C   UNL     1      -8.669   4.906  63.342  1.00  0.00    -0.111 A  
HETATM   30  C   UNL     1      -9.040   4.036  62.333  1.00  0.00    -0.104 A  
HETATM   31  C   UNL     1      -9.799   2.930  62.702  1.00  0.00    -0.092 A  
HETATM   32  C   UNL     1     -10.156   2.715  64.047  1.00  0.00    -0.111 A  
HETATM   33  C   UNL     1      -9.739   3.597  65.055  1.00  0.00    -0.162 A  
HETATM   34  C   UNL     1      -9.003   4.705  64.679  1.00  0.00    -0.151 A  
ENDBRANCH  22  25
ENDBRANCH  18  19
ENDBRANCH  17  18
ENDBRANCH   8  17
TORSDOF 4
ENDMDL
MODEL       86
REMARK 921   NORMALIZED FREE ENERGY PREDICTED BY IDOCK:   -6.22 KCAL/MOL
REMARK 922        TOTAL FREE ENERGY PREDICTED BY IDOCK:   -8.46 KCAL/MOL
REMARK 923 INTER-LIGAND FREE ENERGY PREDICTED BY IDOCK:   -7.05 KCAL/MOL
REMARK 924 INTRA-LIGAND FREE ENERGY PREDICTED BY IDOCK:   -1.41 KCAL/MOL
REMARK 927      BINDING AFFINITY PREDICTED BY RF-SCORE:    0.00 PKD
ROOT
HETATM    1  F   UNL     1      -6.395  21.369  64.973  1.00  0.00    -0.246 F  
HETATM    2  C   UNL     1      -6.811  20.475  65.880  1.00  0.00    -0.204 A  
HETATM    3  C   UNL     1      -6.433  20.611  67.207  1.00  0.00    -0.326 A  
HETATM    4  C   UNL     1      -6.855  19.665  68.150  1.00  0.00    -0.314 A  
HETATM    5  C   UNL     1      -7.663  18.573  67.772  1.00  0.00    -0.245 A  
HETATM    6  C   UNL     1      -8.050  17.509  68.815  1.00  0.00    -0.232 C  
HETATM    7  C   UNL     1      -8.026  18.469  66.418  1.00  0.00    -0.291 A  
HETATM    8  C   UNL     1      -9.576  17.419  69.126  1.00  0.00    -0.069 C  
HETATM    9  C   UNL     1      -7.605  19.413  65.477  1.00  0.00     0.038 A  
HETATM   10  C   UNL     1      -7.314  16.164  68.723  1.00  0.00    -0.184 A  
HETATM   11  C   UNL     1      -6.394  15.863  67.705  1.00  0.00    -0.189 A  
HETATM   12  F   UNL     1      -5.149  12.621  68.766  1.00  0.00    -0.055 F  
HETATM   13  C   UNL     1      -7.470  15.224  69.759  1.00  0.00    -0.122 A  
HETATM   14  C   UNL     1      -5.675  14.661  67.711  1.00  0.00    -0.079 A  
HETATM   15  C   UNL     1      -5.860  13.756  68.748  1.00  0.00    -0.084 A  
HETATM   16  C   UNL     1      -6.753  14.024  69.773  1.00  0.00    -0.038 A  
ENDROOT
BRANCH   8  17
HETATM   17  C   UNL     1     -10.599  17.117  68.023  1.00  0.00    -0.374 C  
BRANCH  17  18
HETATM   18  C   UNL     1     -11.615  15.991  68.243  1.00  0.00    -0.232 C  
BRANCH  18  19
HETATM   19  N   UNL     1     -11.623  14.868  67.304  1.00  0.00    -0.352 NA 
HETATM   20  C   UNL     1      -9.427  14.471  65.969  1.00  0.00    -0.262 C  
HETATM   21  C   UNL     1     -10.871  15.023  66.049  1.00  0.00    -0.334 C  
HETATM   22  C   UNL     1      -9.134  13.217  66.821  1.00  0.00    -0.210 C  
HETATM   23  C   UNL     1      -9.788  13.448  68.184  1.00  0.00    -0.234 C  
HETATM   24  C   UNL     1     -11.291  13.617  67.993  1.00  0.00    -0.285 C  
BRANCH  22  25
HETATM   25  N   UNL     1      -9.486  11.911  66.247  1.00  0.00    -0.224 N  
HETATM   26  C   UNL     1     -10.240  11.644  65.078  1.00  0.00    -0.275 C  
HETATM   27  O   UNL     1     -10.723  12.425  64.277  1.00  0.00    -0.307 OA 
HETATM   28  N   UNL     1     -10.349  10.248  64.975  1.00  0.00    -0.217 NA 
HETATM   29  C   UNL     1      -9.707   9.657  66.046  1.00  0.00    -0.264 A  
HETATM   30  C   UNL     1      -9.598   8.313  66.351  1.00  0.00    -0.300 A  
HETATM   31  C   UNL     1      -8.933   7.985  67.528  1.00  0.00    -0.143 A  
HETATM   32  C   UNL     1      -8.391   8.988  68.355  1.00  0.00    -0.124 A  
HETATM   33  C   UNL     1      -8.487  10.343  68.004  1.00  0.00    -0.119 A  
HETATM   34  C   UNL     1      -9.168  10.663  66.845  1.00  0.00    -0.155 A  
ENDBRANCH  22  25
ENDBRANCH  18  19
ENDBRANCH  17  18
ENDBRANCH   8  17
TORSDOF 4
ENDMDL
MODEL       87
REMARK 921   NORMALIZED FREE ENERGY PREDICTED BY IDOCK:   -6.20 KCAL/MOL
REMARK 922        TOTAL FREE ENERGY PREDICTED BY IDOCK:   -8.43 KCAL/MOL
REMARK 923 INTER-LIGAND FREE ENERGY PREDICTED BY IDOCK:   -8.46 KCAL/MOL
REMARK 924 INTRA-LIGAND FREE ENERGY PREDICTED BY IDOCK:    0.03 KCAL/MOL
REMARK 927      BINDING AFFINITY PREDICTED BY RF-SCORE:    0.00 PKD
ROOT
HETATM    1  F   UNL     1      -7.758   8.403  64.613  1.00  0.00    -0.088 F  
HETATM    2  C   UNL     1      -8.285   8.764  65.790  1.00  0.00    -0.121 A  
HETATM    3  C   UNL     1      -7.455   8.966  66.884  1.00  0.00    -0.083 A  
HETATM    4  C   UNL     1      -8.009   9.327  68.118  1.00  0.00    -0.099 A  
HETATM    5  C   UNL     1      -9.402   9.492  68.269  1.00  0.00    -0.139 A  
HETATM    6  C   UNL     1      -9.989   9.815  69.655  1.00  0.00    -0.244 C  
HETATM    7  C   UNL     1     -10.209   9.278  67.139  1.00  0.00    -0.324 A  
HETATM    8  C   UNL     1     -10.685  11.207  69.764  1.00  0.00    -0.069 C  
HETATM    9  C   UNL     1      -9.657   8.918  65.907  1.00  0.00    -0.293 A  
HETATM   10  C   UNL     1     -10.699   8.663  70.382  1.00  0.00    -0.248 A  
HETATM   11  C   UNL     1     -10.890   7.396  69.805  1.00  0.00    -0.246 A  
HETATM   12  F   UNL     1     -12.341   5.537  72.566  1.00  0.00    -0.307 F  
HETATM   13  C   UNL     1     -11.079   8.831  71.727  1.00  0.00    -0.417 A  
HETATM   14  C   UNL     1     -11.457   6.346  70.537  1.00  0.00    -0.444 A  
HETATM   15  C   UNL     1     -11.825   6.551  71.860  1.00  0.00    -0.334 A  
HETATM   16  C   UNL     1     -11.644   7.785  72.463  1.00  0.00    -0.422 A  
ENDROOT
BRANCH   8  17
HETATM   17  C   UNL     1     -11.868  11.580  68.862  1.00  0.00    -0.406 C  
BRANCH  17  18
HETATM   18  C   UNL     1     -11.707  12.735  67.868  1.00  0.00    -0.357 C  
BRANCH  18  19
HETATM   19  N   UNL     1     -10.635  13.706  68.097  1.00  0.00    -0.241 NA 
HETATM   20  C   UNL     1      -9.701  14.907  65.989  1.00  0.00    -0.358 C  
HETATM   21  C   UNL     1      -9.581  13.813  67.077  1.00  0.00    -0.251 C  
HETATM   22  C   UNL     1     -10.409  16.211  66.417  1.00  0.00    -0.315 C  
HETATM   23  C   UNL     1     -11.640  15.800  67.224  1.00  0.00     0.146 C  
HETATM   24  C   UNL     1     -11.192  15.015  68.452  1.00  0.00    -0.293 C  
BRANCH  22  25
HETATM   25  N   UNL     1      -9.599  17.224  67.110  1.00  0.00    -0.250 N  
HETATM   26  C   UNL     1      -9.996  18.513  67.543  1.00  0.00    -0.332 C  
HETATM   27  O   UNL     1     -11.089  19.047  67.477  1.00  0.00    -0.381 OA 
HETATM   28  N   UNL     1      -8.860  19.120  68.102  1.00  0.00    -0.308 NA 
HETATM   29  C   UNL     1      -7.785  18.258  68.007  1.00  0.00    -0.260 A  
HETATM   30  C   UNL     1      -6.476  18.465  68.403  1.00  0.00    -0.215 A  
HETATM   31  C   UNL     1      -5.570  17.441  68.147  1.00  0.00    -0.133 A  
HETATM   32  C   UNL     1      -5.984  16.250  67.521  1.00  0.00    -0.188 A  
HETATM   33  C   UNL     1      -7.326  16.053  67.159  1.00  0.00    -0.257 A  
HETATM   34  C   UNL     1      -8.216  17.082  67.398  1.00  0.00    -0.183 A  
ENDBRANCH  22  25
ENDBRANCH  18  19
ENDBRANCH  17  18
ENDBRANCH   8  17
TORSDOF 4
ENDMDL
MODEL       88
REMARK 921   NORMALIZED FREE ENERGY PREDICTED BY IDOCK:   -6.18 KCAL/MOL
REMARK 922        TOTAL FREE ENERGY PREDICTED BY IDOCK:   -8.41 KCAL/MOL
REMARK 923 INTER-LIGAND FREE ENERGY PREDICTED BY IDOCK:   -8.09 KCAL/MOL
REMARK 924 INTRA-LIGAND FREE ENERGY PREDICTED BY IDOCK:   -0.32 KCAL/MOL
REMARK 927      BINDING AFFINITY PREDICTED BY RF-SCORE:    0.00 PKD
ROOT
HETATM    1  F   UNL     1      -9.013   7.795  71.428  1.00  0.00    -0.127 F  
HETATM    2  C   UNL     1      -9.608   8.661  70.597  1.00  0.00    -0.186 A  
HETATM    3  C   UNL     1     -10.886   8.398  70.126  1.00  0.00    -0.238 A  
HETATM    4  C   UNL     1     -11.498   9.297  69.243  1.00  0.00     0.306 A  
HETATM    5  C   UNL     1     -10.836  10.470  68.825  1.00  0.00    -0.269 A  
HETATM    6  C   UNL     1     -11.504  11.400  67.796  1.00  0.00    -0.353 C  
HETATM    7  C   UNL     1      -9.543  10.701  69.323  1.00  0.00    -0.164 A  
HETATM    8  C   UNL     1     -11.854  12.824  68.330  1.00  0.00    -0.357 C  
HETATM    9  C   UNL     1      -8.931   9.805  70.204  1.00  0.00    -0.235 A  
HETATM   10  C   UNL     1     -10.946  11.349  66.366  1.00  0.00    -0.315 A  
HETATM   11  C   UNL     1      -9.835  10.569  66.005  1.00  0.00    -0.277 A  
HETATM   12  F   UNL     1      -9.733  11.044  62.407  1.00  0.00    -0.248 F  
HETATM   13  C   UNL     1     -11.634  12.019  65.337  1.00  0.00    -0.343 A  
HETATM   14  C   UNL     1      -9.417  10.477  64.672  1.00  0.00    -0.316 A  
HETATM   15  C   UNL     1     -10.119  11.157  63.684  1.00  0.00    -0.379 A  
HETATM   16  C   UNL     1     -11.223  11.930  64.003  1.00  0.00    -0.470 A  
ENDROOT
BRANCH   8  17
HETATM   17  C   UNL     1     -10.771  13.755  68.891  1.00  0.00    -0.249 C  
BRANCH  17  18
HETATM   18  C   UNL     1     -10.906  15.266  68.673  1.00  0.00    -0.253 C  
BRANCH  18  19
HETATM   19  N   UNL     1      -9.812  16.132  69.114  1.00  0.00    -0.238 NA 
HETATM   20  C   UNL     1      -7.410  15.368  68.475  1.00  0.00    -0.116 C  
HETATM   21  C   UNL     1      -8.551  15.490  69.514  1.00  0.00    -0.218 C  
HETATM   22  C   UNL     1      -7.329  16.498  67.426  1.00  0.00    -0.147 C  
HETATM   23  C   UNL     1      -8.759  16.772  66.960  1.00  0.00    -0.226 C  
HETATM   24  C   UNL     1      -9.594  17.219  68.153  1.00  0.00    -0.283 C  
BRANCH  22  25
HETATM   25  N   UNL     1      -6.621  17.729  67.810  1.00  0.00    -0.184 N  
HETATM   26  C   UNL     1      -6.060  18.058  69.067  1.00  0.00    -0.223 C  
HETATM   27  O   UNL     1      -6.002  17.391  70.085  1.00  0.00    -0.235 OA 
HETATM   28  N   UNL     1      -5.543  19.358  68.952  1.00  0.00    -0.204 NA 
HETATM   29  C   UNL     1      -5.784  19.838  67.679  1.00  0.00    -0.182 A  
HETATM   30  C   UNL     1      -5.473  21.078  67.152  1.00  0.00    -0.287 A  
HETATM   31  C   UNL     1      -5.876  21.326  65.844  1.00  0.00    -0.254 A  
HETATM   32  C   UNL     1      -6.560  20.345  65.100  1.00  0.00    -0.327 A  
HETATM   33  C   UNL     1      -6.835  19.083  65.650  1.00  0.00    -0.305 A  
HETATM   34  C   UNL     1      -6.450  18.851  66.957  1.00  0.00    -0.191 A  
ENDBRANCH  22  25
ENDBRANCH  18  19
ENDBRANCH  17  18
ENDBRANCH   8  17
TORSDOF 4
ENDMDL
MODEL       89
REMARK 921   NORMALIZED FREE ENERGY PREDICTED BY IDOCK:   -6.09 KCAL/MOL
REMARK 922        TOTAL FREE ENERGY PREDICTED BY IDOCK:   -8.30 KCAL/MOL
REMARK 923 INTER-LIGAND FREE ENERGY PREDICTED BY IDOCK:   -8.01 KCAL/MOL
REMARK 924 INTRA-LIGAND FREE ENERGY PREDICTED BY IDOCK:   -0.29 KCAL/MOL
REMARK 927      BINDING AFFINITY PREDICTED BY RF-SCORE:    0.00 PKD
ROOT
HETATM    1  F   UNL     1      -5.187   9.637  71.700  1.00  0.00    -0.051 F  
HETATM    2  C   UNL     1      -6.356   9.078  72.041  1.00  0.00    -0.001 A  
HETATM    3  C   UNL     1      -6.648   8.852  73.379  1.00  0.00     0.117 A  
HETATM    4  C   UNL     1      -7.862   8.251  73.731  1.00  0.00    -0.228 A  
HETATM    5  C   UNL     1      -8.799   7.873  72.748  1.00  0.00    -0.247 A  
HETATM    6  C   UNL     1     -10.093   7.147  73.160  1.00  0.00    -0.292 C  
HETATM    7  C   UNL     1      -8.467   8.118  71.404  1.00  0.00    -0.154 A  
HETATM    8  C   UNL     1     -11.408   7.936  72.874  1.00  0.00    -0.399 C  
HETATM    9  C   UNL     1      -7.255   8.717  71.051  1.00  0.00    -0.088 A  
HETATM   10  C   UNL     1     -10.151   5.639  72.873  1.00  0.00    -0.199 A  
HETATM   11  C   UNL     1      -9.131   4.949  72.197  1.00  0.00    -0.148 A  
HETATM   12  F   UNL     1     -10.275   1.511  72.443  1.00  0.00    -0.166 F  
HETATM   13  C   UNL     1     -11.212   4.881  73.401  1.00  0.00    -0.415 A  
HETATM   14  C   UNL     1      -9.180   3.559  72.039  1.00  0.00    -0.171 A  
HETATM   15  C   UNL     1     -10.246   2.844  72.571  1.00  0.00    -0.150 A  
HETATM   16  C   UNL     1     -11.265   3.491  73.249  1.00  0.00    -0.204 A  
ENDROOT
BRANCH   8  17
HETATM   17  C   UNL     1     -11.776   8.384  71.454  1.00  0.00    -0.332 C  
BRANCH  17  18
HETATM   18  C   UNL     1     -11.585   9.855  71.067  1.00  0.00    -0.389 C  
BRANCH  18  19
HETATM   19  N   UNL     1     -11.769  10.234  69.665  1.00  0.00    -0.200 NA 
HETATM   20  C   UNL     1     -11.042  12.647  69.022  1.00  0.00    -0.291 C  
HETATM   21  C   UNL     1     -12.150  11.626  69.379  1.00  0.00    -0.263 C  
HETATM   22  C   UNL     1      -9.816  12.079  68.275  1.00  0.00    -0.204 C  
HETATM   23  C   UNL     1      -9.448  10.765  68.965  1.00  0.00    -0.179 C  
HETATM   24  C   UNL     1     -10.624   9.801  68.858  1.00  0.00    -0.218 C  
BRANCH  22  25
HETATM   25  N   UNL     1      -9.919  11.934  66.816  1.00  0.00    -0.194 N  
HETATM   26  C   UNL     1      -9.089  11.179  65.951  1.00  0.00    -0.203 C  
HETATM   27  O   UNL     1      -8.143  10.461  66.223  1.00  0.00    -0.125 OA 
HETATM   28  N   UNL     1      -9.557  11.399  64.646  1.00  0.00    -0.224 NA 
HETATM   29  C   UNL     1     -10.628  12.272  64.683  1.00  0.00    -0.303 A  
HETATM   30  C   UNL     1     -11.363  12.778  63.627  1.00  0.00    -0.514 A  
HETATM   31  C   UNL     1     -12.368  13.688  63.938  1.00  0.00    -0.375 A  
HETATM   32  C   UNL     1     -12.620  14.058  65.273  1.00  0.00    -0.495 A  
HETATM   33  C   UNL     1     -11.879  13.504  66.328  1.00  0.00    -0.431 A  
HETATM   34  C   UNL     1     -10.869  12.616  66.010  1.00  0.00    -0.277 A  
ENDBRANCH  22  25
ENDBRANCH  18  19
ENDBRANCH  17  18
ENDBRANCH   8  17
TORSDOF 4
ENDMDL
MODEL       90
REMARK 921   NORMALIZED FREE ENERGY PREDICTED BY IDOCK:   -6.08 KCAL/MOL
REMARK 922        TOTAL FREE ENERGY PREDICTED BY IDOCK:   -8.28 KCAL/MOL
REMARK 923 INTER-LIGAND FREE ENERGY PREDICTED BY IDOCK:   -6.98 KCAL/MOL
REMARK 924 INTRA-LIGAND FREE ENERGY PREDICTED BY IDOCK:   -1.30 KCAL/MOL
REMARK 927      BINDING AFFINITY PREDICTED BY RF-SCORE:    0.00 PKD
ROOT
HETATM    1  F   UNL     1      -9.596   2.508  65.495  1.00  0.00    -0.107 F  
HETATM    2  C   UNL     1      -9.351   3.162  66.638  1.00  0.00    -0.110 A  
HETATM    3  C   UNL     1      -9.333   2.469  67.839  1.00  0.00    -0.241 A  
HETATM    4  C   UNL     1      -9.094   3.158  69.034  1.00  0.00    -0.208 A  
HETATM    5  C   UNL     1      -8.868   4.550  69.038  1.00  0.00    -0.123 A  
HETATM    6  C   UNL     1      -8.682   5.292  70.374  1.00  0.00    -0.138 C  
HETATM    7  C   UNL     1      -8.893   5.217  67.801  1.00  0.00    -0.105 A  
HETATM    8  C   UNL     1      -7.276   5.936  70.577  1.00  0.00    -0.083 C  
HETATM    9  C   UNL     1      -9.132   4.530  66.608  1.00  0.00    -0.123 A  
HETATM   10  C   UNL     1      -9.871   6.137  70.857  1.00  0.00    -0.215 A  
HETATM   11  C   UNL     1     -11.044   6.308  70.103  1.00  0.00    -0.443 A  
HETATM   12  F   UNL     1     -13.139   8.174  72.409  1.00  0.00    -0.302 F  
HETATM   13  C   UNL     1      -9.846   6.676  72.157  1.00  0.00    -0.166 A  
HETATM   14  C   UNL     1     -12.141   7.008  70.621  1.00  0.00    -0.332 A  
HETATM   15  C   UNL     1     -12.078   7.530  71.907  1.00  0.00    -0.305 A  
HETATM   16  C   UNL     1     -10.940   7.373  72.680  1.00  0.00    -0.363 A  
ENDROOT
BRANCH   8  17
HETATM   17  C   UNL     1      -6.726   6.979  69.596  1.00  0.00    -0.049 C  
BRANCH  17  18
HETATM   18  C   UNL     1      -6.874   8.466  69.936  1.00  0.00    -0.043 C  
BRANCH  18  19
HETATM   19  N   UNL     1      -7.311   9.381  68.879  1.00  0.00    -0.072 NA 
HETATM   20  C   UNL     1      -9.612   8.857  67.786  1.00  0.00    -0.176 C  
HETATM   21  C   UNL     1      -8.065   8.811  67.752  1.00  0.00    -0.107 C  
HETATM   22  C   UNL     1     -10.235  10.066  68.517  1.00  0.00    -0.175 C  
HETATM   23  C   UNL     1      -9.438  10.260  69.807  1.00  0.00    -0.128 C  
HETATM   24  C   UNL     1      -7.984  10.550  69.455  1.00  0.00    -0.140 C  
BRANCH  22  25
HETATM   25  N   UNL     1     -10.381  11.315  67.757  1.00  0.00    -0.178 N  
HETATM   26  C   UNL     1      -9.949  11.592  66.437  1.00  0.00    -0.209 C  
HETATM   27  O   UNL     1      -9.404  10.855  65.634  1.00  0.00    -0.190 OA 
HETATM   28  N   UNL     1     -10.269  12.933  66.177  1.00  0.00    -0.272 NA 
HETATM   29  C   UNL     1     -10.862  13.489  67.295  1.00  0.00    -0.276 A  
HETATM   30  C   UNL     1     -11.302  14.786  67.483  1.00  0.00    -0.355 A  
HETATM   31  C   UNL     1     -11.823  15.101  68.734  1.00  0.00    -0.329 A  
HETATM   32  C   UNL     1     -11.901  14.128  69.749  1.00  0.00    -0.381 A  
HETATM   33  C   UNL     1     -11.476  12.810  69.521  1.00  0.00    -0.293 A  
HETATM   34  C   UNL     1     -10.941  12.510  68.283  1.00  0.00    -0.240 A  
ENDBRANCH  22  25
ENDBRANCH  18  19
ENDBRANCH  17  18
ENDBRANCH   8  17
TORSDOF 4
ENDMDL
MODEL       91
REMARK 921   NORMALIZED FREE ENERGY PREDICTED BY IDOCK:   -6.07 KCAL/MOL
REMARK 922        TOTAL FREE ENERGY PREDICTED BY IDOCK:   -8.27 KCAL/MOL
REMARK 923 INTER-LIGAND FREE ENERGY PREDICTED BY IDOCK:   -7.89 KCAL/MOL
REMARK 924 INTRA-LIGAND FREE ENERGY PREDICTED BY IDOCK:   -0.38 KCAL/MOL
REMARK 927      BINDING AFFINITY PREDICTED BY RF-SCORE:    0.00 PKD
ROOT
HETATM    1  F   UNL     1      -9.133  17.332  65.583  1.00  0.00    -0.112 F  
HETATM    2  C   UNL     1      -9.570  16.122  65.957  1.00  0.00    -0.346 A  
HETATM    3  C   UNL     1     -10.768  15.636  65.453  1.00  0.00    -0.424 A  
HETATM    4  C   UNL     1     -11.231  14.378  65.858  1.00  0.00    -0.324 A  
HETATM    5  C   UNL     1     -10.498  13.593  66.772  1.00  0.00    -0.270 A  
HETATM    6  C   UNL     1     -11.069  12.248  67.257  1.00  0.00    -0.326 C  
HETATM    7  C   UNL     1      -9.290  14.120  67.261  1.00  0.00    -0.225 A  
HETATM    8  C   UNL     1     -10.237  10.995  66.844  1.00  0.00    -0.263 C  
HETATM    9  C   UNL     1      -8.827  15.375  66.857  1.00  0.00    -0.281 A  
HETATM   10  C   UNL     1     -11.637  12.223  68.684  1.00  0.00    -0.372 A  
HETATM   11  C   UNL     1     -11.578  13.326  69.552  1.00  0.00    -0.349 A  
HETATM   12  F   UNL     1     -13.494  12.134  72.397  1.00  0.00    -0.614 F  
HETATM   13  C   UNL     1     -12.352  11.090  69.117  1.00  0.00    -0.079 A  
HETATM   14  C   UNL     1     -12.192  13.291  70.810  1.00  0.00    -0.390 A  
HETATM   15  C   UNL     1     -12.885  12.153  71.205  1.00  0.00    -0.217 A  
HETATM   16  C   UNL     1     -12.969  11.050  70.372  1.00  0.00    -0.123 A  
ENDROOT
BRANCH   8  17
HETATM   17  C   UNL     1      -8.767  10.842  67.254  1.00  0.00    -0.130 C  
BRANCH  17  18
HETATM   18  C   UNL     1      -8.014   9.568  66.854  1.00  0.00    -0.109 C  
BRANCH  18  19
HETATM   19  N   UNL     1      -8.034   8.431  67.775  1.00  0.00    -0.110 NA 
HETATM   20  C   UNL     1     -10.279   7.989  69.011  1.00  0.00    -0.217 C  
HETATM   21  C   UNL     1      -8.839   8.558  69.000  1.00  0.00    -0.145 C  
HETATM   22  C   UNL     1     -10.521   6.746  68.128  1.00  0.00    -0.211 C  
HETATM   23  C   UNL     1      -9.813   7.005  66.798  1.00  0.00    -0.250 C  
HETATM   24  C   UNL     1      -8.322   7.187  67.054  1.00  0.00    -0.118 C  
BRANCH  22  25
HETATM   25  N   UNL     1     -10.179   5.434  68.697  1.00  0.00    -0.184 N  
HETATM   26  C   UNL     1      -9.836   4.245  68.009  1.00  0.00    -0.047 C  
HETATM   27  O   UNL     1      -9.711   4.056  66.812  1.00  0.00    -0.207 OA 
HETATM   28  N   UNL     1      -9.647   3.253  68.983  1.00  0.00    -0.112 NA 
HETATM   29  C   UNL     1      -9.879   3.788  70.236  1.00  0.00    -0.061 A  
HETATM   30  C   UNL     1      -9.835   3.156  71.464  1.00  0.00    -0.200 A  
HETATM   31  C   UNL     1     -10.163   3.921  72.580  1.00  0.00    -0.233 A  
HETATM   32  C   UNL     1     -10.511   5.279  72.446  1.00  0.00    -0.268 A  
HETATM   33  C   UNL     1     -10.516   5.904  71.190  1.00  0.00    -0.291 A  
HETATM   34  C   UNL     1     -10.210   5.132  70.085  1.00  0.00    -0.278 A  
ENDBRANCH  22  25
ENDBRANCH  18  19
ENDBRANCH  17  18
ENDBRANCH   8  17
TORSDOF 4
ENDMDL
MODEL       92
REMARK 921   NORMALIZED FREE ENERGY PREDICTED BY IDOCK:   -6.05 KCAL/MOL
REMARK 922        TOTAL FREE ENERGY PREDICTED BY IDOCK:   -8.26 KCAL/MOL
REMARK 923 INTER-LIGAND FREE ENERGY PREDICTED BY IDOCK:   -8.00 KCAL/MOL
REMARK 924 INTRA-LIGAND FREE ENERGY PREDICTED BY IDOCK:   -0.25 KCAL/MOL
REMARK 927      BINDING AFFINITY PREDICTED BY RF-SCORE:    0.00 PKD
ROOT
HETATM    1  F   UNL     1      -7.693   4.451  74.497  1.00  0.00    -0.077 F  
HETATM    2  C   UNL     1      -8.438   4.954  73.504  1.00  0.00    -0.106 A  
HETATM    3  C   UNL     1      -9.677   4.398  73.221  1.00  0.00    -0.155 A  
HETATM    4  C   UNL     1     -10.446   4.915  72.172  1.00  0.00    -0.257 A  
HETATM    5  C   UNL     1      -9.983   5.997  71.396  1.00  0.00    -0.223 A  
HETATM    6  C   UNL     1     -10.817   6.496  70.201  1.00  0.00    -0.336 C  
HETATM    7  C   UNL     1      -8.724   6.534  71.713  1.00  0.00    -0.131 A  
HETATM    8  C   UNL     1     -11.360   7.952  70.343  1.00  0.00    -0.201 C  
HETATM    9  C   UNL     1      -7.955   6.019  72.760  1.00  0.00    -0.107 A  
HETATM   10  C   UNL     1     -10.305   6.114  68.804  1.00  0.00    -0.256 A  
HETATM   11  C   UNL     1      -9.102   5.421  68.593  1.00  0.00    -0.130 A  
HETATM   12  F   UNL     1      -9.191   4.857  65.007  1.00  0.00    -0.153 F  
HETATM   13  C   UNL     1     -11.120   6.362  67.684  1.00  0.00    -0.388 A  
HETATM   14  C   UNL     1      -8.719   5.010  67.311  1.00  0.00    -0.103 A  
HETATM   15  C   UNL     1      -9.547   5.277  66.228  1.00  0.00    -0.161 A  
HETATM   16  C   UNL     1     -10.744   5.952  66.401  1.00  0.00    -0.157 A  
ENDROOT
BRANCH   8  17
HETATM   17  C   UNL     1     -10.412   9.141  70.541  1.00  0.00    -0.289 C  
BRANCH  17  18
HETATM   18  C   UNL     1      -9.615   9.662  69.340  1.00  0.00    -0.191 C  
BRANCH  18  19
HETATM   19  N   UNL     1     -10.046  10.909  68.707  1.00  0.00    -0.187 NA 
HETATM   20  C   UNL     1      -8.410  11.943  66.970  1.00  0.00    -0.178 C  
HETATM   21  C   UNL     1      -9.013  11.909  68.395  1.00  0.00    -0.163 C  
HETATM   22  C   UNL     1      -9.356  11.520  65.826  1.00  0.00    -0.221 C  
HETATM   23  C   UNL     1     -10.104  10.277  66.308  1.00  0.00    -0.300 C  
HETATM   24  C   UNL     1     -10.908  10.631  67.553  1.00  0.00    -0.296 C  
BRANCH  22  25
HETATM   25  N   UNL     1     -10.263  12.542  65.284  1.00  0.00    -0.283 N  
HETATM   26  C   UNL     1     -11.299  12.377  64.332  1.00  0.00    -0.340 C  
HETATM   27  O   UNL     1     -11.690  11.360  63.787  1.00  0.00    -0.275 OA 
HETATM   28  N   UNL     1     -11.843  13.650  64.100  1.00  0.00    -0.425 NA 
HETATM   29  C   UNL     1     -11.166  14.585  64.860  1.00  0.00    -0.391 A  
HETATM   30  C   UNL     1     -11.356  15.953  64.912  1.00  0.00    -0.259 A  
HETATM   31  C   UNL     1     -10.497  16.679  65.732  1.00  0.00    -0.324 A  
HETATM   32  C   UNL     1      -9.493  16.031  66.478  1.00  0.00    -0.297 A  
HETATM   33  C   UNL     1      -9.344  14.637  66.431  1.00  0.00    -0.313 A  
HETATM   34  C   UNL     1     -10.187  13.926  65.598  1.00  0.00    -0.328 A  
ENDBRANCH  22  25
ENDBRANCH  18  19
ENDBRANCH  17  18
ENDBRANCH   8  17
TORSDOF 4
ENDMDL
MODEL       93
REMARK 921   NORMALIZED FREE ENERGY PREDICTED BY IDOCK:   -6.05 KCAL/MOL
REMARK 922        TOTAL FREE ENERGY PREDICTED BY IDOCK:   -8.25 KCAL/MOL
REMARK 923 INTER-LIGAND FREE ENERGY PREDICTED BY IDOCK:   -8.05 KCAL/MOL
REMARK 924 INTRA-LIGAND FREE ENERGY PREDICTED BY IDOCK:   -0.20 KCAL/MOL
REMARK 927      BINDING AFFINITY PREDICTED BY RF-SCORE:    0.00 PKD
ROOT
HETATM    1  F   UNL     1     -10.090   2.718  63.603  1.00  0.00    -0.128 F  
HETATM    2  C   UNL     1      -9.629   3.505  64.584  1.00  0.00    -0.168 A  
HETATM    3  C   UNL     1      -8.294   3.433  64.956  1.00  0.00    -0.097 A  
HETATM    4  C   UNL     1      -7.818   4.244  65.993  1.00  0.00    -0.094 A  
HETATM    5  C   UNL     1      -8.674   5.139  66.667  1.00  0.00    -0.109 A  
HETATM    6  C   UNL     1      -8.140   5.963  67.853  1.00  0.00    -0.105 C  
HETATM    7  C   UNL     1     -10.019   5.184  66.262  1.00  0.00    -0.232 A  
HETATM    8  C   UNL     1      -8.126   7.507  67.625  1.00  0.00    -0.118 C  
HETATM    9  C   UNL     1     -10.495   4.375  65.227  1.00  0.00    -0.204 A  
HETATM   10  C   UNL     1      -8.576   5.506  69.253  1.00  0.00    -0.104 A  
HETATM   11  C   UNL     1      -9.476   4.450  69.468  1.00  0.00    -0.251 A  
HETATM   12  F   UNL     1      -9.423   4.156  73.087  1.00  0.00    -0.118 F  
HETATM   13  C   UNL     1      -7.968   6.086  70.383  1.00  0.00    -0.107 A  
HETATM   14  C   UNL     1      -9.773   4.004  70.762  1.00  0.00    -0.263 A  
HETATM   15  C   UNL     1      -9.158   4.604  71.854  1.00  0.00    -0.131 A  
HETATM   16  C   UNL     1      -8.259   5.644  71.678  1.00  0.00    -0.119 A  
ENDROOT
BRANCH   8  17
HETATM   17  C   UNL     1      -9.411   8.278  67.301  1.00  0.00    -0.193 C  
BRANCH  17  18
HETATM   18  C   UNL     1     -10.181   8.950  68.444  1.00  0.00    -0.199 C  
BRANCH  18  19
HETATM   19  N   UNL     1      -9.905  10.358  68.735  1.00  0.00    -0.176 NA 
HETATM   20  C   UNL     1     -11.346  12.100  67.450  1.00  0.00    -0.393 C  
HETATM   21  C   UNL     1     -10.022  11.319  67.627  1.00  0.00    -0.178 C  
HETATM   22  C   UNL     1     -12.123  12.414  68.747  1.00  0.00    -0.110 C  
HETATM   23  C   UNL     1     -12.094  11.145  69.598  1.00  0.00    -0.406 C  
HETATM   24  C   UNL     1     -10.647  10.795  69.922  1.00  0.00    -0.076 C  
BRANCH  22  25
HETATM   25  N   UNL     1     -11.717  13.605  69.508  1.00  0.00    -0.303 N  
HETATM   26  C   UNL     1     -10.659  14.503  69.227  1.00  0.00    -0.212 C  
HETATM   27  O   UNL     1      -9.885  14.514  68.286  1.00  0.00    -0.216 OA 
HETATM   28  N   UNL     1     -10.638  15.445  70.268  1.00  0.00    -0.300 NA 
HETATM   29  C   UNL     1     -11.632  15.143  71.180  1.00  0.00    -0.360 A  
HETATM   30  C   UNL     1     -11.941  15.788  72.363  1.00  0.00    -0.600 A  
HETATM   31  C   UNL     1     -12.967  15.245  73.129  1.00  0.00    -0.625 A  
HETATM   32  C   UNL     1     -13.657  14.095  72.699  1.00  0.00    -0.618 A  
HETATM   33  C   UNL     1     -13.344  13.478  71.478  1.00  0.00    -0.363 A  
HETATM   34  C   UNL     1     -12.309  14.012  70.733  1.00  0.00    -0.373 A  
ENDBRANCH  22  25
ENDBRANCH  18  19
ENDBRANCH  17  18
ENDBRANCH   8  17
TORSDOF 4
ENDMDL
MODEL       94
REMARK 921   NORMALIZED FREE ENERGY PREDICTED BY IDOCK:   -6.03 KCAL/MOL
REMARK 922        TOTAL FREE ENERGY PREDICTED BY IDOCK:   -8.22 KCAL/MOL
REMARK 923 INTER-LIGAND FREE ENERGY PREDICTED BY IDOCK:   -7.89 KCAL/MOL
REMARK 924 INTRA-LIGAND FREE ENERGY PREDICTED BY IDOCK:   -0.33 KCAL/MOL
REMARK 927      BINDING AFFINITY PREDICTED BY RF-SCORE:    0.00 PKD
ROOT
HETATM    1  F   UNL     1     -12.793  10.085  72.347  1.00  0.00    -0.437 F  
HETATM    2  C   UNL     1     -12.263   9.070  71.652  1.00  0.00    -0.348 A  
HETATM    3  C   UNL     1     -13.092   8.110  71.091  1.00  0.00    -0.066 A  
HETATM    4  C   UNL     1     -12.534   7.041  70.379  1.00  0.00     0.027 A  
HETATM    5  C   UNL     1     -11.138   6.925  70.219  1.00  0.00    -0.342 A  
HETATM    6  C   UNL     1     -10.549   5.699  69.496  1.00  0.00    -0.384 C  
HETATM    7  C   UNL     1     -10.330   7.917  70.801  1.00  0.00    -0.211 A  
HETATM    8  C   UNL     1      -9.804   6.020  68.163  1.00  0.00    -0.148 C  
HETATM    9  C   UNL     1     -10.887   8.984  71.512  1.00  0.00    -0.416 A  
HETATM   10  C   UNL     1      -9.886   4.636  70.385  1.00  0.00    -0.306 A  
HETATM   11  C   UNL     1      -9.735   4.784  71.773  1.00  0.00    -0.225 A  
HETATM   12  F   UNL     1      -8.371   1.554  72.718  1.00  0.00    -0.049 F  
HETATM   13  C   UNL     1      -9.508   3.405  69.815  1.00  0.00    -0.229 A  
HETATM   14  C   UNL     1      -9.211   3.750  72.558  1.00  0.00    -0.144 A  
HETATM   15  C   UNL     1      -8.845   2.551  71.960  1.00  0.00    -0.074 A  
HETATM   16  C   UNL     1      -8.986   2.368  70.595  1.00  0.00    -0.160 A  
ENDROOT
BRANCH   8  17
HETATM   17  C   UNL     1      -8.602   6.972  68.129  1.00  0.00    -0.128 C  
BRANCH  17  18
HETATM   18  C   UNL     1      -8.056   7.428  66.771  1.00  0.00    -0.123 C  
BRANCH  18  19
HETATM   19  N   UNL     1      -8.524   8.704  66.227  1.00  0.00    -0.120 NA 
HETATM   20  C   UNL     1     -10.554   9.794  67.433  1.00  0.00    -0.330 C  
HETATM   21  C   UNL     1      -9.970   8.971  66.259  1.00  0.00    -0.281 C  
HETATM   22  C   UNL     1      -9.621  10.867  68.035  1.00  0.00    -0.162 C  
HETATM   23  C   UNL     1      -8.239  10.227  68.165  1.00  0.00    -0.114 C  
HETATM   24  C   UNL     1      -7.747   9.818  66.782  1.00  0.00    -0.098 C  
BRANCH  22  25
HETATM   25  N   UNL     1      -9.571  12.174  67.364  1.00  0.00    -0.176 N  
HETATM   26  C   UNL     1      -8.774  13.297  67.695  1.00  0.00    -0.195 C  
HETATM   27  O   UNL     1      -7.935  13.416  68.571  1.00  0.00    -0.139 OA 
HETATM   28  N   UNL     1      -9.119  14.318  66.797  1.00  0.00    -0.257 NA 
HETATM   29  C   UNL     1     -10.109  13.866  65.945  1.00  0.00    -0.317 A  
HETATM   30  C   UNL     1     -10.756  14.553  64.935  1.00  0.00    -0.448 A  
HETATM   31  C   UNL     1     -11.760  13.872  64.252  1.00  0.00    -0.406 A  
HETATM   32  C   UNL     1     -12.081  12.541  64.580  1.00  0.00    -0.496 A  
HETATM   33  C   UNL     1     -11.385  11.857  65.588  1.00  0.00    -0.339 A  
HETATM   34  C   UNL     1     -10.404  12.547  66.276  1.00  0.00    -0.250 A  
ENDBRANCH  22  25
ENDBRANCH  18  19
ENDBRANCH  17  18
ENDBRANCH   8  17
TORSDOF 4
ENDMDL
MODEL       95
REMARK 921   NORMALIZED FREE ENERGY PREDICTED BY IDOCK:   -5.99 KCAL/MOL
REMARK 922        TOTAL FREE ENERGY PREDICTED BY IDOCK:   -8.17 KCAL/MOL
REMARK 923 INTER-LIGAND FREE ENERGY PREDICTED BY IDOCK:   -7.81 KCAL/MOL
REMARK 924 INTRA-LIGAND FREE ENERGY PREDICTED BY IDOCK:   -0.36 KCAL/MOL
REMARK 927      BINDING AFFINITY PREDICTED BY RF-SCORE:    0.00 PKD
ROOT
HETATM    1  F   UNL     1      -9.526   2.263  66.250  1.00  0.00    -0.090 F  
HETATM    2  C   UNL     1      -9.380   3.094  67.289  1.00  0.00    -0.179 A  
HETATM    3  C   UNL     1      -9.293   2.582  68.576  1.00  0.00    -0.254 A  
HETATM    4  C   UNL     1      -9.158   3.455  69.662  1.00  0.00    -0.202 A  
HETATM    5  C   UNL     1      -9.106   4.851  69.471  1.00  0.00    -0.149 A  
HETATM    6  C   UNL     1      -9.033   5.789  70.690  1.00  0.00    -0.149 C  
HETATM    7  C   UNL     1      -9.197   5.332  68.153  1.00  0.00    -0.129 A  
HETATM    8  C   UNL     1      -7.720   6.625  70.796  1.00  0.00    -0.097 C  
HETATM    9  C   UNL     1      -9.332   4.462  67.069  1.00  0.00    -0.170 A  
HETATM   10  C   UNL     1     -10.324   6.537  71.054  1.00  0.00    -0.240 A  
HETATM   11  C   UNL     1     -11.498   6.455  70.288  1.00  0.00    -0.468 A  
HETATM   12  F   UNL     1     -13.841   8.346  72.319  1.00  0.00    -0.353 F  
HETATM   13  C   UNL     1     -10.384   7.250  72.266  1.00  0.00    -0.239 A  
HETATM   14  C   UNL     1     -12.681   7.077  70.708  1.00  0.00    -0.133 A  
HETATM   15  C   UNL     1     -12.701   7.776  71.908  1.00  0.00    -0.302 A  
HETATM   16  C   UNL     1     -11.563   7.872  72.692  1.00  0.00    -0.435 A  
ENDROOT
BRANCH   8  17
HETATM   17  C   UNL     1      -7.291   7.583  69.677  1.00  0.00    -0.090 C  
BRANCH  17  18
HETATM   18  C   UNL     1      -7.760   9.041  69.728  1.00  0.00    -0.077 C  
BRANCH  18  19
HETATM   19  N   UNL     1      -8.803   9.469  68.794  1.00  0.00    -0.130 NA 
HETATM   20  C   UNL     1      -8.646  11.920  67.940  1.00  0.00    -0.162 C  
HETATM   21  C   UNL     1      -9.269  10.861  68.882  1.00  0.00    -0.160 C  
HETATM   22  C   UNL     1      -8.194  11.409  66.555  1.00  0.00    -0.152 C  
HETATM   23  C   UNL     1      -7.478  10.079  66.787  1.00  0.00    -0.096 C  
HETATM   24  C   UNL     1      -8.451   9.092  67.420  1.00  0.00    -0.115 C  
BRANCH  22  25
HETATM   25  N   UNL     1      -9.216  11.317  65.501  1.00  0.00    -0.216 N  
HETATM   26  C   UNL     1      -9.156  10.589  64.287  1.00  0.00    -0.228 C  
HETATM   27  O   UNL     1      -8.277   9.856  63.870  1.00  0.00    -0.137 OA 
HETATM   28  N   UNL     1     -10.347  10.857  63.595  1.00  0.00    -0.345 NA 
HETATM   29  C   UNL     1     -11.120  11.734  64.332  1.00  0.00    -0.334 A  
HETATM   30  C   UNL     1     -12.347  12.282  64.009  1.00  0.00    -0.569 A  
HETATM   31  C   UNL     1     -12.893  13.186  64.915  1.00  0.00    -0.349 A  
HETATM   32  C   UNL     1     -12.218  13.509  66.108  1.00  0.00    -0.484 A  
HETATM   33  C   UNL     1     -10.988  12.914  66.426  1.00  0.00    -0.310 A  
HETATM   34  C   UNL     1     -10.442  12.033  65.511  1.00  0.00    -0.269 A  
ENDBRANCH  22  25
ENDBRANCH  18  19
ENDBRANCH  17  18
ENDBRANCH   8  17
TORSDOF 4
ENDMDL
MODEL       96
REMARK 921   NORMALIZED FREE ENERGY PREDICTED BY IDOCK:   -5.97 KCAL/MOL
REMARK 922        TOTAL FREE ENERGY PREDICTED BY IDOCK:   -8.16 KCAL/MOL
REMARK 923 INTER-LIGAND FREE ENERGY PREDICTED BY IDOCK:   -7.99 KCAL/MOL
REMARK 924 INTRA-LIGAND FREE ENERGY PREDICTED BY IDOCK:   -0.17 KCAL/MOL
REMARK 927      BINDING AFFINITY PREDICTED BY RF-SCORE:    0.00 PKD
ROOT
HETATM    1  F   UNL     1      -9.032  11.685  64.455  1.00  0.00    -0.013 F  
HETATM    2  C   UNL     1      -9.776  11.759  65.566  1.00  0.00    -0.224 A  
HETATM    3  C   UNL     1     -11.130  12.046  65.472  1.00  0.00    -0.361 A  
HETATM    4  C   UNL     1     -11.902  12.140  66.637  1.00  0.00    -0.314 A  
HETATM    5  C   UNL     1     -11.325  11.944  67.909  1.00  0.00    -0.358 A  
HETATM    6  C   UNL     1     -12.182  12.127  69.175  1.00  0.00    -0.086 C  
HETATM    7  C   UNL     1      -9.951  11.655  67.963  1.00  0.00    -0.194 A  
HETATM    8  C   UNL     1     -12.384  10.833  70.023  1.00  0.00    -0.371 C  
HETATM    9  C   UNL     1      -9.180  11.561  66.802  1.00  0.00    -0.187 A  
HETATM   10  C   UNL     1     -11.945  13.414  69.979  1.00  0.00    -0.407 A  
HETATM   11  C   UNL     1     -10.951  14.351  69.650  1.00  0.00    -0.194 A  
HETATM   12  F   UNL     1     -11.616  17.006  72.036  1.00  0.00    -0.394 F  
HETATM   13  C   UNL     1     -12.826  13.740  71.027  1.00  0.00    -0.376 A  
HETATM   14  C   UNL     1     -10.831  15.556  70.353  1.00  0.00    -0.356 A  
HETATM   15  C   UNL     1     -11.716  15.840  71.385  1.00  0.00    -0.445 A  
HETATM   16  C   UNL     1     -12.713  14.943  71.731  1.00  0.00    -0.401 A  
ENDROOT
BRANCH   8  17
HETATM   17  C   UNL     1     -11.190  10.062  70.599  1.00  0.00    -0.425 C  
BRANCH  17  18
HETATM   18  C   UNL     1     -11.437   9.040  71.715  1.00  0.00    -0.372 C  
BRANCH  18  19
HETATM   19  N   UNL     1     -10.383   8.069  72.013  1.00  0.00    -0.218 NA 
HETATM   20  C   UNL     1     -11.173   5.691  72.706  1.00  0.00    -0.347 C  
HETATM   21  C   UNL     1     -10.637   7.093  73.084  1.00  0.00    -0.336 C  
HETATM   22  C   UNL     1     -10.718   5.140  71.337  1.00  0.00    -0.084 C  
HETATM   23  C   UNL     1     -10.828   6.293  70.339  1.00  0.00    -0.360 C  
HETATM   24  C   UNL     1      -9.910   7.426  70.783  1.00  0.00    -0.178 C  
BRANCH  22  25
HETATM   25  N   UNL     1      -9.410   4.472  71.276  1.00  0.00    -0.139 N  
HETATM   26  C   UNL     1      -8.381   4.475  72.249  1.00  0.00    -0.110 C  
HETATM   27  O   UNL     1      -8.365   4.990  73.353  1.00  0.00    -0.109 OA 
HETATM   28  N   UNL     1      -7.311   3.743  71.711  1.00  0.00    -0.053 NA 
HETATM   29  C   UNL     1      -7.644   3.310  70.441  1.00  0.00    -0.044 A  
HETATM   30  C   UNL     1      -6.875   2.587  69.549  1.00  0.00    -0.033 A  
HETATM   31  C   UNL     1      -7.436   2.321  68.303  1.00  0.00    -0.047 A  
HETATM   32  C   UNL     1      -8.734   2.766  67.987  1.00  0.00    -0.133 A  
HETATM   33  C   UNL     1      -9.505   3.470  68.924  1.00  0.00    -0.210 A  
HETATM   34  C   UNL     1      -8.933   3.749  70.151  1.00  0.00    -0.109 A  
ENDBRANCH  22  25
ENDBRANCH  18  19
ENDBRANCH  17  18
ENDBRANCH   8  17
TORSDOF 4
ENDMDL
MODEL       97
REMARK 921   NORMALIZED FREE ENERGY PREDICTED BY IDOCK:   -5.97 KCAL/MOL
REMARK 922        TOTAL FREE ENERGY PREDICTED BY IDOCK:   -8.15 KCAL/MOL
REMARK 923 INTER-LIGAND FREE ENERGY PREDICTED BY IDOCK:   -8.33 KCAL/MOL
REMARK 924 INTRA-LIGAND FREE ENERGY PREDICTED BY IDOCK:    0.17 KCAL/MOL
REMARK 927      BINDING AFFINITY PREDICTED BY RF-SCORE:    0.00 PKD
ROOT
HETATM    1  F   UNL     1     -11.784   5.596  73.302  1.00  0.00    -0.244 F  
HETATM    2  C   UNL     1     -11.534   6.556  72.402  1.00  0.00    -0.271 A  
HETATM    3  C   UNL     1     -11.422   6.230  71.059  1.00  0.00    -0.370 A  
HETATM    4  C   UNL     1     -11.144   7.232  70.122  1.00  0.00    -0.281 A  
HETATM    5  C   UNL     1     -10.977   8.575  70.522  1.00  0.00    -0.263 A  
HETATM    6  C   UNL     1     -10.598   9.643  69.480  1.00  0.00    -0.247 C  
HETATM    7  C   UNL     1     -11.098   8.866  71.891  1.00  0.00    -0.442 A  
HETATM    8  C   UNL     1     -11.674  10.749  69.253  1.00  0.00    -0.374 C  
HETATM    9  C   UNL     1     -11.376   7.866  72.827  1.00  0.00    -0.453 A  
HETATM   10  C   UNL     1      -9.141  10.132  69.503  1.00  0.00    -0.213 A  
HETATM   11  C   UNL     1      -8.207   9.708  70.462  1.00  0.00    -0.139 A  
HETATM   12  F   UNL     1      -5.157  11.274  69.265  1.00  0.00    -0.045 F  
HETATM   13  C   UNL     1      -8.677  10.953  68.458  1.00  0.00    -0.153 A  
HETATM   14  C   UNL     1      -6.866  10.105  70.390  1.00  0.00    -0.129 A  
HETATM   15  C   UNL     1      -6.446  10.920  69.346  1.00  0.00    -0.086 A  
HETATM   16  C   UNL     1      -7.339  11.350  68.379  1.00  0.00    -0.095 A  
ENDROOT
BRANCH   8  17
HETATM   17  C   UNL     1     -12.159  11.639  70.405  1.00  0.00    -0.462 C  
BRANCH  17  18
HETATM   18  C   UNL     1     -12.240  13.154  70.189  1.00  0.00    -0.290 C  
BRANCH  18  19
HETATM   19  N   UNL     1     -11.051  13.850  69.695  1.00  0.00    -0.138 NA 
HETATM   20  C   UNL     1     -11.240  14.914  67.330  1.00  0.00    -0.348 C  
HETATM   21  C   UNL     1     -10.761  13.769  68.255  1.00  0.00    -0.253 C  
HETATM   22  C   UNL     1     -11.290  16.320  67.966  1.00  0.00    -0.205 C  
HETATM   23  C   UNL     1     -11.904  16.154  69.355  1.00  0.00    -0.154 C  
HETATM   24  C   UNL     1     -11.020  15.232  70.185  1.00  0.00    -0.291 C  
BRANCH  22  25
HETATM   25  N   UNL     1     -10.040  17.094  67.997  1.00  0.00    -0.295 N  
HETATM   26  C   UNL     1      -9.883  18.499  68.075  1.00  0.00    -0.341 C  
HETATM   27  O   UNL     1     -10.734  19.366  68.173  1.00  0.00    -0.343 OA 
HETATM   28  N   UNL     1      -8.504  18.757  68.021  1.00  0.00    -0.284 NA 
HETATM   29  C   UNL     1      -7.818  17.564  67.895  1.00  0.00    -0.218 A  
HETATM   30  C   UNL     1      -6.456  17.362  67.777  1.00  0.00    -0.160 A  
HETATM   31  C   UNL     1      -6.024  16.050  67.612  1.00  0.00    -0.176 A  
HETATM   32  C   UNL     1      -6.946  14.985  67.579  1.00  0.00    -0.214 A  
HETATM   33  C   UNL     1      -8.322  15.216  67.734  1.00  0.00    -0.159 A  
HETATM   34  C   UNL     1      -8.744  16.525  67.877  1.00  0.00    -0.188 A  
ENDBRANCH  22  25
ENDBRANCH  18  19
ENDBRANCH  17  18
ENDBRANCH   8  17
TORSDOF 4
ENDMDL
MODEL       98
REMARK 921   NORMALIZED FREE ENERGY PREDICTED BY IDOCK:   -5.90 KCAL/MOL
REMARK 922        TOTAL FREE ENERGY PREDICTED BY IDOCK:   -8.06 KCAL/MOL
REMARK 923 INTER-LIGAND FREE ENERGY PREDICTED BY IDOCK:   -6.51 KCAL/MOL
REMARK 924 INTRA-LIGAND FREE ENERGY PREDICTED BY IDOCK:   -1.55 KCAL/MOL
REMARK 927      BINDING AFFINITY PREDICTED BY RF-SCORE:    0.00 PKD
ROOT
HETATM    1  F   UNL     1      -7.838   1.479  65.836  1.00  0.00    -0.062 F  
HETATM    2  C   UNL     1      -7.599   2.580  66.561  1.00  0.00    -0.071 A  
HETATM    3  C   UNL     1      -7.309   2.466  67.913  1.00  0.00    -0.052 A  
HETATM    4  C   UNL     1      -7.077   3.619  68.672  1.00  0.00    -0.050 A  
HETATM    5  C   UNL     1      -7.130   4.900  68.084  1.00  0.00    -0.062 A  
HETATM    6  C   UNL     1      -6.945   6.153  68.959  1.00  0.00    -0.068 C  
HETATM    7  C   UNL     1      -7.427   4.974  66.712  1.00  0.00    -0.087 A  
HETATM    8  C   UNL     1      -5.679   7.003  68.628  1.00  0.00    -0.018 C  
HETATM    9  C   UNL     1      -7.658   3.824  65.954  1.00  0.00    -0.085 A  
HETATM   10  C   UNL     1      -8.215   6.957  69.278  1.00  0.00    -0.125 A  
HETATM   11  C   UNL     1      -9.476   6.638  68.748  1.00  0.00    -0.129 A  
HETATM   12  F   UNL     1     -11.623   9.005  70.472  1.00  0.00    -0.272 F  
HETATM   13  C   UNL     1      -8.150   7.991  70.231  1.00  0.00    -0.113 A  
HETATM   14  C   UNL     1     -10.623   7.338  69.140  1.00  0.00    -0.219 A  
HETATM   15  C   UNL     1     -10.520   8.357  70.079  1.00  0.00    -0.224 A  
HETATM   16  C   UNL     1      -9.293   8.693  70.628  1.00  0.00    -0.218 A  
ENDROOT
BRANCH   8  17
HETATM   17  C   UNL     1      -5.460   7.599  67.231  1.00  0.00    -0.031 C  
BRANCH  17  18
HETATM   18  C   UNL     1      -5.651   9.106  67.030  1.00  0.00    -0.041 C  
BRANCH  18  19
HETATM   19  N   UNL     1      -6.488   9.558  65.917  1.00  0.00    -0.075 NA 
HETATM   20  C   UNL     1      -8.775   8.353  65.634  1.00  0.00    -0.204 C  
HETATM   21  C   UNL     1      -7.297   8.549  65.217  1.00  0.00    -0.084 C  
HETATM   22  C   UNL     1      -9.503   9.612  66.150  1.00  0.00    -0.217 C  
HETATM   23  C   UNL     1      -8.534  10.329  67.090  1.00  0.00    -0.125 C  
HETATM   24  C   UNL     1      -7.285  10.724  66.312  1.00  0.00    -0.137 C  
BRANCH  22  25
HETATM   25  N   UNL     1     -10.081  10.519  65.147  1.00  0.00    -0.310 N  
HETATM   26  C   UNL     1      -9.894  10.503  63.743  1.00  0.00    -0.300 C  
HETATM   27  O   UNL     1      -9.255   9.724  63.059  1.00  0.00    -0.266 OA 
HETATM   28  N   UNL     1     -10.608  11.596  63.226  1.00  0.00    -0.376 NA 
HETATM   29  C   UNL     1     -11.207  12.285  64.263  1.00  0.00    -0.350 A  
HETATM   30  C   UNL     1     -11.974  13.434  64.205  1.00  0.00    -0.505 A  
HETATM   31  C   UNL     1     -12.420  13.957  65.415  1.00  0.00    -0.528 A  
HETATM   32  C   UNL     1     -12.106  13.325  66.634  1.00  0.00    -0.421 A  
HETATM   33  C   UNL     1     -11.353  12.142  66.661  1.00  0.00    -0.405 A  
HETATM   34  C   UNL     1     -10.895  11.640  65.458  1.00  0.00    -0.279 A  
ENDBRANCH  22  25
ENDBRANCH  18  19
ENDBRANCH  17  18
ENDBRANCH   8  17
TORSDOF 4
ENDMDL
MODEL       99
REMARK 921   NORMALIZED FREE ENERGY PREDICTED BY IDOCK:   -5.87 KCAL/MOL
REMARK 922        TOTAL FREE ENERGY PREDICTED BY IDOCK:   -8.03 KCAL/MOL
REMARK 923 INTER-LIGAND FREE ENERGY PREDICTED BY IDOCK:   -7.73 KCAL/MOL
REMARK 924 INTRA-LIGAND FREE ENERGY PREDICTED BY IDOCK:   -0.30 KCAL/MOL
REMARK 927      BINDING AFFINITY PREDICTED BY RF-SCORE:    0.00 PKD
ROOT
HETATM    1  F   UNL     1     -12.710  13.022  62.840  1.00  0.00    -0.352 F  
HETATM    2  C   UNL     1     -12.311  13.459  64.042  1.00  0.00    -0.337 A  
HETATM    3  C   UNL     1     -12.070  14.810  64.240  1.00  0.00    -0.415 A  
HETATM    4  C   UNL     1     -11.637  15.261  65.492  1.00  0.00    -0.067 A  
HETATM    5  C   UNL     1     -11.442  14.363  66.562  1.00  0.00    -0.369 A  
HETATM    6  C   UNL     1     -10.893  14.877  67.905  1.00  0.00    -0.276 C  
HETATM    7  C   UNL     1     -11.697  13.001  66.322  1.00  0.00    -0.440 A  
HETATM    8  C   UNL     1     -11.876  14.745  69.109  1.00  0.00    -0.340 C  
HETATM    9  C   UNL     1     -12.129  12.550  65.073  1.00  0.00    -0.504 A  
HETATM   10  C   UNL     1      -9.424  14.551  68.212  1.00  0.00    -0.207 A  
HETATM   11  C   UNL     1      -8.625  13.758  67.372  1.00  0.00    -0.208 A  
HETATM   12  F   UNL     1      -5.381  14.008  68.986  1.00  0.00    -0.076 F  
HETATM   13  C   UNL     1      -8.804  15.157  69.321  1.00  0.00    -0.207 A  
HETATM   14  C   UNL     1      -7.264  13.563  67.642  1.00  0.00    -0.175 A  
HETATM   15  C   UNL     1      -6.688  14.174  68.748  1.00  0.00    -0.098 A  
HETATM   16  C   UNL     1      -7.446  14.968  69.593  1.00  0.00    -0.161 A  
ENDROOT
BRANCH   8  17
HETATM   17  C   UNL     1     -12.436  13.382  69.537  1.00  0.00    -0.018 C  
BRANCH  17  18
HETATM   18  C   UNL     1     -11.463  12.297  70.011  1.00  0.00    -0.053 C  
BRANCH  18  19
HETATM   19  N   UNL     1     -11.667  10.926  69.539  1.00  0.00    -0.301 NA 
HETATM   20  C   UNL     1      -9.804   9.948  68.010  1.00  0.00    -0.170 C  
HETATM   21  C   UNL     1     -11.200  10.595  68.184  1.00  0.00    -0.302 C  
HETATM   22  C   UNL     1      -9.332   9.039  69.165  1.00  0.00    -0.148 C  
HETATM   23  C   UNL     1      -9.682   9.761  70.466  1.00  0.00    -0.195 C  
HETATM   24  C   UNL     1     -11.191   9.961  70.536  1.00  0.00    -0.330 C  
BRANCH  22  25
HETATM   25  N   UNL     1      -9.794   7.643  69.160  1.00  0.00    -0.168 N  
HETATM   26  C   UNL     1     -10.524   6.967  68.152  1.00  0.00    -0.201 C  
HETATM   27  O   UNL     1     -10.892   7.372  67.063  1.00  0.00    -0.354 OA 
HETATM   28  N   UNL     1     -10.772   5.671  68.631  1.00  0.00    -0.214 NA 
HETATM   29  C   UNL     1     -10.237   5.539  69.898  1.00  0.00    -0.268 A  
HETATM   30  C   UNL     1     -10.281   4.445  70.742  1.00  0.00    -0.106 A  
HETATM   31  C   UNL     1      -9.700   4.593  71.998  1.00  0.00    -0.225 A  
HETATM   32  C   UNL     1      -9.091   5.806  72.373  1.00  0.00    -0.142 A  
HETATM   33  C   UNL     1      -9.033   6.891  71.484  1.00  0.00    -0.140 A  
HETATM   34  C   UNL     1      -9.630   6.743  70.246  1.00  0.00    -0.165 A  
ENDBRANCH  22  25
ENDBRANCH  18  19
ENDBRANCH  17  18
ENDBRANCH   8  17
TORSDOF 4
ENDMDL
MODEL      100
REMARK 921   NORMALIZED FREE ENERGY PREDICTED BY IDOCK:   -5.87 KCAL/MOL
REMARK 922        TOTAL FREE ENERGY PREDICTED BY IDOCK:   -8.03 KCAL/MOL
REMARK 923 INTER-LIGAND FREE ENERGY PREDICTED BY IDOCK:   -7.59 KCAL/MOL
REMARK 924 INTRA-LIGAND FREE ENERGY PREDICTED BY IDOCK:   -0.44 KCAL/MOL
REMARK 927      BINDING AFFINITY PREDICTED BY RF-SCORE:    0.00 PKD
ROOT
HETATM    1  F   UNL     1      -5.156   9.500  70.883  1.00  0.00    -0.029 F  
HETATM    2  C   UNL     1      -6.295   8.986  71.363  1.00  0.00    -0.080 A  
HETATM    3  C   UNL     1      -6.430   8.760  72.725  1.00  0.00    -0.005 A  
HETATM    4  C   UNL     1      -7.615   8.205  73.223  1.00  0.00    -0.196 A  
HETATM    5  C   UNL     1      -8.681   7.874  72.361  1.00  0.00    -0.206 A  
HETATM    6  C   UNL     1      -9.942   7.197  72.927  1.00  0.00    -0.233 C  
HETATM    7  C   UNL     1      -8.507   8.117  70.987  1.00  0.00    -0.144 A  
HETATM    8  C   UNL     1     -11.249   8.041  72.808  1.00  0.00    -0.448 C  
HETATM    9  C   UNL     1      -7.324   8.670  70.490  1.00  0.00    -0.058 A  
HETATM   10  C   UNL     1     -10.097   5.695  72.643  1.00  0.00    -0.208 A  
HETATM   11  C   UNL     1      -9.197   4.971  71.844  1.00  0.00    -0.164 A  
HETATM   12  F   UNL     1     -10.443   1.580  72.215  1.00  0.00    -0.203 F  
HETATM   13  C   UNL     1     -11.116   4.975  73.296  1.00  0.00    -0.406 A  
HETATM   14  C   UNL     1      -9.323   3.585  71.688  1.00  0.00    -0.204 A  
HETATM   15  C   UNL     1     -10.344   2.909  72.344  1.00  0.00    -0.084 A  
HETATM   16  C   UNL     1     -11.244   3.591  73.146  1.00  0.00    -0.124 A  
ENDROOT
BRANCH   8  17
HETATM   17  C   UNL     1     -11.771   8.516  71.446  1.00  0.00    -0.346 C  
BRANCH  17  18
HETATM   18  C   UNL     1     -11.485   9.955  71.003  1.00  0.00    -0.388 C  
BRANCH  18  19
HETATM   19  N   UNL     1     -11.857  10.351  69.644  1.00  0.00    -0.217 NA 
HETATM   20  C   UNL     1     -11.012  12.679  68.853  1.00  0.00    -0.273 C  
HETATM   21  C   UNL     1     -12.141  11.774  69.401  1.00  0.00    -0.238 C  
HETATM   22  C   UNL     1      -9.985  11.993  67.927  1.00  0.00    -0.197 C  
HETATM   23  C   UNL     1      -9.641  10.649  68.569  1.00  0.00    -0.175 C  
HETATM   24  C   UNL     1     -10.906   9.806  68.669  1.00  0.00    -0.188 C  
BRANCH  22  25
HETATM   25  N   UNL     1     -10.338  11.859  66.506  1.00  0.00    -0.212 N  
HETATM   26  C   UNL     1     -11.527  12.273  65.857  1.00  0.00    -0.376 C  
HETATM   27  O   UNL     1     -12.491  12.860  66.316  1.00  0.00    -0.453 OA 
HETATM   28  N   UNL     1     -11.415  11.879  64.515  1.00  0.00    -0.317 NA 
HETATM   29  C   UNL     1     -10.213  11.226  64.326  1.00  0.00    -0.327 A  
HETATM   30  C   UNL     1      -9.717  10.650  63.171  1.00  0.00    -0.375 A  
HETATM   31  C   UNL     1      -8.488  10.004  63.266  1.00  0.00    -0.183 A  
HETATM   32  C   UNL     1      -7.789   9.958  64.487  1.00  0.00    -0.142 A  
HETATM   33  C   UNL     1      -8.301  10.578  65.637  1.00  0.00    -0.167 A  
HETATM   34  C   UNL     1      -9.532  11.200  65.540  1.00  0.00    -0.221 A  
ENDBRANCH  22  25
ENDBRANCH  18  19
ENDBRANCH  17  18
ENDBRANCH   8  17
TORSDOF 4
ENDMDL
MODEL      101
REMARK 921   NORMALIZED FREE ENERGY PREDICTED BY IDOCK:   -5.87 KCAL/MOL
REMARK 922        TOTAL FREE ENERGY PREDICTED BY IDOCK:   -8.03 KCAL/MOL
REMARK 923 INTER-LIGAND FREE ENERGY PREDICTED BY IDOCK:   -7.90 KCAL/MOL
REMARK 924 INTRA-LIGAND FREE ENERGY PREDICTED BY IDOCK:   -0.12 KCAL/MOL
REMARK 927      BINDING AFFINITY PREDICTED BY RF-SCORE:    0.00 PKD
ROOT
HETATM    1  F   UNL     1     -11.057  16.224  64.080  1.00  0.00    -0.393 F  
HETATM    2  C   UNL     1     -11.155  15.207  64.946  1.00  0.00    -0.414 A  
HETATM    3  C   UNL     1     -12.223  14.327  64.859  1.00  0.00    -0.449 A  
HETATM    4  C   UNL     1     -12.332  13.275  65.777  1.00  0.00    -0.505 A  
HETATM    5  C   UNL     1     -11.369  13.092  66.790  1.00  0.00    -0.365 A  
HETATM    6  C   UNL     1     -11.554  11.971  67.830  1.00  0.00    -0.400 C  
HETATM    7  C   UNL     1     -10.300  14.004  66.846  1.00  0.00    -0.269 A  
HETATM    8  C   UNL     1     -10.465  10.855  67.792  1.00  0.00    -0.238 C  
HETATM    9  C   UNL     1     -10.192  15.054  65.931  1.00  0.00    -0.335 A  
HETATM   10  C   UNL     1     -12.003  12.409  69.232  1.00  0.00    -0.308 A  
HETATM   11  C   UNL     1     -12.164  13.755  69.599  1.00  0.00    -0.359 A  
HETATM   12  F   UNL     1     -13.533  13.452  72.949  1.00  0.00    -0.595 F  
HETATM   13  C   UNL     1     -12.384  11.428  70.168  1.00  0.00    -0.344 A  
HETATM   14  C   UNL     1     -12.666  14.107  70.858  1.00  0.00    -0.432 A  
HETATM   15  C   UNL     1     -13.026  13.112  71.757  1.00  0.00    -0.338 A  
HETATM   16  C   UNL     1     -12.888  11.774  71.425  1.00  0.00    -0.440 A  
ENDROOT
BRANCH   8  17
HETATM   17  C   UNL     1      -8.980  11.181  67.991  1.00  0.00    -0.149 C  
BRANCH  17  18
HETATM   18  C   UNL     1      -7.949  10.055  67.857  1.00  0.00    -0.105 C  
BRANCH  18  19
HETATM   19  N   UNL     1      -8.292   8.892  67.036  1.00  0.00    -0.106 NA 
HETATM   20  C   UNL     1      -6.295   7.514  66.102  1.00  0.00    -0.042 C  
HETATM   21  C   UNL     1      -7.409   8.571  65.905  1.00  0.00    -0.077 C  
HETATM   22  C   UNL     1      -6.609   6.380  67.101  1.00  0.00    -0.058 C  
HETATM   23  C   UNL     1      -7.265   7.033  68.318  1.00  0.00    -0.091 C  
HETATM   24  C   UNL     1      -8.552   7.722  67.881  1.00  0.00    -0.122 C  
BRANCH  22  25
HETATM   25  N   UNL     1      -7.379   5.231  66.602  1.00  0.00    -0.085 N  
HETATM   26  C   UNL     1      -7.967   5.061  65.325  1.00  0.00    -0.102 C  
HETATM   27  O   UNL     1      -7.933   5.799  64.356  1.00  0.00    -0.114 OA 
HETATM   28  N   UNL     1      -8.637   3.828  65.348  1.00  0.00    -0.112 NA 
HETATM   29  C   UNL     1      -8.494   3.250  66.595  1.00  0.00    -0.107 A  
HETATM   30  C   UNL     1      -9.017   2.057  67.057  1.00  0.00    -0.146 A  
HETATM   31  C   UNL     1      -8.760   1.727  68.384  1.00  0.00    -0.108 A  
HETATM   32  C   UNL     1      -7.992   2.576  69.203  1.00  0.00    -0.059 A  
HETATM   33  C   UNL     1      -7.447   3.767  68.699  1.00  0.00    -0.054 A  
HETATM   34  C   UNL     1      -7.723   4.098  67.386  1.00  0.00    -0.084 A  
ENDBRANCH  22  25
ENDBRANCH  18  19
ENDBRANCH  17  18
ENDBRANCH   8  17
TORSDOF 4
ENDMDL
MODEL      102
REMARK 921   NORMALIZED FREE ENERGY PREDICTED BY IDOCK:   -5.85 KCAL/MOL
REMARK 922        TOTAL FREE ENERGY PREDICTED BY IDOCK:   -8.01 KCAL/MOL
REMARK 923 INTER-LIGAND FREE ENERGY PREDICTED BY IDOCK:   -7.63 KCAL/MOL
REMARK 924 INTRA-LIGAND FREE ENERGY PREDICTED BY IDOCK:   -0.38 KCAL/MOL
REMARK 927      BINDING AFFINITY PREDICTED BY RF-SCORE:    0.00 PKD
ROOT
HETATM    1  F   UNL     1      -7.764   2.157  74.032  1.00  0.00    -0.037 F  
HETATM    2  C   UNL     1      -8.397   3.026  73.233  1.00  0.00    -0.076 A  
HETATM    3  C   UNL     1      -9.776   2.962  73.100  1.00  0.00    -0.155 A  
HETATM    4  C   UNL     1     -10.434   3.860  72.251  1.00  0.00    -0.102 A  
HETATM    5  C   UNL     1      -9.716   4.835  71.527  1.00  0.00    -0.235 A  
HETATM    6  C   UNL     1     -10.457   5.759  70.544  1.00  0.00    -0.331 C  
HETATM    7  C   UNL     1      -8.320   4.868  71.688  1.00  0.00    -0.114 A  
HETATM    8  C   UNL     1     -10.435   7.273  70.924  1.00  0.00    -0.225 C  
HETATM    9  C   UNL     1      -7.663   3.972  72.535  1.00  0.00    -0.074 A  
HETATM   10  C   UNL     1     -10.279   5.450  69.050  1.00  0.00    -0.291 A  
HETATM   11  C   UNL     1      -9.429   4.439  68.574  1.00  0.00    -0.217 A  
HETATM   12  F   UNL     1     -10.132   4.498  65.011  1.00  0.00    -0.189 F  
HETATM   13  C   UNL     1     -11.082   6.125  68.110  1.00  0.00    -0.328 A  
HETATM   14  C   UNL     1      -9.369   4.128  67.210  1.00  0.00    -0.200 A  
HETATM   15  C   UNL     1     -10.172   4.818  66.311  1.00  0.00    -0.282 A  
HETATM   16  C   UNL     1     -11.028   5.816  66.747  1.00  0.00    -0.239 A  
ENDROOT
BRANCH   8  17
HETATM   17  C   UNL     1      -9.114   8.035  71.087  1.00  0.00    -0.172 C  
BRANCH  17  18
HETATM   18  C   UNL     1      -8.950   9.391  70.391  1.00  0.00    -0.250 C  
BRANCH  18  19
HETATM   19  N   UNL     1      -9.720   9.644  69.172  1.00  0.00    -0.170 NA 
HETATM   20  C   UNL     1      -9.530  12.035  68.168  1.00  0.00    -0.200 C  
HETATM   21  C   UNL     1     -10.304  10.983  68.999  1.00  0.00    -0.209 C  
HETATM   22  C   UNL     1      -8.669  11.482  67.012  1.00  0.00    -0.169 C  
HETATM   23  C   UNL     1      -7.940  10.252  67.554  1.00  0.00    -0.106 C  
HETATM   24  C   UNL     1      -8.969   9.215  67.988  1.00  0.00    -0.128 C  
BRANCH  22  25
HETATM   25  N   UNL     1      -9.343  11.213  65.733  1.00  0.00    -0.209 N  
HETATM   26  C   UNL     1      -8.900  10.395  64.666  1.00  0.00    -0.198 C  
HETATM   27  O   UNL     1      -7.895   9.711  64.585  1.00  0.00    -0.121 OA 
HETATM   28  N   UNL     1      -9.861  10.499  63.648  1.00  0.00    -0.320 NA 
HETATM   29  C   UNL     1     -10.862  11.363  64.049  1.00  0.00    -0.383 A  
HETATM   30  C   UNL     1     -11.980  11.772  63.345  1.00  0.00    -0.443 A  
HETATM   31  C   UNL     1     -12.814  12.696  63.967  1.00  0.00    -0.262 A  
HETATM   32  C   UNL     1     -12.524  13.175  65.259  1.00  0.00    -0.550 A  
HETATM   33  C   UNL     1     -11.399  12.719  65.963  1.00  0.00    -0.363 A  
HETATM   34  C   UNL     1     -10.564  11.816  65.331  1.00  0.00    -0.277 A  
ENDBRANCH  22  25
ENDBRANCH  18  19
ENDBRANCH  17  18
ENDBRANCH   8  17
TORSDOF 4
ENDMDL
MODEL      103
REMARK 921   NORMALIZED FREE ENERGY PREDICTED BY IDOCK:   -5.85 KCAL/MOL
REMARK 922        TOTAL FREE ENERGY PREDICTED BY IDOCK:   -8.01 KCAL/MOL
REMARK 923 INTER-LIGAND FREE ENERGY PREDICTED BY IDOCK:   -7.67 KCAL/MOL
REMARK 924 INTRA-LIGAND FREE ENERGY PREDICTED BY IDOCK:   -0.34 KCAL/MOL
REMARK 927      BINDING AFFINITY PREDICTED BY RF-SCORE:    0.00 PKD
ROOT
HETATM    1  F   UNL     1      -9.516  11.563  63.696  1.00  0.00    -0.236 F  
HETATM    2  C   UNL     1      -9.007  10.539  64.393  1.00  0.00    -0.211 A  
HETATM    3  C   UNL     1      -7.671  10.197  64.240  1.00  0.00    -0.131 A  
HETATM    4  C   UNL     1      -7.145   9.116  64.956  1.00  0.00    -0.092 A  
HETATM    5  C   UNL     1      -7.952   8.365  65.836  1.00  0.00    -0.099 A  
HETATM    6  C   UNL     1      -7.366   7.135  66.553  1.00  0.00    -0.083 C  
HETATM    7  C   UNL     1      -9.300   8.742  65.964  1.00  0.00    -0.296 A  
HETATM    8  C   UNL     1      -7.290   7.256  68.107  1.00  0.00    -0.100 C  
HETATM    9  C   UNL     1      -9.826   9.821  65.249  1.00  0.00    -0.335 A  
HETATM   10  C   UNL     1      -7.798   5.762  66.017  1.00  0.00    -0.101 A  
HETATM   11  C   UNL     1      -8.739   5.604  64.986  1.00  0.00    -0.068 A  
HETATM   12  F   UNL     1      -8.641   2.016  64.438  1.00  0.00    -0.085 F  
HETATM   13  C   UNL     1      -7.150   4.606  66.491  1.00  0.00    -0.075 A  
HETATM   14  C   UNL     1      -9.034   4.339  64.463  1.00  0.00    -0.147 A  
HETATM   15  C   UNL     1      -8.377   3.220  64.960  1.00  0.00    -0.094 A  
HETATM   16  C   UNL     1      -7.438   3.340  65.971  1.00  0.00    -0.073 A  
ENDROOT
BRANCH   8  17
HETATM   17  C   UNL     1      -8.547   7.502  68.951  1.00  0.00    -0.129 C  
BRANCH  17  18
HETATM   18  C   UNL     1      -8.389   8.043  70.376  1.00  0.00    -0.120 C  
BRANCH  18  19
HETATM   19  N   UNL     1      -8.956   9.356  70.687  1.00  0.00    -0.245 NA 
HETATM   20  C   UNL     1     -10.520  10.391  68.886  1.00  0.00    -0.232 C  
HETATM   21  C   UNL     1      -9.137  10.303  69.576  1.00  0.00    -0.167 C  
HETATM   22  C   UNL     1     -11.743  10.110  69.785  1.00  0.00    -0.139 C  
HETATM   23  C   UNL     1     -11.393   8.891  70.638  1.00  0.00    -0.299 C  
HETATM   24  C   UNL     1     -10.174   9.214  71.493  1.00  0.00    -0.333 C  
BRANCH  22  25
HETATM   25  N   UNL     1     -12.262  11.225  70.590  1.00  0.00    -0.374 N  
HETATM   26  C   UNL     1     -13.095  11.164  71.734  1.00  0.00    -0.431 C  
HETATM   27  O   UNL     1     -13.529  10.189  72.321  1.00  0.00    -0.398 OA 
HETATM   28  N   UNL     1     -13.359  12.489  72.114  1.00  0.00    -0.510 NA 
HETATM   29  C   UNL     1     -12.734  13.353  71.235  1.00  0.00    -0.338 A  
HETATM   30  C   UNL     1     -12.758  14.735  71.222  1.00  0.00    -0.407 A  
HETATM   31  C   UNL     1     -12.076  15.368  70.187  1.00  0.00    -0.400 A  
HETATM   32  C   UNL     1     -11.390  14.620  69.211  1.00  0.00    -0.313 A  
HETATM   33  C   UNL     1     -11.356  13.218  69.267  1.00  0.00    -0.311 A  
HETATM   34  C   UNL     1     -12.052  12.596  70.286  1.00  0.00    -0.294 A  
ENDBRANCH  22  25
ENDBRANCH  18  19
ENDBRANCH  17  18
ENDBRANCH   8  17
TORSDOF 4
ENDMDL
MODEL      104
REMARK 921   NORMALIZED FREE ENERGY PREDICTED BY IDOCK:   -5.83 KCAL/MOL
REMARK 922        TOTAL FREE ENERGY PREDICTED BY IDOCK:   -7.98 KCAL/MOL
REMARK 923 INTER-LIGAND FREE ENERGY PREDICTED BY IDOCK:   -7.18 KCAL/MOL
REMARK 924 INTRA-LIGAND FREE ENERGY PREDICTED BY IDOCK:   -0.80 KCAL/MOL
REMARK 927      BINDING AFFINITY PREDICTED BY RF-SCORE:    0.00 PKD
ROOT
HETATM    1  F   UNL     1     -12.847  13.796  65.611  1.00  0.00    -0.501 F  
HETATM    2  C   UNL     1     -11.915  12.839  65.510  1.00  0.00    -0.449 A  
HETATM    3  C   UNL     1     -11.742  12.168  64.309  1.00  0.00    -0.451 A  
HETATM    4  C   UNL     1     -10.779  11.157  64.211  1.00  0.00    -0.403 A  
HETATM    5  C   UNL     1      -9.975  10.809  65.317  1.00  0.00    -0.342 A  
HETATM    6  C   UNL     1      -8.976   9.643  65.202  1.00  0.00    -0.249 C  
HETATM    7  C   UNL     1     -10.180  11.512  66.517  1.00  0.00    -0.253 A  
HETATM    8  C   UNL     1      -7.476  10.049  65.339  1.00  0.00    -0.139 C  
HETATM    9  C   UNL     1     -11.141  12.521  66.615  1.00  0.00    -0.327 A  
HETATM   10  C   UNL     1      -9.373   8.333  65.899  1.00  0.00    -0.165 A  
HETATM   11  C   UNL     1     -10.536   8.201  66.676  1.00  0.00    -0.204 A  
HETATM   12  F   UNL     1     -10.501   4.656  67.463  1.00  0.00    -0.168 F  
HETATM   13  C   UNL     1      -8.608   7.174  65.667  1.00  0.00    -0.119 A  
HETATM   14  C   UNL     1     -10.908   6.964  67.215  1.00  0.00    -0.426 A  
HETATM   15  C   UNL     1     -10.126   5.843  66.969  1.00  0.00    -0.183 A  
HETATM   16  C   UNL     1      -8.976   5.936  66.202  1.00  0.00    -0.157 A  
ENDROOT
BRANCH   8  17
HETATM   17  C   UNL     1      -6.950  10.748  66.599  1.00  0.00    -0.129 C  
BRANCH  17  18
HETATM   18  C   UNL     1      -5.876  10.049  67.440  1.00  0.00    -0.053 C  
BRANCH  18  19
HETATM   19  N   UNL     1      -6.287   8.954  68.321  1.00  0.00    -0.054 NA 
HETATM   20  C   UNL     1      -5.629   9.184  70.826  1.00  0.00    -0.036 C  
HETATM   21  C   UNL     1      -5.382   8.586  69.420  1.00  0.00    -0.031 C  
HETATM   22  C   UNL     1      -7.102   9.475  71.187  1.00  0.00     0.074 C  
HETATM   23  C   UNL     1      -7.737  10.125  69.959  1.00  0.00    -0.150 C  
HETATM   24  C   UNL     1      -7.663   9.154  68.786  1.00  0.00    -0.087 C  
BRANCH  22  25
HETATM   25  N   UNL     1      -7.905   8.357  71.705  1.00  0.00    -0.117 N  
HETATM   26  C   UNL     1      -7.458   7.082  72.128  1.00  0.00    -0.090 C  
HETATM   27  O   UNL     1      -6.322   6.645  72.194  1.00  0.00    -0.048 OA 
HETATM   28  N   UNL     1      -8.601   6.349  72.486  1.00  0.00    -0.123 NA 
HETATM   29  C   UNL     1      -9.726   7.124  72.280  1.00  0.00    -0.153 A  
HETATM   30  C   UNL     1     -11.052   6.785  72.472  1.00  0.00    -0.299 A  
HETATM   31  C   UNL     1     -12.003   7.745  72.138  1.00  0.00    -0.362 A  
HETATM   32  C   UNL     1     -11.615   9.003  71.638  1.00  0.00    -0.426 A  
HETATM   33  C   UNL     1     -10.260   9.332  71.484  1.00  0.00    -0.338 A  
HETATM   34  C   UNL     1      -9.322   8.366  71.798  1.00  0.00    -0.226 A  
ENDBRANCH  22  25
ENDBRANCH  18  19
ENDBRANCH  17  18
ENDBRANCH   8  17
TORSDOF 4
ENDMDL
MODEL      105
REMARK 921   NORMALIZED FREE ENERGY PREDICTED BY IDOCK:   -5.81 KCAL/MOL
REMARK 922        TOTAL FREE ENERGY PREDICTED BY IDOCK:   -7.95 KCAL/MOL
REMARK 923 INTER-LIGAND FREE ENERGY PREDICTED BY IDOCK:   -7.96 KCAL/MOL
REMARK 924 INTRA-LIGAND FREE ENERGY PREDICTED BY IDOCK:    0.01 KCAL/MOL
REMARK 927      BINDING AFFINITY PREDICTED BY RF-SCORE:    0.00 PKD
ROOT
HETATM    1  F   UNL     1     -14.405  10.011  72.436  1.00  0.00    -0.132 F  
HETATM    2  C   UNL     1     -13.385   9.270  71.982  1.00  0.00    -0.450 A  
HETATM    3  C   UNL     1     -13.546   7.902  71.820  1.00  0.00    -0.396 A  
HETATM    4  C   UNL     1     -12.473   7.127  71.363  1.00  0.00    -0.427 A  
HETATM    5  C   UNL     1     -11.228   7.716  71.060  1.00  0.00    -0.283 A  
HETATM    6  C   UNL     1     -10.045   6.829  70.630  1.00  0.00    -0.204 C  
HETATM    7  C   UNL     1     -11.104   9.105  71.237  1.00  0.00    -0.405 A  
HETATM    8  C   UNL     1      -9.538   7.071  69.175  1.00  0.00    -0.149 C  
HETATM    9  C   UNL     1     -12.174   9.878  71.693  1.00  0.00    -0.482 A  
HETATM   10  C   UNL     1      -8.950   6.595  71.682  1.00  0.00    -0.141 A  
HETATM   11  C   UNL     1      -8.957   7.210  72.944  1.00  0.00    -0.156 A  
HETATM   12  F   UNL     1      -6.109   5.634  74.553  1.00  0.00    -0.056 F  
HETATM   13  C   UNL     1      -7.948   5.639  71.428  1.00  0.00    -0.113 A  
HETATM   14  C   UNL     1      -7.991   6.897  73.908  1.00  0.00    -0.124 A  
HETATM   15  C   UNL     1      -7.014   5.952  73.619  1.00  0.00    -0.081 A  
HETATM   16  C   UNL     1      -6.981   5.320  72.387  1.00  0.00    -0.080 A  
ENDROOT
BRANCH   8  17
HETATM   17  C   UNL     1      -9.036   8.449  68.724  1.00  0.00    -0.140 C  
BRANCH  17  18
HETATM   18  C   UNL     1      -8.555   8.626  67.279  1.00  0.00    -0.125 C  
BRANCH  18  19
HETATM   19  N   UNL     1      -8.940   9.843  66.563  1.00  0.00    -0.145 NA 
HETATM   20  C   UNL     1     -10.781  11.301  67.679  1.00  0.00    -0.270 C  
HETATM   21  C   UNL     1     -10.351  10.254  66.623  1.00  0.00    -0.219 C  
HETATM   22  C   UNL     1      -9.719  12.356  68.056  1.00  0.00    -0.210 C  
HETATM   23  C   UNL     1      -8.395  11.610  68.218  1.00  0.00    -0.159 C  
HETATM   24  C   UNL     1      -8.032  10.947  66.895  1.00  0.00    -0.138 C  
BRANCH  22  25
HETATM   25  N   UNL     1      -9.595  13.533  67.184  1.00  0.00    -0.233 N  
HETATM   26  C   UNL     1      -8.580  14.521  67.189  1.00  0.00    -0.222 C  
HETATM   27  O   UNL     1      -7.578  14.595  67.878  1.00  0.00    -0.115 OA 
HETATM   28  N   UNL     1      -8.928  15.465  66.210  1.00  0.00    -0.313 NA 
HETATM   29  C   UNL     1     -10.124  15.098  65.623  1.00  0.00    -0.363 A  
HETATM   30  C   UNL     1     -10.840  15.757  64.640  1.00  0.00    -0.250 A  
HETATM   31  C   UNL     1     -12.052  15.192  64.257  1.00  0.00    -0.277 A  
HETATM   32  C   UNL     1     -12.511  13.997  64.845  1.00  0.00    -0.419 A  
HETATM   33  C   UNL     1     -11.748  13.332  65.818  1.00  0.00    -0.395 A  
HETATM   34  C   UNL     1     -10.555  13.910  66.208  1.00  0.00    -0.289 A  
ENDBRANCH  22  25
ENDBRANCH  18  19
ENDBRANCH  17  18
ENDBRANCH   8  17
TORSDOF 4
ENDMDL
MODEL      106
REMARK 921   NORMALIZED FREE ENERGY PREDICTED BY IDOCK:   -5.80 KCAL/MOL
REMARK 922        TOTAL FREE ENERGY PREDICTED BY IDOCK:   -7.94 KCAL/MOL
REMARK 923 INTER-LIGAND FREE ENERGY PREDICTED BY IDOCK:   -7.64 KCAL/MOL
REMARK 924 INTRA-LIGAND FREE ENERGY PREDICTED BY IDOCK:   -0.30 KCAL/MOL
REMARK 927      BINDING AFFINITY PREDICTED BY RF-SCORE:    0.00 PKD
ROOT
HETATM    1  F   UNL     1      -7.427   7.874  72.522  1.00  0.00    -0.082 F  
HETATM    2  C   UNL     1      -7.896   8.058  71.281  1.00  0.00    -0.091 A  
HETATM    3  C   UNL     1      -8.136   6.962  70.465  1.00  0.00    -0.115 A  
HETATM    4  C   UNL     1      -8.610   7.157  69.163  1.00  0.00    -0.133 A  
HETATM    5  C   UNL     1      -8.851   8.454  68.663  1.00  0.00    -0.136 A  
HETATM    6  C   UNL     1      -9.300   8.641  67.202  1.00  0.00    -0.190 C  
HETATM    7  C   UNL     1      -8.595   9.539  69.519  1.00  0.00    -0.171 A  
HETATM    8  C   UNL     1     -10.727   9.246  67.028  1.00  0.00    -0.199 C  
HETATM    9  C   UNL     1      -8.122   9.344  70.820  1.00  0.00    -0.157 A  
HETATM   10  C   UNL     1      -8.237   9.161  66.223  1.00  0.00    -0.111 A  
HETATM   11  C   UNL     1      -6.943   9.533  66.624  1.00  0.00    -0.085 A  
HETATM   12  F   UNL     1      -5.356  10.243  63.436  1.00  0.00    -0.086 F  
HETATM   13  C   UNL     1      -8.519   9.165  64.844  1.00  0.00    -0.191 A  
HETATM   14  C   UNL     1      -5.976   9.912  65.685  1.00  0.00    -0.073 A  
HETATM   15  C   UNL     1      -6.292   9.908  64.332  1.00  0.00    -0.124 A  
HETATM   16  C   UNL     1      -7.556   9.540  63.901  1.00  0.00    -0.122 A  
ENDROOT
BRANCH   8  17
HETATM   17  C   UNL     1     -11.090  10.617  67.613  1.00  0.00    -0.385 C  
BRANCH  17  18
HETATM   18  C   UNL     1     -11.356  11.784  66.656  1.00  0.00    -0.316 C  
BRANCH  18  19
HETATM   19  N   UNL     1     -11.471  13.131  67.217  1.00  0.00    -0.313 NA 
HETATM   20  C   UNL     1      -9.416  13.998  68.554  1.00  0.00    -0.191 C  
HETATM   21  C   UNL     1     -10.837  13.384  68.520  1.00  0.00    -0.265 C  
HETATM   22  C   UNL     1      -9.068  14.960  67.398  1.00  0.00    -0.189 C  
HETATM   23  C   UNL     1      -9.588  14.312  66.114  1.00  0.00    -0.300 C  
HETATM   24  C   UNL     1     -11.099  14.140  66.220  1.00  0.00    -0.318 C  
BRANCH  22  25
HETATM   25  N   UNL     1      -9.495  16.360  67.529  1.00  0.00    -0.223 N  
HETATM   26  C   UNL     1     -10.681  16.861  68.120  1.00  0.00    -0.375 C  
HETATM   27  O   UNL     1     -11.579  16.256  68.678  1.00  0.00    -0.355 OA 
HETATM   28  N   UNL     1     -10.659  18.255  67.955  1.00  0.00    -0.398 NA 
HETATM   29  C   UNL     1      -9.515  18.619  67.271  1.00  0.00    -0.298 A  
HETATM   30  C   UNL     1      -9.114  19.880  66.872  1.00  0.00    -0.452 A  
HETATM   31  C   UNL     1      -7.930  19.966  66.147  1.00  0.00    -0.345 A  
HETATM   32  C   UNL     1      -7.180  18.811  65.850  1.00  0.00    -0.270 A  
HETATM   33  C   UNL     1      -7.594  17.547  66.295  1.00  0.00    -0.343 A  
HETATM   34  C   UNL     1      -8.782  17.467  66.997  1.00  0.00    -0.240 A  
ENDBRANCH  22  25
ENDBRANCH  18  19
ENDBRANCH  17  18
ENDBRANCH   8  17
TORSDOF 4
ENDMDL
MODEL      107
REMARK 921   NORMALIZED FREE ENERGY PREDICTED BY IDOCK:   -5.80 KCAL/MOL
REMARK 922        TOTAL FREE ENERGY PREDICTED BY IDOCK:   -7.94 KCAL/MOL
REMARK 923 INTER-LIGAND FREE ENERGY PREDICTED BY IDOCK:   -7.29 KCAL/MOL
REMARK 924 INTRA-LIGAND FREE ENERGY PREDICTED BY IDOCK:   -0.64 KCAL/MOL
REMARK 927      BINDING AFFINITY PREDICTED BY RF-SCORE:    0.00 PKD
ROOT
HETATM    1  F   UNL     1     -13.582  11.369  72.363  1.00  0.00    -0.504 F  
HETATM    2  C   UNL     1     -13.084  10.212  71.909  1.00  0.00    -0.466 A  
HETATM    3  C   UNL     1     -13.849   9.057  71.976  1.00  0.00    -0.501 A  
HETATM    4  C   UNL     1     -13.319   7.845  71.517  1.00  0.00    -0.343 A  
HETATM    5  C   UNL     1     -12.016   7.778  70.981  1.00  0.00    -0.281 A  
HETATM    6  C   UNL     1     -11.433   6.419  70.553  1.00  0.00    -0.444 C  
HETATM    7  C   UNL     1     -11.272   8.969  70.929  1.00  0.00    -0.348 A  
HETATM    8  C   UNL     1     -11.134   6.285  69.027  1.00  0.00    -0.446 C  
HETATM    9  C   UNL     1     -11.800  10.179  71.388  1.00  0.00    -0.414 A  
HETATM   10  C   UNL     1     -10.383   5.802  71.489  1.00  0.00    -0.274 A  
HETATM   11  C   UNL     1      -9.901   6.455  72.635  1.00  0.00    -0.175 A  
HETATM   12  F   UNL     1      -7.789   3.896  74.112  1.00  0.00    -0.076 F  
HETATM   13  C   UNL     1      -9.959   4.478  71.265  1.00  0.00    -0.258 A  
HETATM   14  C   UNL     1      -9.015   5.817  73.512  1.00  0.00    -0.128 A  
HETATM   15  C   UNL     1      -8.614   4.512  73.256  1.00  0.00    -0.101 A  
HETATM   16  C   UNL     1      -9.076   3.835  72.138  1.00  0.00    -0.157 A  
ENDROOT
BRANCH   8  17
HETATM   17  C   UNL     1     -10.170   7.243  68.316  1.00  0.00    -0.208 C  
BRANCH  17  18
HETATM   18  C   UNL     1      -8.681   7.197  68.673  1.00  0.00    -0.127 C  
BRANCH  18  19
HETATM   19  N   UNL     1      -8.137   8.256  69.525  1.00  0.00    -0.112 NA 
HETATM   20  C   UNL     1      -5.642   8.877  69.138  1.00  0.00    -0.036 C  
HETATM   21  C   UNL     1      -6.734   8.138  69.950  1.00  0.00    -0.043 C  
HETATM   22  C   UNL     1      -6.074  10.203  68.476  1.00  0.00    -0.044 C  
HETATM   23  C   UNL     1      -7.451   9.960  67.858  1.00  0.00    -0.089 C  
HETATM   24  C   UNL     1      -8.431   9.576  68.959  1.00  0.00    -0.128 C  
BRANCH  22  25
HETATM   25  N   UNL     1      -6.042  11.416  69.306  1.00  0.00    -0.058 N  
HETATM   26  C   UNL     1      -5.772  11.520  70.692  1.00  0.00    -0.118 C  
HETATM   27  O   UNL     1      -5.472  10.647  71.487  1.00  0.00    -0.266 OA 
HETATM   28  N   UNL     1      -5.911  12.875  71.032  1.00  0.00    -0.297 NA 
HETATM   29  C   UNL     1      -6.272  13.596  69.910  1.00  0.00    -0.118 A  
HETATM   30  C   UNL     1      -6.540  14.948  69.803  1.00  0.00    -0.170 A  
HETATM   31  C   UNL     1      -6.935  15.416  68.554  1.00  0.00    -0.113 A  
HETATM   32  C   UNL     1      -7.041  14.541  67.455  1.00  0.00    -0.199 A  
HETATM   33  C   UNL     1      -6.731  13.179  67.585  1.00  0.00    -0.163 A  
HETATM   34  C   UNL     1      -6.360  12.717  68.833  1.00  0.00    -0.086 A  
ENDBRANCH  22  25
ENDBRANCH  18  19
ENDBRANCH  17  18
ENDBRANCH   8  17
TORSDOF 4
ENDMDL
MODEL      108
REMARK 921   NORMALIZED FREE ENERGY PREDICTED BY IDOCK:   -5.77 KCAL/MOL
REMARK 922        TOTAL FREE ENERGY PREDICTED BY IDOCK:   -7.91 KCAL/MOL
REMARK 923 INTER-LIGAND FREE ENERGY PREDICTED BY IDOCK:   -7.02 KCAL/MOL
REMARK 924 INTRA-LIGAND FREE ENERGY PREDICTED BY IDOCK:   -0.89 KCAL/MOL
REMARK 927      BINDING AFFINITY PREDICTED BY RF-SCORE:    0.00 PKD
ROOT
HETATM    1  F   UNL     1      -8.620   3.936  65.590  1.00  0.00    -0.107 F  
HETATM    2  C   UNL     1      -9.091   5.060  66.145  1.00  0.00    -0.138 A  
HETATM    3  C   UNL     1     -10.443   5.171  66.437  1.00  0.00    -0.356 A  
HETATM    4  C   UNL     1     -10.935   6.354  67.001  1.00  0.00    -0.463 A  
HETATM    5  C   UNL     1     -10.078   7.438  67.282  1.00  0.00    -0.296 A  
HETATM    6  C   UNL     1     -10.660   8.753  67.833  1.00  0.00    -0.236 C  
HETATM    7  C   UNL     1      -8.715   7.287  66.973  1.00  0.00    -0.123 A  
HETATM    8  C   UNL     1     -10.187   9.127  69.272  1.00  0.00    -0.215 C  
HETATM    9  C   UNL     1      -8.223   6.107  66.409  1.00  0.00    -0.113 A  
HETATM   10  C   UNL     1     -10.757   9.924  66.844  1.00  0.00    -0.195 A  
HETATM   11  C   UNL     1     -10.274   9.855  65.527  1.00  0.00    -0.194 A  
HETATM   12  F   UNL     1     -11.369  13.040  64.169  1.00  0.00    -0.347 F  
HETATM   13  C   UNL     1     -11.459  11.084  67.221  1.00  0.00    -0.164 A  
HETATM   14  C   UNL     1     -10.467  10.912  64.629  1.00  0.00    -0.384 A  
HETATM   15  C   UNL     1     -11.161  12.044  65.039  1.00  0.00    -0.320 A  
HETATM   16  C   UNL     1     -11.658  12.142  66.329  1.00  0.00    -0.424 A  
ENDROOT
BRANCH   8  17
HETATM   17  C   UNL     1      -8.700   9.317  69.600  1.00  0.00    -0.155 C  
BRANCH  17  18
HETATM   18  C   UNL     1      -7.881  10.314  68.773  1.00  0.00    -0.106 C  
BRANCH  18  19
HETATM   19  N   UNL     1      -7.871  11.718  69.186  1.00  0.00     0.075 NA 
HETATM   20  C   UNL     1      -5.905  13.167  68.292  1.00  0.00    -0.087 C  
HETATM   21  C   UNL     1      -6.564  12.349  69.430  1.00  0.00    -0.072 C  
HETATM   22  C   UNL     1      -6.873  13.888  67.330  1.00  0.00    -0.007 C  
HETATM   23  C   UNL     1      -7.993  12.899  67.008  1.00  0.00    -0.031 C  
HETATM   24  C   UNL     1      -8.713  12.525  68.297  1.00  0.00    -0.171 C  
BRANCH  22  25
HETATM   25  N   UNL     1      -7.389  15.200  67.747  1.00  0.00    -0.147 N  
HETATM   26  C   UNL     1      -7.005  15.975  68.869  1.00  0.00    -0.148 C  
HETATM   27  O   UNL     1      -6.147  15.750  69.704  1.00  0.00    -0.141 OA 
HETATM   28  N   UNL     1      -7.818  17.119  68.869  1.00  0.00    -0.246 NA 
HETATM   29  C   UNL     1      -8.693  17.061  67.801  1.00  0.00    -0.222 A  
HETATM   30  C   UNL     1      -9.681  17.961  67.447  1.00  0.00    -0.288 A  
HETATM   31  C   UNL     1     -10.463  17.637  66.343  1.00  0.00    -0.286 A  
HETATM   32  C   UNL     1     -10.239  16.448  65.623  1.00  0.00    -0.349 A  
HETATM   33  C   UNL     1      -9.207  15.568  65.985  1.00  0.00    -0.361 A  
HETATM   34  C   UNL     1      -8.448  15.886  67.095  1.00  0.00    -0.199 A  
ENDBRANCH  22  25
ENDBRANCH  18  19
ENDBRANCH  17  18
ENDBRANCH   8  17
TORSDOF 4
ENDMDL
MODEL      109
REMARK 921   NORMALIZED FREE ENERGY PREDICTED BY IDOCK:   -5.72 KCAL/MOL
REMARK 922        TOTAL FREE ENERGY PREDICTED BY IDOCK:   -7.85 KCAL/MOL
REMARK 923 INTER-LIGAND FREE ENERGY PREDICTED BY IDOCK:   -7.92 KCAL/MOL
REMARK 924 INTRA-LIGAND FREE ENERGY PREDICTED BY IDOCK:    0.07 KCAL/MOL
REMARK 927      BINDING AFFINITY PREDICTED BY RF-SCORE:    0.00 PKD
ROOT
HETATM    1  F   UNL     1      -5.853   9.689  72.185  1.00  0.00    -0.065 F  
HETATM    2  C   UNL     1      -6.510   9.275  71.094  1.00  0.00    -0.083 A  
HETATM    3  C   UNL     1      -6.625   7.917  70.832  1.00  0.00    -0.037 A  
HETATM    4  C   UNL     1      -7.297   7.487  69.682  1.00  0.00    -0.090 A  
HETATM    5  C   UNL     1      -7.865   8.413  68.782  1.00  0.00    -0.115 A  
HETATM    6  C   UNL     1      -8.533   7.914  67.488  1.00  0.00    -0.123 C  
HETATM    7  C   UNL     1      -7.728   9.780  69.082  1.00  0.00    -0.092 A  
HETATM    8  C   UNL     1     -10.065   8.193  67.391  1.00  0.00    -0.298 C  
HETATM    9  C   UNL     1      -7.057  10.210  70.230  1.00  0.00    -0.146 A  
HETATM   10  C   UNL     1      -7.740   8.118  66.188  1.00  0.00    -0.090 A  
HETATM   11  C   UNL     1      -6.509   8.793  66.140  1.00  0.00    -0.065 A  
HETATM   12  F   UNL     1      -5.541   8.321  62.672  1.00  0.00    -0.065 F  
HETATM   13  C   UNL     1      -8.197   7.509  65.004  1.00  0.00    -0.105 A  
HETATM   14  C   UNL     1      -5.774   8.874  64.951  1.00  0.00    -0.058 A  
HETATM   15  C   UNL     1      -6.260   8.265  63.800  1.00  0.00    -0.072 A  
HETATM   16  C   UNL     1      -7.466   7.585  63.814  1.00  0.00    -0.108 A  
ENDROOT
BRANCH   8  17
HETATM   17  C   UNL     1     -10.622   9.620  67.464  1.00  0.00    -0.339 C  
BRANCH  17  18
HETATM   18  C   UNL     1      -9.955  10.720  66.631  1.00  0.00    -0.206 C  
BRANCH  18  19
HETATM   19  N   UNL     1      -9.836  12.058  67.213  1.00  0.00    -0.191 NA 
HETATM   20  C   UNL     1     -11.755  13.725  66.667  1.00  0.00    -0.421 C  
HETATM   21  C   UNL     1     -10.322  13.195  66.417  1.00  0.00    -0.287 C  
HETATM   22  C   UNL     1     -12.282  13.594  68.112  1.00  0.00    -0.129 C  
HETATM   23  C   UNL     1     -11.889  12.201  68.601  1.00  0.00    -0.358 C  
HETATM   24  C   UNL     1     -10.370  12.075  68.580  1.00  0.00    -0.217 C  
BRANCH  22  25
HETATM   25  N   UNL     1     -11.907  14.647  69.067  1.00  0.00    -0.311 N  
HETATM   26  C   UNL     1     -11.039  15.748  68.859  1.00  0.00    -0.298 C  
HETATM   27  O   UNL     1     -10.451  16.086  67.847  1.00  0.00    -0.274 OA 
HETATM   28  N   UNL     1     -10.959  16.437  70.079  1.00  0.00    -0.357 NA 
HETATM   29  C   UNL     1     -11.729  15.787  71.026  1.00  0.00    -0.422 A  
HETATM   30  C   UNL     1     -11.907  16.107  72.359  1.00  0.00    -0.637 A  
HETATM   31  C   UNL     1     -12.704  15.251  73.112  1.00  0.00    -0.586 A  
HETATM   32  C   UNL     1     -13.304  14.120  72.525  1.00  0.00    -0.616 A  
HETATM   33  C   UNL     1     -13.132  13.837  71.162  1.00  0.00    -0.324 A  
HETATM   34  C   UNL     1     -12.322  14.680  70.425  1.00  0.00    -0.339 A  
ENDBRANCH  22  25
ENDBRANCH  18  19
ENDBRANCH  17  18
ENDBRANCH   8  17
TORSDOF 4
ENDMDL
MODEL      110
REMARK 921   NORMALIZED FREE ENERGY PREDICTED BY IDOCK:   -5.71 KCAL/MOL
REMARK 922        TOTAL FREE ENERGY PREDICTED BY IDOCK:   -7.84 KCAL/MOL
REMARK 923 INTER-LIGAND FREE ENERGY PREDICTED BY IDOCK:   -7.52 KCAL/MOL
REMARK 924 INTRA-LIGAND FREE ENERGY PREDICTED BY IDOCK:   -0.32 KCAL/MOL
REMARK 927      BINDING AFFINITY PREDICTED BY RF-SCORE:    0.00 PKD
ROOT
HETATM    1  F   UNL     1      -9.506   6.402  72.997  1.00  0.00    -0.143 F  
HETATM    2  C   UNL     1      -9.930   7.211  72.017  1.00  0.00    -0.162 A  
HETATM    3  C   UNL     1     -10.875   6.758  71.109  1.00  0.00    -0.275 A  
HETATM    4  C   UNL     1     -11.304   7.600  70.076  1.00  0.00    -0.081 A  
HETATM    5  C   UNL     1     -10.791   8.906  69.942  1.00  0.00    -0.219 A  
HETATM    6  C   UNL     1     -11.225   9.782  68.753  1.00  0.00    -0.070 C  
HETATM    7  C   UNL     1      -9.835   9.329  70.881  1.00  0.00    -0.363 A  
HETATM    8  C   UNL     1     -12.024  11.065  69.140  1.00  0.00    -0.394 C  
HETATM    9  C   UNL     1      -9.406   8.490  71.913  1.00  0.00    -0.337 A  
HETATM   10  C   UNL     1     -10.198   9.959  67.624  1.00  0.00    -0.255 A  
HETATM   11  C   UNL     1      -8.898   9.432  67.684  1.00  0.00    -0.118 A  
HETATM   12  F   UNL     1      -7.625  10.226  64.376  1.00  0.00    -0.145 F  
HETATM   13  C   UNL     1     -10.598  10.576  66.423  1.00  0.00    -0.218 A  
HETATM   14  C   UNL     1      -8.025   9.534  66.593  1.00  0.00    -0.108 A  
HETATM   15  C   UNL     1      -8.453  10.155  65.426  1.00  0.00    -0.156 A  
HETATM   16  C   UNL     1      -9.732  10.679  65.331  1.00  0.00    -0.306 A  
ENDROOT
BRANCH   8  17
HETATM   17  C   UNL     1     -11.425  12.129  70.069  1.00  0.00    -0.156 C  
BRANCH  17  18
HETATM   18  C   UNL     1     -11.577  13.608  69.698  1.00  0.00    -0.278 C  
BRANCH  18  19
HETATM   19  N   UNL     1     -10.684  14.164  68.680  1.00  0.00    -0.248 NA 
HETATM   20  C   UNL     1     -11.553  16.261  67.411  1.00  0.00     0.384 C  
HETATM   21  C   UNL     1     -11.299  14.735  67.472  1.00  0.00    -0.344 C  
HETATM   22  C   UNL     1     -10.548  17.145  68.181  1.00  0.00    -0.380 C  
HETATM   23  C   UNL     1     -10.305  16.465  69.528  1.00  0.00    -0.278 C  
HETATM   24  C   UNL     1      -9.715  15.081  69.289  1.00  0.00    -0.190 C  
BRANCH  22  25
HETATM   25  N   UNL     1      -9.294  17.496  67.499  1.00  0.00    -0.244 N  
HETATM   26  C   UNL     1      -8.777  16.966  66.291  1.00  0.00    -0.286 C  
HETATM   27  O   UNL     1      -9.267  16.143  65.539  1.00  0.00    -0.377 OA 
HETATM   28  N   UNL     1      -7.532  17.578  66.080  1.00  0.00    -0.457 NA 
HETATM   29  C   UNL     1      -7.264  18.446  67.121  1.00  0.00    -0.204 A  
HETATM   30  C   UNL     1      -6.140  19.225  67.326  1.00  0.00    -0.189 A  
HETATM   31  C   UNL     1      -6.101  19.981  68.493  1.00  0.00    -0.303 A  
HETATM   32  C   UNL     1      -7.170  19.951  69.409  1.00  0.00    -0.205 A  
HETATM   33  C   UNL     1      -8.313  19.176  69.160  1.00  0.00    -0.145 A  
HETATM   34  C   UNL     1      -8.336  18.412  68.009  1.00  0.00    -0.272 A  
ENDBRANCH  22  25
ENDBRANCH  18  19
ENDBRANCH  17  18
ENDBRANCH   8  17
TORSDOF 4
ENDMDL
MODEL      111
REMARK 921   NORMALIZED FREE ENERGY PREDICTED BY IDOCK:   -5.69 KCAL/MOL
REMARK 922        TOTAL FREE ENERGY PREDICTED BY IDOCK:   -7.81 KCAL/MOL
REMARK 923 INTER-LIGAND FREE ENERGY PREDICTED BY IDOCK:   -6.99 KCAL/MOL
REMARK 924 INTRA-LIGAND FREE ENERGY PREDICTED BY IDOCK:   -0.82 KCAL/MOL
REMARK 927      BINDING AFFINITY PREDICTED BY RF-SCORE:    0.00 PKD
ROOT
HETATM    1  F   UNL     1     -13.095  13.217  64.951  1.00  0.00    -0.421 F  
HETATM    2  C   UNL     1     -12.057  12.397  65.160  1.00  0.00    -0.405 A  
HETATM    3  C   UNL     1     -11.414  11.809  64.080  1.00  0.00    -0.444 A  
HETATM    4  C   UNL     1     -10.340  10.938  64.302  1.00  0.00    -0.436 A  
HETATM    5  C   UNL     1      -9.896  10.649  65.608  1.00  0.00    -0.307 A  
HETATM    6  C   UNL     1      -8.762   9.631  65.825  1.00  0.00    -0.168 C  
HETATM    7  C   UNL     1     -10.572  11.264  66.677  1.00  0.00    -0.309 A  
HETATM    8  C   UNL     1      -7.458  10.223  66.443  1.00  0.00    -0.114 C  
HETATM    9  C   UNL     1     -11.644  12.133  66.456  1.00  0.00    -0.425 A  
HETATM   10  C   UNL     1      -9.177   8.250  66.355  1.00  0.00    -0.247 A  
HETATM   11  C   UNL     1     -10.498   7.931  66.711  1.00  0.00    -0.317 A  
HETATM   12  F   UNL     1     -10.228   4.390  67.467  1.00  0.00    -0.193 F  
HETATM   13  C   UNL     1      -8.225   7.213  66.385  1.00  0.00    -0.120 A  
HETATM   14  C   UNL     1     -10.850   6.633  67.099  1.00  0.00    -0.471 A  
HETATM   15  C   UNL     1      -9.882   5.636  67.122  1.00  0.00    -0.149 A  
HETATM   16  C   UNL     1      -8.571   5.914  66.770  1.00  0.00    -0.113 A  
ENDROOT
BRANCH   8  17
HETATM   17  C   UNL     1      -7.468  10.927  67.806  1.00  0.00    -0.094 C  
BRANCH  17  18
HETATM   18  C   UNL     1      -6.921  10.183  69.029  1.00  0.00    -0.058 C  
BRANCH  18  19
HETATM   19  N   UNL     1      -7.370   8.810  69.265  1.00  0.00    -0.069 NA 
HETATM   20  C   UNL     1      -6.571   7.704  71.479  1.00  0.00    -0.045 C  
HETATM   21  C   UNL     1      -6.441   7.896  69.948  1.00  0.00    -0.037 C  
HETATM   22  C   UNL     1      -7.997   7.828  72.057  1.00  0.00    -0.105 C  
HETATM   23  C   UNL     1      -8.642   9.039  71.383  1.00  0.00    -0.178 C  
HETATM   24  C   UNL     1      -8.702   8.800  69.879  1.00  0.00    -0.135 C  
BRANCH  22  25
HETATM   25  N   UNL     1      -8.856   6.636  72.003  1.00  0.00    -0.135 N  
HETATM   26  C   UNL     1     -10.044   6.380  72.731  1.00  0.00    -0.180 C  
HETATM   27  O   UNL     1     -10.632   7.096  73.523  1.00  0.00    -0.353 OA 
HETATM   28  N   UNL     1     -10.468   5.091  72.374  1.00  0.00    -0.212 NA 
HETATM   29  C   UNL     1      -9.575   4.546  71.472  1.00  0.00    -0.163 A  
HETATM   30  C   UNL     1      -9.595   3.292  70.890  1.00  0.00    -0.234 A  
HETATM   31  C   UNL     1      -8.538   2.973  70.044  1.00  0.00    -0.110 A  
HETATM   32  C   UNL     1      -7.508   3.900  69.793  1.00  0.00    -0.052 A  
HETATM   33  C   UNL     1      -7.530   5.178  70.373  1.00  0.00    -0.067 A  
HETATM   34  C   UNL     1      -8.572   5.480  71.228  1.00  0.00    -0.127 A  
ENDBRANCH  22  25
ENDBRANCH  18  19
ENDBRANCH  17  18
ENDBRANCH   8  17
TORSDOF 4
ENDMDL
MODEL      112
REMARK 921   NORMALIZED FREE ENERGY PREDICTED BY IDOCK:   -5.67 KCAL/MOL
REMARK 922        TOTAL FREE ENERGY PREDICTED BY IDOCK:   -7.78 KCAL/MOL
REMARK 923 INTER-LIGAND FREE ENERGY PREDICTED BY IDOCK:   -8.09 KCAL/MOL
REMARK 924 INTRA-LIGAND FREE ENERGY PREDICTED BY IDOCK:    0.31 KCAL/MOL
REMARK 927      BINDING AFFINITY PREDICTED BY RF-SCORE:    0.00 PKD
ROOT
HETATM    1  F   UNL     1     -12.776  12.467  62.970  1.00  0.00    -0.526 F  
HETATM    2  C   UNL     1     -11.817  12.010  63.787  1.00  0.00    -0.484 A  
HETATM    3  C   UNL     1     -10.667  11.446  63.253  1.00  0.00    -0.332 A  
HETATM    4  C   UNL     1      -9.675  10.954  64.109  1.00  0.00    -0.347 A  
HETATM    5  C   UNL     1      -9.822  11.024  65.510  1.00  0.00    -0.292 A  
HETATM    6  C   UNL     1      -8.749  10.407  66.425  1.00  0.00    -0.149 C  
HETATM    7  C   UNL     1     -11.000  11.602  66.013  1.00  0.00    -0.338 A  
HETATM    8  C   UNL     1      -7.985  11.430  67.322  1.00  0.00    -0.149 C  
HETATM    9  C   UNL     1     -11.992  12.094  65.159  1.00  0.00    -0.324 A  
HETATM   10  C   UNL     1      -9.111   9.076  67.102  1.00  0.00    -0.158 A  
HETATM   11  C   UNL     1     -10.374   8.474  66.978  1.00  0.00    -0.379 A  
HETATM   12  F   UNL     1      -9.863   5.324  68.712  1.00  0.00    -0.159 F  
HETATM   13  C   UNL     1      -8.111   8.361  67.787  1.00  0.00    -0.122 A  
HETATM   14  C   UNL     1     -10.632   7.214  67.534  1.00  0.00    -0.348 A  
HETATM   15  C   UNL     1      -9.621   6.540  68.207  1.00  0.00    -0.131 A  
HETATM   16  C   UNL     1      -8.362   7.102  68.341  1.00  0.00    -0.125 A  
ENDROOT
BRANCH   8  17
HETATM   17  C   UNL     1      -8.728  12.326  68.322  1.00  0.00    -0.178 C  
BRANCH  17  18
HETATM   18  C   UNL     1      -9.270  13.678  67.846  1.00  0.00    -0.203 C  
BRANCH  18  19
HETATM   19  N   UNL     1      -8.823  14.888  68.537  1.00  0.00    -0.168 NA 
HETATM   20  C   UNL     1      -6.302  14.990  69.164  1.00  0.00    -0.108 C  
HETATM   21  C   UNL     1      -7.777  14.743  69.561  1.00  0.00    -0.068 C  
HETATM   22  C   UNL     1      -6.067  16.037  68.054  1.00  0.00    -0.128 C  
HETATM   23  C   UNL     1      -7.114  15.775  66.972  1.00  0.00    -0.169 C  
HETATM   24  C   UNL     1      -8.505  15.946  67.572  1.00  0.00    -0.165 C  
BRANCH  22  25
HETATM   25  N   UNL     1      -6.020  17.451  68.455  1.00  0.00    -0.156 N  
HETATM   26  C   UNL     1      -5.754  17.987  69.738  1.00  0.00    -0.238 C  
HETATM   27  O   UNL     1      -5.468  17.409  70.772  1.00  0.00    -0.240 OA 
HETATM   28  N   UNL     1      -5.874  19.381  69.628  1.00  0.00    -0.241 NA 
HETATM   29  C   UNL     1      -6.222  19.712  68.333  1.00  0.00    -0.239 A  
HETATM   30  C   UNL     1      -6.471  20.963  67.800  1.00  0.00    -0.400 A  
HETATM   31  C   UNL     1      -6.856  21.014  66.463  1.00  0.00    -0.240 A  
HETATM   32  C   UNL     1      -6.970  19.837  65.699  1.00  0.00    -0.329 A  
HETATM   33  C   UNL     1      -6.680  18.583  66.257  1.00  0.00    -0.259 A  
HETATM   34  C   UNL     1      -6.319  18.538  67.591  1.00  0.00    -0.199 A  
ENDBRANCH  22  25
ENDBRANCH  18  19
ENDBRANCH  17  18
ENDBRANCH   8  17
TORSDOF 4
ENDMDL
MODEL      113
REMARK 921   NORMALIZED FREE ENERGY PREDICTED BY IDOCK:   -5.62 KCAL/MOL
REMARK 922        TOTAL FREE ENERGY PREDICTED BY IDOCK:   -7.73 KCAL/MOL
REMARK 923 INTER-LIGAND FREE ENERGY PREDICTED BY IDOCK:   -7.79 KCAL/MOL
REMARK 924 INTRA-LIGAND FREE ENERGY PREDICTED BY IDOCK:    0.06 KCAL/MOL
REMARK 927      BINDING AFFINITY PREDICTED BY RF-SCORE:    0.00 PKD
ROOT
HETATM    1  F   UNL     1     -11.715   2.230  73.817  1.00  0.00    -0.296 F  
HETATM    2  C   UNL     1     -11.117   3.261  73.207  1.00  0.00    -0.125 A  
HETATM    3  C   UNL     1     -10.105   3.026  72.288  1.00  0.00    -0.219 A  
HETATM    4  C   UNL     1      -9.469   4.107  71.665  1.00  0.00    -0.216 A  
HETATM    5  C   UNL     1      -9.842   5.435  71.954  1.00  0.00    -0.218 A  
HETATM    6  C   UNL     1      -9.074   6.604  71.310  1.00  0.00    -0.151 C  
HETATM    7  C   UNL     1     -10.871   5.633  72.891  1.00  0.00    -0.303 A  
HETATM    8  C   UNL     1      -9.920   7.492  70.345  1.00  0.00    -0.184 C  
HETATM    9  C   UNL     1     -11.506   4.555  73.513  1.00  0.00    -0.287 A  
HETATM   10  C   UNL     1      -8.097   7.364  72.220  1.00  0.00    -0.113 A  
HETATM   11  C   UNL     1      -7.952   7.084  73.589  1.00  0.00    -0.121 A  
HETATM   12  F   UNL     1      -5.194   9.263  74.501  1.00  0.00    -0.101 F  
HETATM   13  C   UNL     1      -7.221   8.307  71.650  1.00  0.00    -0.093 A  
HETATM   14  C   UNL     1      -6.982   7.735  74.361  1.00  0.00    -0.142 A  
HETATM   15  C   UNL     1      -6.139   8.664  73.765  1.00  0.00    -0.111 A  
HETATM   16  C   UNL     1      -6.250   8.958  72.416  1.00  0.00    -0.024 A  
ENDROOT
BRANCH   8  17
HETATM   17  C   UNL     1     -11.184   8.216  70.828  1.00  0.00    -0.275 C  
BRANCH  17  18
HETATM   18  C   UNL     1     -11.174   9.746  70.915  1.00  0.00    -0.359 C  
BRANCH  18  19
HETATM   19  N   UNL     1     -11.774  10.508  69.819  1.00  0.00    -0.278 NA 
HETATM   20  C   UNL     1     -10.998  12.978  69.576  1.00  0.00     0.035 C  
HETATM   21  C   UNL     1     -12.042  11.936  70.047  1.00  0.00    -0.291 C  
HETATM   22  C   UNL     1     -10.187  12.601  68.318  1.00  0.00    -0.239 C  
HETATM   23  C   UNL     1      -9.784  11.135  68.476  1.00  0.00    -0.196 C  
HETATM   24  C   UNL     1     -11.041  10.279  68.569  1.00  0.00    -0.242 C  
BRANCH  22  25
HETATM   25  N   UNL     1     -10.801  12.873  67.010  1.00  0.00    -0.257 N  
HETATM   26  C   UNL     1     -11.876  13.746  66.713  1.00  0.00    -0.420 C  
HETATM   27  O   UNL     1     -12.497  14.485  67.456  1.00  0.00    -0.114 OA 
HETATM   28  N   UNL     1     -12.131  13.622  65.338  1.00  0.00    -0.378 NA 
HETATM   29  C   UNL     1     -11.265  12.694  64.792  1.00  0.00    -0.302 A  
HETATM   30  C   UNL     1     -11.193  12.248  63.485  1.00  0.00    -0.535 A  
HETATM   31  C   UNL     1     -10.252  11.262  63.207  1.00  0.00    -0.417 A  
HETATM   32  C   UNL     1      -9.412  10.759  64.219  1.00  0.00    -0.307 A  
HETATM   33  C   UNL     1      -9.485  11.253  65.530  1.00  0.00    -0.255 A  
HETATM   34  C   UNL     1     -10.436  12.218  65.804  1.00  0.00    -0.255 A  
ENDBRANCH  22  25
ENDBRANCH  18  19
ENDBRANCH  17  18
ENDBRANCH   8  17
TORSDOF 4
ENDMDL
MODEL      114
REMARK 921   NORMALIZED FREE ENERGY PREDICTED BY IDOCK:   -5.60 KCAL/MOL
REMARK 922        TOTAL FREE ENERGY PREDICTED BY IDOCK:   -7.70 KCAL/MOL
REMARK 923 INTER-LIGAND FREE ENERGY PREDICTED BY IDOCK:   -7.00 KCAL/MOL
REMARK 924 INTRA-LIGAND FREE ENERGY PREDICTED BY IDOCK:   -0.70 KCAL/MOL
REMARK 927      BINDING AFFINITY PREDICTED BY RF-SCORE:    0.00 PKD
ROOT
HETATM    1  F   UNL     1     -13.037  13.300  65.205  1.00  0.00    -0.510 F  
HETATM    2  C   UNL     1     -12.005  12.478  65.435  1.00  0.00    -0.437 A  
HETATM    3  C   UNL     1     -11.273  11.976  64.369  1.00  0.00    -0.406 A  
HETATM    4  C   UNL     1     -10.205  11.103  64.611  1.00  0.00    -0.376 A  
HETATM    5  C   UNL     1      -9.857  10.727  65.925  1.00  0.00    -0.290 A  
HETATM    6  C   UNL     1      -8.726   9.708  66.156  1.00  0.00    -0.152 C  
HETATM    7  C   UNL     1     -10.622  11.257  66.978  1.00  0.00    -0.287 A  
HETATM    8  C   UNL     1      -7.482  10.269  66.912  1.00  0.00    -0.101 C  
HETATM    9  C   UNL     1     -11.688  12.127  66.738  1.00  0.00    -0.377 A  
HETATM   10  C   UNL     1      -9.157   8.288  66.554  1.00  0.00    -0.219 A  
HETATM   11  C   UNL     1     -10.496   7.931  66.784  1.00  0.00    -0.317 A  
HETATM   12  F   UNL     1     -10.226   4.348  67.308  1.00  0.00    -0.214 F  
HETATM   13  C   UNL     1      -8.193   7.262  66.584  1.00  0.00    -0.118 A  
HETATM   14  C   UNL     1     -10.855   6.604  67.052  1.00  0.00    -0.467 A  
HETATM   15  C   UNL     1      -9.875   5.619  67.079  1.00  0.00    -0.154 A  
HETATM   16  C   UNL     1      -8.546   5.935  66.849  1.00  0.00    -0.111 A  
ENDROOT
BRANCH   8  17
HETATM   17  C   UNL     1      -7.607  10.874  68.316  1.00  0.00    -0.100 C  
BRANCH  17  18
HETATM   18  C   UNL     1      -6.613  10.444  69.400  1.00  0.00    -0.063 C  
BRANCH  18  19
HETATM   19  N   UNL     1      -7.120   9.690  70.548  1.00  0.00    -0.129 NA 
HETATM   20  C   UNL     1      -8.891   7.858  70.031  1.00  0.00    -0.141 C  
HETATM   21  C   UNL     1      -8.532   9.280  70.526  1.00  0.00    -0.216 C  
HETATM   22  C   UNL     1      -7.838   6.762  70.303  1.00  0.00    -0.110 C  
HETATM   23  C   UNL     1      -6.475   7.366  69.966  1.00  0.00    -0.038 C  
HETATM   24  C   UNL     1      -6.227   8.571  70.866  1.00  0.00    -0.036 C  
BRANCH  22  25
HETATM   25  N   UNL     1      -7.853   6.123  71.627  1.00  0.00    -0.101 N  
HETATM   26  C   UNL     1      -6.748   5.740  72.426  1.00  0.00    -0.072 C  
HETATM   27  O   UNL     1      -5.557   5.888  72.217  1.00  0.00    -0.028 OA 
HETATM   28  N   UNL     1      -7.271   5.124  73.574  1.00  0.00    -0.081 NA 
HETATM   29  C   UNL     1      -8.651   5.102  73.495  1.00  0.00    -0.112 A  
HETATM   30  C   UNL     1      -9.556   4.565  74.391  1.00  0.00    -0.147 A  
HETATM   31  C   UNL     1     -10.902   4.633  74.045  1.00  0.00    -0.328 A  
HETATM   32  C   UNL     1     -11.308   5.235  72.838  1.00  0.00    -0.368 A  
HETATM   33  C   UNL     1     -10.369   5.801  71.962  1.00  0.00    -0.254 A  
HETATM   34  C   UNL     1      -9.033   5.711  72.303  1.00  0.00    -0.139 A  
ENDBRANCH  22  25
ENDBRANCH  18  19
ENDBRANCH  17  18
ENDBRANCH   8  17
TORSDOF 4
ENDMDL
MODEL      115
REMARK 921   NORMALIZED FREE ENERGY PREDICTED BY IDOCK:   -5.58 KCAL/MOL
REMARK 922        TOTAL FREE ENERGY PREDICTED BY IDOCK:   -7.68 KCAL/MOL
REMARK 923 INTER-LIGAND FREE ENERGY PREDICTED BY IDOCK:   -6.96 KCAL/MOL
REMARK 924 INTRA-LIGAND FREE ENERGY PREDICTED BY IDOCK:   -0.71 KCAL/MOL
REMARK 927      BINDING AFFINITY PREDICTED BY RF-SCORE:    0.00 PKD
ROOT
HETATM    1  F   UNL     1     -12.115  13.540  62.361  1.00  0.00     0.250 F  
HETATM    2  C   UNL     1     -11.800  13.268  63.634  1.00  0.00    -0.458 A  
HETATM    3  C   UNL     1     -12.570  12.370  64.359  1.00  0.00    -0.489 A  
HETATM    4  C   UNL     1     -12.249  12.100  65.695  1.00  0.00    -0.049 A  
HETATM    5  C   UNL     1     -11.150  12.725  66.319  1.00  0.00    -0.321 A  
HETATM    6  C   UNL     1     -10.866  12.466  67.810  1.00  0.00    -0.257 C  
HETATM    7  C   UNL     1     -10.393  13.628  65.552  1.00  0.00    -0.319 A  
HETATM    8  C   UNL     1      -9.515  11.742  68.104  1.00  0.00    -0.193 C  
HETATM    9  C   UNL     1     -10.713  13.898  64.219  1.00  0.00    -0.146 A  
HETATM   10  C   UNL     1     -11.234  13.597  68.781  1.00  0.00    -0.314 A  
HETATM   11  C   UNL     1     -11.728  14.841  68.356  1.00  0.00    -0.343 A  
HETATM   12  F   UNL     1     -12.499  16.452  71.518  1.00  0.00    -0.429 F  
HETATM   13  C   UNL     1     -11.189  13.352  70.167  1.00  0.00     0.232 A  
HETATM   14  C   UNL     1     -12.141  15.810  69.279  1.00  0.00    -0.226 A  
HETATM   15  C   UNL     1     -12.077  15.534  70.639  1.00  0.00    -0.389 A  
HETATM   16  C   UNL     1     -11.603  14.315  71.094  1.00  0.00    -0.017 A  
ENDROOT
BRANCH   8  17
HETATM   17  C   UNL     1      -8.175  12.342  67.661  1.00  0.00    -0.166 C  
BRANCH  17  18
HETATM   18  C   UNL     1      -7.542  13.449  68.511  1.00  0.00    -0.127 C  
BRANCH  18  19
HETATM   19  N   UNL     1      -6.979  14.614  67.827  1.00  0.00    -0.162 NA 
HETATM   20  C   UNL     1      -8.687  16.252  66.749  1.00  0.00    -0.264 C  
HETATM   21  C   UNL     1      -7.666  15.095  66.619  1.00  0.00     0.326 C  
HETATM   22  C   UNL     1      -8.400  17.284  67.860  1.00  0.00    -0.220 C  
HETATM   23  C   UNL     1      -7.981  16.494  69.099  1.00  0.00    -0.182 C  
HETATM   24  C   UNL     1      -6.721  15.699  68.781  1.00  0.00    -0.116 C  
BRANCH  22  25
HETATM   25  N   UNL     1      -7.461  18.372  67.547  1.00  0.00    -0.218 N  
HETATM   26  C   UNL     1      -6.986  18.779  66.277  1.00  0.00    -0.235 C  
HETATM   27  O   UNL     1      -7.275  18.352  65.172  1.00  0.00    -0.388 OA 
HETATM   28  N   UNL     1      -6.072  19.820  66.500  1.00  0.00    -0.171 NA 
HETATM   29  C   UNL     1      -5.960  20.050  67.858  1.00  0.00    -0.217 A  
HETATM   30  C   UNL     1      -5.152  20.960  68.514  1.00  0.00    -0.321 A  
HETATM   31  C   UNL     1      -5.194  20.953  69.905  1.00  0.00    -0.407 A  
HETATM   32  C   UNL     1      -6.035  20.061  70.597  1.00  0.00    -0.362 A  
HETATM   33  C   UNL     1      -6.869  19.170  69.905  1.00  0.00     0.014 A  
HETATM   34  C   UNL     1      -6.806  19.168  68.524  1.00  0.00    -0.277 A  
ENDBRANCH  22  25
ENDBRANCH  18  19
ENDBRANCH  17  18
ENDBRANCH   8  17
TORSDOF 4
ENDMDL
MODEL      116
REMARK 921   NORMALIZED FREE ENERGY PREDICTED BY IDOCK:   -5.58 KCAL/MOL
REMARK 922        TOTAL FREE ENERGY PREDICTED BY IDOCK:   -7.68 KCAL/MOL
REMARK 923 INTER-LIGAND FREE ENERGY PREDICTED BY IDOCK:   -7.58 KCAL/MOL
REMARK 924 INTRA-LIGAND FREE ENERGY PREDICTED BY IDOCK:   -0.09 KCAL/MOL
REMARK 927      BINDING AFFINITY PREDICTED BY RF-SCORE:    0.00 PKD
ROOT
HETATM    1  F   UNL     1     -11.754   2.273  73.928  1.00  0.00    -0.279 F  
HETATM    2  C   UNL     1     -10.995   3.150  73.258  1.00  0.00    -0.158 A  
HETATM    3  C   UNL     1      -9.824   2.725  72.649  1.00  0.00    -0.207 A  
HETATM    4  C   UNL     1      -9.024   3.647  71.964  1.00  0.00    -0.145 A  
HETATM    5  C   UNL     1      -9.390   5.006  71.880  1.00  0.00    -0.176 A  
HETATM    6  C   UNL     1      -8.453   6.010  71.185  1.00  0.00    -0.125 C  
HETATM    7  C   UNL     1     -10.584   5.399  72.509  1.00  0.00    -0.277 A  
HETATM    8  C   UNL     1      -9.036   6.667  69.895  1.00  0.00    -0.144 C  
HETATM    9  C   UNL     1     -11.383   4.479  73.193  1.00  0.00    -0.318 A  
HETATM   10  C   UNL     1      -7.657   6.950  72.103  1.00  0.00    -0.092 A  
HETATM   11  C   UNL     1      -7.816   6.972  73.498  1.00  0.00    -0.106 A  
HETATM   12  F   UNL     1      -5.219   9.303  74.502  1.00  0.00    -0.101 F  
HETATM   13  C   UNL     1      -6.640   7.750  71.550  1.00  0.00    -0.045 A  
HETATM   14  C   UNL     1      -7.003   7.777  74.306  1.00  0.00    -0.138 A  
HETATM   15  C   UNL     1      -6.013   8.557  73.724  1.00  0.00    -0.116 A  
HETATM   16  C   UNL     1      -5.823   8.554  72.352  1.00  0.00    -0.066 A  
ENDROOT
BRANCH   8  17
HETATM   17  C   UNL     1     -10.339   7.475  69.930  1.00  0.00    -0.224 C  
BRANCH  17  18
HETATM   18  C   UNL     1     -10.262   9.002  70.036  1.00  0.00    -0.203 C  
BRANCH  18  19
HETATM   19  N   UNL     1     -10.810   9.804  68.940  1.00  0.00    -0.214 NA 
HETATM   20  C   UNL     1      -9.337  11.781  68.114  1.00  0.00    -0.190 C  
HETATM   21  C   UNL     1     -10.530  11.248  68.944  1.00  0.00    -0.206 C  
HETATM   22  C   UNL     1      -9.008  10.997  66.824  1.00  0.00    -0.157 C  
HETATM   23  C   UNL     1      -9.088   9.512  67.178  1.00  0.00    -0.152 C  
HETATM   24  C   UNL     1     -10.501   9.187  67.646  1.00  0.00    -0.261 C  
BRANCH  22  25
HETATM   25  N   UNL     1      -9.779  11.327  65.617  1.00  0.00    -0.220 N  
HETATM   26  C   UNL     1      -9.791  10.647  64.375  1.00  0.00    -0.334 C  
HETATM   27  O   UNL     1      -9.206   9.630  64.046  1.00  0.00    -0.250 OA 
HETATM   28  N   UNL     1     -10.640  11.371  63.524  1.00  0.00    -0.396 NA 
HETATM   29  C   UNL     1     -11.131  12.475  64.195  1.00  0.00    -0.376 A  
HETATM   30  C   UNL     1     -11.971  13.467  63.724  1.00  0.00    -0.517 A  
HETATM   31  C   UNL     1     -12.275  14.504  64.600  1.00  0.00    -0.474 A  
HETATM   32  C   UNL     1     -11.752  14.522  65.907  1.00  0.00    -0.345 A  
HETATM   33  C   UNL     1     -10.927  13.485  66.369  1.00  0.00    -0.297 A  
HETATM   34  C   UNL     1     -10.612  12.469  65.487  1.00  0.00    -0.275 A  
ENDBRANCH  22  25
ENDBRANCH  18  19
ENDBRANCH  17  18
ENDBRANCH   8  17
TORSDOF 4
ENDMDL
MODEL      117
REMARK 921   NORMALIZED FREE ENERGY PREDICTED BY IDOCK:   -5.57 KCAL/MOL
REMARK 922        TOTAL FREE ENERGY PREDICTED BY IDOCK:   -7.66 KCAL/MOL
REMARK 923 INTER-LIGAND FREE ENERGY PREDICTED BY IDOCK:   -6.83 KCAL/MOL
REMARK 924 INTRA-LIGAND FREE ENERGY PREDICTED BY IDOCK:   -0.83 KCAL/MOL
REMARK 927      BINDING AFFINITY PREDICTED BY RF-SCORE:    0.00 PKD
ROOT
HETATM    1  F   UNL     1     -10.052  18.456  67.513  1.00  0.00    -0.304 F  
HETATM    2  C   UNL     1     -10.180  17.125  67.591  1.00  0.00    -0.329 A  
HETATM    3  C   UNL     1     -11.091  16.470  66.775  1.00  0.00     0.179 A  
HETATM    4  C   UNL     1     -11.235  15.081  66.871  1.00  0.00    -0.323 A  
HETATM    5  C   UNL     1     -10.466  14.332  67.785  1.00  0.00    -0.245 A  
HETATM    6  C   UNL     1     -10.699  12.816  67.921  1.00  0.00    -0.235 C  
HETATM    7  C   UNL     1      -9.554  15.030  68.595  1.00  0.00    -0.219 A  
HETATM    8  C   UNL     1      -9.488  11.926  67.502  1.00  0.00    -0.176 C  
HETATM    9  C   UNL     1      -9.409  16.417  68.499  1.00  0.00    -0.225 A  
HETATM   10  C   UNL     1     -11.458  12.352  69.174  1.00  0.00    -0.358 A  
HETATM   11  C   UNL     1     -11.857  13.229  70.196  1.00  0.00    -0.333 A  
HETATM   12  F   UNL     1     -13.785  11.030  72.348  1.00  0.00    -0.403 F  
HETATM   13  C   UNL     1     -11.880  11.012  69.263  1.00  0.00    -0.411 A  
HETATM   14  C   UNL     1     -12.630  12.780  71.274  1.00  0.00    -0.347 A  
HETATM   15  C   UNL     1     -13.023  11.449  71.330  1.00  0.00    -0.365 A  
HETATM   16  C   UNL     1     -12.653  10.558  70.336  1.00  0.00    -0.364 A  
ENDROOT
BRANCH   8  17
HETATM   17  C   UNL     1      -8.122  12.063  68.185  1.00  0.00    -0.160 C  
BRANCH  17  18
HETATM   18  C   UNL     1      -7.025  11.043  67.861  1.00  0.00    -0.073 C  
BRANCH  18  19
HETATM   19  N   UNL     1      -6.901   9.861  68.716  1.00  0.00    -0.053 NA 
HETATM   20  C   UNL     1      -8.879   9.402  70.340  1.00  0.00    -0.290 C  
HETATM   21  C   UNL     1      -7.452   9.942  70.077  1.00  0.00    -0.168 C  
HETATM   22  C   UNL     1      -9.323   8.210  69.465  1.00  0.00    -0.155 C  
HETATM   23  C   UNL     1      -8.876   8.522  68.036  1.00  0.00    -0.142 C  
HETATM   24  C   UNL     1      -7.358   8.661  68.008  1.00  0.00    -0.092 C  
BRANCH  22  25
HETATM   25  N   UNL     1      -8.916   6.865  69.896  1.00  0.00    -0.142 N  
HETATM   26  C   UNL     1      -8.106   6.509  71.002  1.00  0.00    -0.120 C  
HETATM   27  O   UNL     1      -7.606   7.223  71.853  1.00  0.00    -0.084 OA 
HETATM   28  N   UNL     1      -7.961   5.113  70.966  1.00  0.00    -0.099 NA 
HETATM   29  C   UNL     1      -8.635   4.609  69.870  1.00  0.00    -0.073 A  
HETATM   30  C   UNL     1      -8.726   3.298  69.443  1.00  0.00    -0.132 A  
HETATM   31  C   UNL     1      -9.435   3.065  68.268  1.00  0.00    -0.216 A  
HETATM   32  C   UNL     1     -10.035   4.127  67.564  1.00  0.00    -0.061 A  
HETATM   33  C   UNL     1      -9.954   5.445  68.039  1.00  0.00    -0.199 A  
HETATM   34  C   UNL     1      -9.231   5.671  69.195  1.00  0.00    -0.115 A  
ENDBRANCH  22  25
ENDBRANCH  18  19
ENDBRANCH  17  18
ENDBRANCH   8  17
TORSDOF 4
ENDMDL
MODEL      118
REMARK 921   NORMALIZED FREE ENERGY PREDICTED BY IDOCK:   -5.57 KCAL/MOL
REMARK 922        TOTAL FREE ENERGY PREDICTED BY IDOCK:   -7.66 KCAL/MOL
REMARK 923 INTER-LIGAND FREE ENERGY PREDICTED BY IDOCK:   -7.26 KCAL/MOL
REMARK 924 INTRA-LIGAND FREE ENERGY PREDICTED BY IDOCK:   -0.40 KCAL/MOL
REMARK 927      BINDING AFFINITY PREDICTED BY RF-SCORE:    0.00 PKD
ROOT
HETATM    1  F   UNL     1     -10.053  17.228  65.105  1.00  0.00     0.015 F  
HETATM    2  C   UNL     1     -10.283  15.987  65.553  1.00  0.00    -0.360 A  
HETATM    3  C   UNL     1     -11.413  15.300  65.132  1.00  0.00    -0.260 A  
HETATM    4  C   UNL     1     -11.660  14.010  65.616  1.00  0.00    -0.332 A  
HETATM    5  C   UNL     1     -10.777  13.392  66.524  1.00  0.00    -0.287 A  
HETATM    6  C   UNL     1     -11.114  12.003  67.096  1.00  0.00    -0.344 C  
HETATM    7  C   UNL     1      -9.643  14.119  66.927  1.00  0.00    -0.275 A  
HETATM    8  C   UNL     1     -10.118  10.870  66.695  1.00  0.00    -0.264 C  
HETATM    9  C   UNL     1      -9.396  15.407  66.445  1.00  0.00    -0.331 A  
HETATM   10  C   UNL     1     -11.608  11.964  68.550  1.00  0.00    -0.375 A  
HETATM   11  C   UNL     1     -11.680  13.106  69.364  1.00  0.00    -0.386 A  
HETATM   12  F   UNL     1     -13.265  11.786  72.353  1.00  0.00    -0.595 F  
HETATM   13  C   UNL     1     -12.121  10.760  69.068  1.00  0.00    -0.170 A  
HETATM   14  C   UNL     1     -12.225  13.043  70.652  1.00  0.00    -0.390 A  
HETATM   15  C   UNL     1     -12.718  11.836  71.132  1.00  0.00    -0.305 A  
HETATM   16  C   UNL     1     -12.669  10.692  70.353  1.00  0.00    -0.340 A  
ENDROOT
BRANCH   8  17
HETATM   17  C   UNL     1      -8.626  10.961  67.036  1.00  0.00    -0.136 C  
BRANCH  17  18
HETATM   18  C   UNL     1      -7.709   9.788  66.671  1.00  0.00    -0.102 C  
BRANCH  18  19
HETATM   19  N   UNL     1      -7.470   8.753  67.678  1.00  0.00    -0.092 NA 
HETATM   20  C   UNL     1      -8.742   9.022  69.929  1.00  0.00    -0.160 C  
HETATM   21  C   UNL     1      -7.450   9.165  69.089  1.00  0.00    -0.072 C  
HETATM   22  C   UNL     1      -9.671   7.850  69.545  1.00  0.00    -0.173 C  
HETATM   23  C   UNL     1      -9.747   7.829  68.019  1.00  0.00    -0.176 C  
HETATM   24  C   UNL     1      -8.351   7.601  67.453  1.00  0.00    -0.116 C  
BRANCH  22  25
HETATM   25  N   UNL     1      -9.360   6.527  70.107  1.00  0.00    -0.158 N  
HETATM   26  C   UNL     1      -9.682   5.254  69.577  1.00  0.00    -0.178 C  
HETATM   27  O   UNL     1     -10.244   4.973  68.533  1.00  0.00    -0.146 OA 
HETATM   28  N   UNL     1      -9.220   4.302  70.499  1.00  0.00    -0.110 NA 
HETATM   29  C   UNL     1      -8.647   4.947  71.578  1.00  0.00    -0.122 A  
HETATM   30  C   UNL     1      -8.098   4.395  72.720  1.00  0.00    -0.094 A  
HETATM   31  C   UNL     1      -7.628   5.280  73.685  1.00  0.00    -0.095 A  
HETATM   32  C   UNL     1      -7.705   6.672  73.488  1.00  0.00    -0.090 A  
HETATM   33  C   UNL     1      -8.239   7.205  72.305  1.00  0.00    -0.108 A  
HETATM   34  C   UNL     1      -8.722   6.320  71.359  1.00  0.00    -0.135 A  
ENDBRANCH  22  25
ENDBRANCH  18  19
ENDBRANCH  17  18
ENDBRANCH   8  17
TORSDOF 4
ENDMDL
MODEL      119
REMARK 921   NORMALIZED FREE ENERGY PREDICTED BY IDOCK:   -5.54 KCAL/MOL
REMARK 922        TOTAL FREE ENERGY PREDICTED BY IDOCK:   -7.62 KCAL/MOL
REMARK 923 INTER-LIGAND FREE ENERGY PREDICTED BY IDOCK:   -7.60 KCAL/MOL
REMARK 924 INTRA-LIGAND FREE ENERGY PREDICTED BY IDOCK:   -0.01 KCAL/MOL
REMARK 927      BINDING AFFINITY PREDICTED BY RF-SCORE:    0.00 PKD
ROOT
HETATM    1  F   UNL     1      -8.853  11.015  63.611  1.00  0.00    -0.181 F  
HETATM    2  C   UNL     1      -9.548  11.320  64.715  1.00  0.00    -0.235 A  
HETATM    3  C   UNL     1     -10.880  11.695  64.611  1.00  0.00    -0.373 A  
HETATM    4  C   UNL     1     -11.599  12.029  65.765  1.00  0.00    -0.353 A  
HETATM    5  C   UNL     1     -10.992  11.988  67.037  1.00  0.00    -0.323 A  
HETATM    6  C   UNL     1     -11.785  12.433  68.279  1.00  0.00    -0.398 C  
HETATM    7  C   UNL     1      -9.641  11.603  67.102  1.00  0.00    -0.185 A  
HETATM    8  C   UNL     1     -12.051  11.306  69.326  1.00  0.00    -0.372 C  
HETATM    9  C   UNL     1      -8.923  11.270  65.951  1.00  0.00    -0.206 A  
HETATM   10  C   UNL     1     -11.424  13.807  68.864  1.00  0.00    -0.344 A  
HETATM   11  C   UNL     1     -10.377  14.599  68.367  1.00  0.00    -0.237 A  
HETATM   12  F   UNL     1     -10.755  17.637  70.319  1.00  0.00     0.080 F  
HETATM   13  C   UNL     1     -12.240  14.359  69.870  1.00  0.00    -0.394 A  
HETATM   14  C   UNL     1     -10.142  15.886  68.867  1.00  0.00    -0.225 A  
HETATM   15  C   UNL     1     -10.965  16.396  69.863  1.00  0.00    -0.338 A  
HETATM   16  C   UNL     1     -12.012  15.645  70.372  1.00  0.00    -0.405 A  
ENDROOT
BRANCH   8  17
HETATM   17  C   UNL     1     -10.897  10.542  69.987  1.00  0.00    -0.320 C  
BRANCH  17  18
HETATM   18  C   UNL     1     -11.214   9.539  71.101  1.00  0.00    -0.376 C  
BRANCH  18  19
HETATM   19  N   UNL     1     -10.300   8.414  71.304  1.00  0.00    -0.204 NA 
HETATM   20  C   UNL     1     -11.400   6.077  71.604  1.00  0.00    -0.313 C  
HETATM   21  C   UNL     1     -10.732   7.337  72.207  1.00  0.00    -0.231 C  
HETATM   22  C   UNL     1     -10.925   5.670  70.193  1.00  0.00    -0.233 C  
HETATM   23  C   UNL     1     -10.838   6.955  69.369  1.00  0.00    -0.283 C  
HETATM   24  C   UNL     1      -9.827   7.894  70.016  1.00  0.00    -0.181 C  
BRANCH  22  25
HETATM   25  N   UNL     1      -9.701   4.862  70.097  1.00  0.00    -0.192 N  
HETATM   26  C   UNL     1      -8.937   4.566  68.942  1.00  0.00    -0.110 C  
HETATM   27  O   UNL     1      -9.097   4.942  67.794  1.00  0.00    -0.111 OA 
HETATM   28  N   UNL     1      -7.895   3.719  69.351  1.00  0.00    -0.052 NA 
HETATM   29  C   UNL     1      -8.007   3.474  70.706  1.00  0.00    -0.053 A  
HETATM   30  C   UNL     1      -7.213   2.672  71.506  1.00  0.00    -0.032 A  
HETATM   31  C   UNL     1      -7.578   2.558  72.844  1.00  0.00    -0.045 A  
HETATM   32  C   UNL     1      -8.700   3.243  73.347  1.00  0.00    -0.077 A  
HETATM   33  C   UNL     1      -9.470   4.075  72.520  1.00  0.00    -0.178 A  
HETATM   34  C   UNL     1      -9.114   4.167  71.188  1.00  0.00    -0.124 A  
ENDBRANCH  22  25
ENDBRANCH  18  19
ENDBRANCH  17  18
ENDBRANCH   8  17
TORSDOF 4
ENDMDL
MODEL      120
REMARK 921   NORMALIZED FREE ENERGY PREDICTED BY IDOCK:   -5.52 KCAL/MOL
REMARK 922        TOTAL FREE ENERGY PREDICTED BY IDOCK:   -7.60 KCAL/MOL
REMARK 923 INTER-LIGAND FREE ENERGY PREDICTED BY IDOCK:   -7.20 KCAL/MOL
REMARK 924 INTRA-LIGAND FREE ENERGY PREDICTED BY IDOCK:   -0.40 KCAL/MOL
REMARK 927      BINDING AFFINITY PREDICTED BY RF-SCORE:    0.00 PKD
ROOT
HETATM    1  F   UNL     1     -10.549  19.564  68.799  1.00  0.00    -0.403 F  
HETATM    2  C   UNL     1     -10.205  18.413  68.208  1.00  0.00    -0.384 A  
HETATM    3  C   UNL     1      -9.605  18.432  66.957  1.00  0.00    -0.301 A  
HETATM    4  C   UNL     1      -9.262  17.226  66.334  1.00  0.00    -0.278 A  
HETATM    5  C   UNL     1      -9.514  15.987  66.958  1.00  0.00    -0.230 A  
HETATM    6  C   UNL     1      -9.194  14.676  66.217  1.00  0.00    -0.257 C  
HETATM    7  C   UNL     1     -10.123  16.009  68.225  1.00  0.00    -0.229 A  
HETATM    8  C   UNL     1      -8.083  13.803  66.879  1.00  0.00     0.119 C  
HETATM    9  C   UNL     1     -10.466  17.212  68.848  1.00  0.00    -0.346 A  
HETATM   10  C   UNL     1     -10.394  13.902  65.651  1.00  0.00    -0.337 A  
HETATM   11  C   UNL     1     -11.726  14.299  65.854  1.00  0.00    -0.375 A  
HETATM   12  F   UNL     1     -13.532  11.910  63.801  1.00  0.00    -0.454 F  
HETATM   13  C   UNL     1     -10.163  12.808  64.795  1.00  0.00    -0.304 A  
HETATM   14  C   UNL     1     -12.786  13.618  65.242  1.00  0.00    -0.478 A  
HETATM   15  C   UNL     1     -12.519  12.540  64.407  1.00  0.00    -0.446 A  
HETATM   16  C   UNL     1     -11.217  12.126  64.179  1.00  0.00    -0.433 A  
ENDROOT
BRANCH   8  17
HETATM   17  C   UNL     1      -8.224  13.287  68.316  1.00  0.00    -0.156 C  
BRANCH  17  18
HETATM   18  C   UNL     1      -8.009  11.795  68.593  1.00  0.00    -0.116 C  
BRANCH  18  19
HETATM   19  N   UNL     1      -7.633  10.927  67.475  1.00  0.00    -0.099 NA 
HETATM   20  C   UNL     1      -6.358   8.746  68.089  1.00  0.00    -0.056 C  
HETATM   21  C   UNL     1      -6.356  10.205  67.571  1.00  0.00    -0.059 C  
HETATM   22  C   UNL     1      -7.620   7.917  67.767  1.00  0.00    -0.109 C  
HETATM   23  C   UNL     1      -8.822   8.822  68.032  1.00  0.00    -0.141 C  
HETATM   24  C   UNL     1      -8.743  10.038  67.116  1.00  0.00    -0.128 C  
BRANCH  22  25
HETATM   25  N   UNL     1      -7.687   7.271  66.448  1.00  0.00    -0.091 N  
HETATM   26  C   UNL     1      -7.067   7.679  65.242  1.00  0.00    -0.063 C  
HETATM   27  O   UNL     1      -6.319   8.619  65.039  1.00  0.00    -0.060 OA 
HETATM   28  N   UNL     1      -7.472   6.772  64.250  1.00  0.00    -0.092 NA 
HETATM   29  C   UNL     1      -8.329   5.839  64.803  1.00  0.00    -0.116 A  
HETATM   30  C   UNL     1      -8.981   4.792  64.179  1.00  0.00    -0.093 A  
HETATM   31  C   UNL     1      -9.835   4.023  64.965  1.00  0.00    -0.204 A  
HETATM   32  C   UNL     1     -10.007   4.305  66.334  1.00  0.00    -0.223 A  
HETATM   33  C   UNL     1      -9.307   5.355  66.948  1.00  0.00    -0.127 A  
HETATM   34  C   UNL     1      -8.477   6.127  66.158  1.00  0.00    -0.137 A  
ENDBRANCH  22  25
ENDBRANCH  18  19
ENDBRANCH  17  18
ENDBRANCH   8  17
TORSDOF 4
ENDMDL
MODEL      121
REMARK 921   NORMALIZED FREE ENERGY PREDICTED BY IDOCK:   -5.51 KCAL/MOL
REMARK 922        TOTAL FREE ENERGY PREDICTED BY IDOCK:   -7.59 KCAL/MOL
REMARK 923 INTER-LIGAND FREE ENERGY PREDICTED BY IDOCK:   -7.01 KCAL/MOL
REMARK 924 INTRA-LIGAND FREE ENERGY PREDICTED BY IDOCK:   -0.58 KCAL/MOL
REMARK 927      BINDING AFFINITY PREDICTED BY RF-SCORE:    0.00 PKD
ROOT
HETATM    1  F   UNL     1      -8.224   1.473  68.337  1.00  0.00    -0.055 F  
HETATM    2  C   UNL     1      -8.311   2.683  68.904  1.00  0.00    -0.063 A  
HETATM    3  C   UNL     1      -8.088   2.825  70.266  1.00  0.00    -0.056 A  
HETATM    4  C   UNL     1      -8.197   4.088  70.859  1.00  0.00    -0.075 A  
HETATM    5  C   UNL     1      -8.529   5.225  70.094  1.00  0.00    -0.109 A  
HETATM    6  C   UNL     1      -8.715   6.587  70.786  1.00  0.00    -0.143 C  
HETATM    7  C   UNL     1      -8.747   5.042  68.717  1.00  0.00    -0.101 A  
HETATM    8  C   UNL     1      -7.680   7.680  70.373  1.00  0.00    -0.090 C  
HETATM    9  C   UNL     1      -8.639   3.781  68.125  1.00  0.00    -0.115 A  
HETATM   10  C   UNL     1     -10.161   7.077  70.953  1.00  0.00    -0.210 A  
HETATM   11  C   UNL     1     -11.268   6.381  70.439  1.00  0.00    -0.435 A  
HETATM   12  F   UNL     1     -14.039   8.330  71.748  1.00  0.00    -0.378 F  
HETATM   13  C   UNL     1     -10.415   8.209  71.749  1.00  0.00    -0.304 A  
HETATM   14  C   UNL     1     -12.576   6.812  70.695  1.00  0.00    -0.041 A  
HETATM   15  C   UNL     1     -12.787   7.938  71.481  1.00  0.00    -0.317 A  
HETATM   16  C   UNL     1     -11.718   8.643  72.011  1.00  0.00    -0.439 A  
ENDROOT
BRANCH   8  17
HETATM   17  C   UNL     1      -7.528   8.124  68.913  1.00  0.00    -0.089 C  
BRANCH  17  18
HETATM   18  C   UNL     1      -7.461   9.622  68.596  1.00  0.00    -0.075 C  
BRANCH  18  19
HETATM   19  N   UNL     1      -8.477  10.192  67.710  1.00  0.00    -0.114 NA 
HETATM   20  C   UNL     1     -10.628  11.096  68.858  1.00  0.00    -0.239 C  
HETATM   21  C   UNL     1      -9.888   9.988  68.069  1.00  0.00    -0.142 C  
HETATM   22  C   UNL     1     -10.169  12.544  68.580  1.00  0.00    -0.203 C  
HETATM   23  C   UNL     1      -8.641  12.523  68.544  1.00  0.00    -0.054 C  
HETATM   24  C   UNL     1      -8.180  11.600  67.423  1.00  0.00    -0.153 C  
BRANCH  22  25
HETATM   25  N   UNL     1     -10.745  13.224  67.411  1.00  0.00    -0.256 N  
HETATM   26  C   UNL     1     -11.636  12.698  66.444  1.00  0.00    -0.384 C  
HETATM   27  O   UNL     1     -12.148  11.594  66.387  1.00  0.00    -0.371 OA 
HETATM   28  N   UNL     1     -11.855  13.712  65.499  1.00  0.00    -0.345 NA 
HETATM   29  C   UNL     1     -11.118  14.829  65.844  1.00  0.00    -0.340 A  
HETATM   30  C   UNL     1     -11.017  16.035  65.177  1.00  0.00    -0.360 A  
HETATM   31  C   UNL     1     -10.157  16.986  65.718  1.00  0.00    -0.219 A  
HETATM   32  C   UNL     1      -9.439  16.720  66.900  1.00  0.00    -0.253 A  
HETATM   33  C   UNL     1      -9.585  15.498  67.575  1.00  0.00    -0.212 A  
HETATM   34  C   UNL     1     -10.424  14.551  67.019  1.00  0.00    -0.268 A  
ENDBRANCH  22  25
ENDBRANCH  18  19
ENDBRANCH  17  18
ENDBRANCH   8  17
TORSDOF 4
ENDMDL
MODEL      122
REMARK 921   NORMALIZED FREE ENERGY PREDICTED BY IDOCK:   -5.50 KCAL/MOL
REMARK 922        TOTAL FREE ENERGY PREDICTED BY IDOCK:   -7.57 KCAL/MOL
REMARK 923 INTER-LIGAND FREE ENERGY PREDICTED BY IDOCK:   -7.73 KCAL/MOL
REMARK 924 INTRA-LIGAND FREE ENERGY PREDICTED BY IDOCK:    0.16 KCAL/MOL
REMARK 927      BINDING AFFINITY PREDICTED BY RF-SCORE:    0.00 PKD
ROOT
HETATM    1  F   UNL     1     -11.110  16.147  63.946  1.00  0.00    -0.172 F  
HETATM    2  C   UNL     1     -11.217  15.098  64.772  1.00  0.00    -0.388 A  
HETATM    3  C   UNL     1     -12.335  14.280  64.707  1.00  0.00    -0.440 A  
HETATM    4  C   UNL     1     -12.453  13.195  65.584  1.00  0.00    -0.485 A  
HETATM    5  C   UNL     1     -11.450  12.916  66.535  1.00  0.00    -0.390 A  
HETATM    6  C   UNL     1     -11.641  11.761  67.535  1.00  0.00    -0.361 C  
HETATM    7  C   UNL     1     -10.332  13.767  66.570  1.00  0.00    -0.286 A  
HETATM    8  C   UNL     1     -10.618  10.592  67.391  1.00  0.00    -0.313 C  
HETATM    9  C   UNL     1     -10.214  14.850  65.695  1.00  0.00    -0.382 A  
HETATM   10  C   UNL     1     -11.992  12.159  68.977  1.00  0.00    -0.302 A  
HETATM   11  C   UNL     1     -12.059  13.494  69.408  1.00  0.00    -0.340 A  
HETATM   12  F   UNL     1     -13.265  13.112  72.812  1.00  0.00    -0.558 F  
HETATM   13  C   UNL     1     -12.376  11.158  69.890  1.00  0.00    -0.330 A  
HETATM   14  C   UNL     1     -12.474  13.814  70.706  1.00  0.00    -0.441 A  
HETATM   15  C   UNL     1     -12.841  12.799  71.581  1.00  0.00    -0.261 A  
HETATM   16  C   UNL     1     -12.794  11.473  71.186  1.00  0.00    -0.414 A  
ENDROOT
BRANCH   8  17
HETATM   17  C   UNL     1      -9.109  10.831  67.521  1.00  0.00    -0.143 C  
BRANCH  17  18
HETATM   18  C   UNL     1      -8.153   9.645  67.348  1.00  0.00    -0.110 C  
BRANCH  18  19
HETATM   19  N   UNL     1      -8.691   8.389  66.825  1.00  0.00    -0.124 NA 
HETATM   20  C   UNL     1      -7.007   6.843  65.586  1.00  0.00    -0.064 C  
HETATM   21  C   UNL     1      -8.146   7.890  65.553  1.00  0.00    -0.130 C  
HETATM   22  C   UNL     1      -7.020   5.868  66.783  1.00  0.00    -0.068 C  
HETATM   23  C   UNL     1      -7.327   6.701  68.028  1.00  0.00    -0.097 C  
HETATM   24  C   UNL     1      -8.694   7.355  67.865  1.00  0.00    -0.123 C  
BRANCH  22  25
HETATM   25  N   UNL     1      -7.881   4.681  66.680  1.00  0.00    -0.098 N  
HETATM   26  C   UNL     1      -8.478   3.940  67.729  1.00  0.00    -0.095 C  
HETATM   27  O   UNL     1      -8.446   4.140  68.930  1.00  0.00    -0.080 OA 
HETATM   28  N   UNL     1      -9.161   2.869  67.131  1.00  0.00    -0.161 NA 
HETATM   29  C   UNL     1      -8.986   2.920  65.761  1.00  0.00    -0.144 A  
HETATM   30  C   UNL     1      -9.458   2.045  64.800  1.00  0.00    -0.061 A  
HETATM   31  C   UNL     1      -9.093   2.301  63.481  1.00  0.00    -0.094 A  
HETATM   32  C   UNL     1      -8.289   3.411  63.157  1.00  0.00    -0.088 A  
HETATM   33  C   UNL     1      -7.851   4.300  64.150  1.00  0.00    -0.085 A  
HETATM   34  C   UNL     1      -8.199   4.028  65.460  1.00  0.00    -0.105 A  
ENDBRANCH  22  25
ENDBRANCH  18  19
ENDBRANCH  17  18
ENDBRANCH   8  17
TORSDOF 4
ENDMDL
MODEL      123
REMARK 921   NORMALIZED FREE ENERGY PREDICTED BY IDOCK:   -5.50 KCAL/MOL
REMARK 922        TOTAL FREE ENERGY PREDICTED BY IDOCK:   -7.57 KCAL/MOL
REMARK 923 INTER-LIGAND FREE ENERGY PREDICTED BY IDOCK:   -7.33 KCAL/MOL
REMARK 924 INTRA-LIGAND FREE ENERGY PREDICTED BY IDOCK:   -0.24 KCAL/MOL
REMARK 927      BINDING AFFINITY PREDICTED BY RF-SCORE:    0.00 PKD
ROOT
HETATM    1  F   UNL     1      -9.592   8.430  71.669  1.00  0.00    -0.196 F  
HETATM    2  C   UNL     1      -9.867   8.835  70.422  1.00  0.00    -0.182 A  
HETATM    3  C   UNL     1     -10.550   7.991  69.558  1.00  0.00    -0.216 A  
HETATM    4  C   UNL     1     -10.822   8.410  68.250  1.00  0.00     0.024 A  
HETATM    5  C   UNL     1     -10.413   9.680  67.794  1.00  0.00    -0.309 A  
HETATM    6  C   UNL     1     -10.659  10.083  66.328  1.00  0.00    -0.115 C  
HETATM    7  C   UNL     1      -9.723  10.506  68.698  1.00  0.00    -0.175 A  
HETATM    8  C   UNL     1     -11.635  11.285  66.134  1.00  0.00     0.283 C  
HETATM    9  C   UNL     1      -9.452  10.089  70.003  1.00  0.00    -0.184 A  
HETATM   10  C   UNL     1      -9.434  10.071  65.402  1.00  0.00    -0.310 A  
HETATM   11  C   UNL     1      -8.134   9.792  65.855  1.00  0.00    -0.114 A  
HETATM   12  F   UNL     1      -6.258   9.749  62.746  1.00  0.00    -0.096 F  
HETATM   13  C   UNL     1      -9.621  10.232  64.016  1.00  0.00    -0.365 A  
HETATM   14  C   UNL     1      -7.060   9.698  64.961  1.00  0.00    -0.116 A  
HETATM   15  C   UNL     1      -7.282   9.868  63.601  1.00  0.00    -0.124 A  
HETATM   16  C   UNL     1      -8.553  10.137  63.118  1.00  0.00    -0.193 A  
ENDROOT
BRANCH   8  17
HETATM   17  C   UNL     1     -11.349  12.656  66.759  1.00  0.00    -0.373 C  
BRANCH  17  18
HETATM   18  C   UNL     1     -11.252  13.882  65.845  1.00  0.00    -0.297 C  
BRANCH  18  19
HETATM   19  N   UNL     1     -11.137  15.203  66.464  1.00  0.00    -0.327 NA 
HETATM   20  C   UNL     1      -9.449  15.409  68.431  1.00  0.00    -0.200 C  
HETATM   21  C   UNL     1     -10.901  15.259  67.915  1.00  0.00    -0.288 C  
HETATM   22  C   UNL     1      -8.489  16.209  67.524  1.00  0.00    -0.162 C  
HETATM   23  C   UNL     1      -8.744  15.743  66.091  1.00  0.00    -0.293 C  
HETATM   24  C   UNL     1     -10.192  16.042  65.720  1.00  0.00    -0.377 C  
BRANCH  22  25
HETATM   25  N   UNL     1      -8.505  17.674  67.646  1.00  0.00    -0.222 N  
HETATM   26  C   UNL     1      -9.616  18.519  67.890  1.00  0.00    -0.300 C  
HETATM   27  O   UNL     1     -10.780  18.223  68.091  1.00  0.00    -0.330 OA 
HETATM   28  N   UNL     1      -9.135  19.837  67.867  1.00  0.00    -0.324 NA 
HETATM   29  C   UNL     1      -7.779  19.828  67.600  1.00  0.00    -0.282 A  
HETATM   30  C   UNL     1      -6.922  20.902  67.457  1.00  0.00    -0.406 A  
HETATM   31  C   UNL     1      -5.598  20.615  67.137  1.00  0.00    -0.222 A  
HETATM   32  C   UNL     1      -5.166  19.284  66.979  1.00  0.00    -0.154 A  
HETATM   33  C   UNL     1      -6.051  18.211  67.161  1.00  0.00    -0.170 A  
HETATM   34  C   UNL     1      -7.369  18.505  67.458  1.00  0.00    -0.219 A  
ENDBRANCH  22  25
ENDBRANCH  18  19
ENDBRANCH  17  18
ENDBRANCH   8  17
TORSDOF 4
ENDMDL
MODEL      124
REMARK 921   NORMALIZED FREE ENERGY PREDICTED BY IDOCK:   -5.49 KCAL/MOL
REMARK 922        TOTAL FREE ENERGY PREDICTED BY IDOCK:   -7.57 KCAL/MOL
REMARK 923 INTER-LIGAND FREE ENERGY PREDICTED BY IDOCK:   -6.39 KCAL/MOL
REMARK 924 INTRA-LIGAND FREE ENERGY PREDICTED BY IDOCK:   -1.18 KCAL/MOL
REMARK 927      BINDING AFFINITY PREDICTED BY RF-SCORE:    0.00 PKD
ROOT
HETATM    1  F   UNL     1     -13.045   6.283  71.985  1.00  0.00    -0.341 F  
HETATM    2  C   UNL     1     -12.158   7.152  71.482  1.00  0.00    -0.342 A  
HETATM    3  C   UNL     1     -11.762   8.247  72.236  1.00  0.00    -0.453 A  
HETATM    4  C   UNL     1     -10.848   9.163  71.702  1.00  0.00    -0.442 A  
HETATM    5  C   UNL     1     -10.318   8.990  70.406  1.00  0.00    -0.253 A  
HETATM    6  C   UNL     1      -9.373  10.053  69.817  1.00  0.00    -0.233 C  
HETATM    7  C   UNL     1     -10.744   7.869  69.673  1.00  0.00    -0.218 A  
HETATM    8  C   UNL     1      -7.920   9.557  69.538  1.00  0.00    -0.110 C  
HETATM    9  C   UNL     1     -11.656   6.954  70.206  1.00  0.00    -0.362 A  
HETATM   10  C   UNL     1      -9.971  10.980  68.748  1.00  0.00    -0.215 A  
HETATM   11  C   UNL     1     -11.279  10.838  68.256  1.00  0.00    -0.358 A  
HETATM   12  F   UNL     1     -11.579  13.745  66.100  1.00  0.00    -0.316 F  
HETATM   13  C   UNL     1      -9.229  12.095  68.315  1.00  0.00    -0.192 A  
HETATM   14  C   UNL     1     -11.816  11.762  67.352  1.00  0.00    -0.210 A  
HETATM   15  C   UNL     1     -11.051  12.848  66.943  1.00  0.00    -0.278 A  
HETATM   16  C   UNL     1      -9.761  13.023  67.414  1.00  0.00    -0.213 A  
ENDROOT
BRANCH   8  17
HETATM   17  C   UNL     1      -7.646   8.380  68.593  1.00  0.00    -0.102 C  
BRANCH  17  18
HETATM   18  C   UNL     1      -6.410   7.507  68.836  1.00  0.00    -0.039 C  
BRANCH  18  19
HETATM   19  N   UNL     1      -6.610   6.110  69.222  1.00  0.00    -0.045 NA 
HETATM   20  C   UNL     1      -5.553   5.378  71.483  1.00  0.00    -0.009 C  
HETATM   21  C   UNL     1      -5.516   5.435  69.936  1.00  0.00    -0.004 C  
HETATM   22  C   UNL     1      -6.957   5.324  72.123  1.00  0.00    -0.082 C  
HETATM   23  C   UNL     1      -7.822   6.339  71.376  1.00  0.00    -0.104 C  
HETATM   24  C   UNL     1      -7.897   5.943  69.906  1.00  0.00    -0.096 C  
BRANCH  22  25
HETATM   25  N   UNL     1      -7.604   4.008  72.226  1.00  0.00    -0.073 N  
HETATM   26  C   UNL     1      -7.101   2.751  71.809  1.00  0.00    -0.035 C  
HETATM   27  O   UNL     1      -6.021   2.478  71.315  1.00  0.00    -0.013 OA 
HETATM   28  N   UNL     1      -8.104   1.805  72.072  1.00  0.00    -0.045 NA 
HETATM   29  C   UNL     1      -9.204   2.441  72.616  1.00  0.00    -0.082 A  
HETATM   30  C   UNL     1     -10.416   1.894  72.991  1.00  0.00    -0.223 A  
HETATM   31  C   UNL     1     -11.383   2.772  73.471  1.00  0.00    -0.272 A  
HETATM   32  C   UNL     1     -11.118   4.151  73.573  1.00  0.00    -0.359 A  
HETATM   33  C   UNL     1      -9.867   4.675  73.215  1.00  0.00    -0.170 A  
HETATM   34  C   UNL     1      -8.919   3.800  72.720  1.00  0.00    -0.097 A  
ENDBRANCH  22  25
ENDBRANCH  18  19
ENDBRANCH  17  18
ENDBRANCH   8  17
TORSDOF 4
ENDMDL
MODEL      125
REMARK 921   NORMALIZED FREE ENERGY PREDICTED BY IDOCK:   -5.49 KCAL/MOL
REMARK 922        TOTAL FREE ENERGY PREDICTED BY IDOCK:   -7.56 KCAL/MOL
REMARK 923 INTER-LIGAND FREE ENERGY PREDICTED BY IDOCK:   -7.80 KCAL/MOL
REMARK 924 INTRA-LIGAND FREE ENERGY PREDICTED BY IDOCK:    0.24 KCAL/MOL
REMARK 927      BINDING AFFINITY PREDICTED BY RF-SCORE:    0.00 PKD
ROOT
HETATM    1  F   UNL     1     -11.103   1.747  74.308  1.00  0.00    -0.182 F  
HETATM    2  C   UNL     1     -10.747   2.657  73.393  1.00  0.00    -0.180 A  
HETATM    3  C   UNL     1      -9.963   2.279  72.312  1.00  0.00    -0.226 A  
HETATM    4  C   UNL     1      -9.578   3.236  71.366  1.00  0.00    -0.230 A  
HETATM    5  C   UNL     1      -9.976   4.583  71.491  1.00  0.00    -0.259 A  
HETATM    6  C   UNL     1      -9.475   5.627  70.476  1.00  0.00    -0.203 C  
HETATM    7  C   UNL     1     -10.769   4.928  72.599  1.00  0.00    -0.274 A  
HETATM    8  C   UNL     1     -10.590   6.281  69.603  1.00  0.00    -0.323 C  
HETATM    9  C   UNL     1     -11.154   3.973  73.543  1.00  0.00    -0.350 A  
HETATM   10  C   UNL     1      -8.375   6.581  70.965  1.00  0.00    -0.126 A  
HETATM   11  C   UNL     1      -7.891   6.580  72.284  1.00  0.00    -0.101 A  
HETATM   12  F   UNL     1      -5.177   8.984  72.079  1.00  0.00    -0.036 F  
HETATM   13  C   UNL     1      -7.733   7.422  70.036  1.00  0.00    -0.095 A  
HETATM   14  C   UNL     1      -6.822   7.401  72.663  1.00  0.00    -0.067 A  
HETATM   15  C   UNL     1      -6.217   8.221  71.719  1.00  0.00    -0.050 A  
HETATM   16  C   UNL     1      -6.664   8.242  70.408  1.00  0.00    -0.036 A  
ENDROOT
BRANCH   8  17
HETATM   17  C   UNL     1     -11.758   7.044  70.240  1.00  0.00    -0.284 C  
BRANCH  17  18
HETATM   18  C   UNL     1     -11.475   7.990  71.412  1.00  0.00    -0.258 C  
BRANCH  18  19
HETATM   19  N   UNL     1     -10.966   9.330  71.117  1.00  0.00    -0.309 NA 
HETATM   20  C   UNL     1     -11.734  10.382  68.866  1.00  0.00    -0.138 C  
HETATM   21  C   UNL     1     -10.664   9.652  69.714  1.00  0.00    -0.245 C  
HETATM   22  C   UNL     1     -12.656  11.353  69.634  1.00  0.00     0.061 C  
HETATM   23  C   UNL     1     -13.059  10.648  70.929  1.00  0.00    -0.342 C  
HETATM   24  C   UNL     1     -11.808  10.352  71.747  1.00  0.00     0.264 C  
BRANCH  22  25
HETATM   25  N   UNL     1     -12.157  12.715  69.873  1.00  0.00    -0.287 N  
HETATM   26  C   UNL     1     -11.163  13.421  69.152  1.00  0.00    -0.248 C  
HETATM   27  O   UNL     1     -10.537  13.079  68.164  1.00  0.00    -0.231 OA 
HETATM   28  N   UNL     1     -11.000  14.660  69.792  1.00  0.00    -0.235 NA 
HETATM   29  C   UNL     1     -11.843  14.727  70.884  1.00  0.00    -0.322 A  
HETATM   30  C   UNL     1     -11.981  15.750  71.804  1.00  0.00    -0.547 A  
HETATM   31  C   UNL     1     -12.877  15.541  72.849  1.00  0.00    -0.564 A  
HETATM   32  C   UNL     1     -13.608  14.342  72.945  1.00  0.00    -0.420 A  
HETATM   33  C   UNL     1     -13.472  13.334  71.979  1.00  0.00    -0.596 A  
HETATM   34  C   UNL     1     -12.566  13.539  70.955  1.00  0.00    -0.359 A  
ENDBRANCH  22  25
ENDBRANCH  18  19
ENDBRANCH  17  18
ENDBRANCH   8  17
TORSDOF 4
ENDMDL
MODEL      126
REMARK 921   NORMALIZED FREE ENERGY PREDICTED BY IDOCK:   -5.48 KCAL/MOL
REMARK 922        TOTAL FREE ENERGY PREDICTED BY IDOCK:   -7.55 KCAL/MOL
REMARK 923 INTER-LIGAND FREE ENERGY PREDICTED BY IDOCK:   -7.25 KCAL/MOL
REMARK 924 INTRA-LIGAND FREE ENERGY PREDICTED BY IDOCK:   -0.30 KCAL/MOL
REMARK 927      BINDING AFFINITY PREDICTED BY RF-SCORE:    0.00 PKD
ROOT
HETATM    1  F   UNL     1     -12.058  10.612  71.459  1.00  0.00    -0.426 F  
HETATM    2  C   UNL     1     -11.390  10.531  70.301  1.00  0.00    -0.327 A  
HETATM    3  C   UNL     1     -12.071  10.666  69.100  1.00  0.00    -0.152 A  
HETATM    4  C   UNL     1     -11.372  10.564  67.891  1.00  0.00    -0.297 A  
HETATM    5  C   UNL     1      -9.982  10.327  67.872  1.00  0.00    -0.191 A  
HETATM    6  C   UNL     1      -9.255  10.144  66.528  1.00  0.00    -0.182 C  
HETATM    7  C   UNL     1      -9.327  10.195  69.109  1.00  0.00    -0.205 A  
HETATM    8  C   UNL     1      -8.197  11.243  66.200  1.00  0.00    -0.088 C  
HETATM    9  C   UNL     1     -10.024  10.298  70.316  1.00  0.00     0.051 A  
HETATM   10  C   UNL     1      -8.851   8.708  66.160  1.00  0.00    -0.204 A  
HETATM   11  C   UNL     1      -9.047   7.614  67.018  1.00  0.00    -0.157 A  
HETATM   12  F   UNL     1      -8.016   4.834  64.921  1.00  0.00    -0.088 F  
HETATM   13  C   UNL     1      -8.366   8.443  64.865  1.00  0.00    -0.159 A  
HETATM   14  C   UNL     1      -8.752   6.309  66.606  1.00  0.00    -0.126 A  
HETATM   15  C   UNL     1      -8.270   6.086  65.322  1.00  0.00    -0.138 A  
HETATM   16  C   UNL     1      -8.072   7.142  64.446  1.00  0.00    -0.056 A  
ENDROOT
BRANCH   8  17
HETATM   17  C   UNL     1      -7.008  11.510  67.131  1.00  0.00    -0.138 C  
BRANCH  17  18
HETATM   18  C   UNL     1      -6.782  12.932  67.657  1.00  0.00    -0.153 C  
BRANCH  18  19
HETATM   19  N   UNL     1      -7.782  13.954  67.347  1.00  0.00    -0.170 NA 
HETATM   20  C   UNL     1      -9.278  14.737  69.325  1.00  0.00    -0.035 C  
HETATM   21  C   UNL     1      -9.072  13.883  68.051  1.00  0.00    -0.192 C  
HETATM   22  C   UNL     1      -8.521  16.082  69.367  1.00  0.00    -0.146 C  
HETATM   23  C   UNL     1      -7.108  15.809  68.851  1.00  0.00    -0.139 C  
HETATM   24  C   UNL     1      -7.190  15.294  67.419  1.00  0.00    -0.204 C  
BRANCH  22  25
HETATM   25  N   UNL     1      -9.146  17.232  68.698  1.00  0.00    -0.267 N  
HETATM   26  C   UNL     1     -10.456  17.329  68.168  1.00  0.00    -0.382 C  
HETATM   27  O   UNL     1     -11.357  16.509  68.183  1.00  0.00    -0.308 OA 
HETATM   28  N   UNL     1     -10.565  18.602  67.587  1.00  0.00    -0.419 NA 
HETATM   29  C   UNL     1      -9.367  19.275  67.726  1.00  0.00    -0.312 A  
HETATM   30  C   UNL     1      -9.029  20.537  67.273  1.00  0.00    -0.431 A  
HETATM   31  C   UNL     1      -7.725  20.963  67.506  1.00  0.00    -0.226 A  
HETATM   32  C   UNL     1      -6.806  20.139  68.184  1.00  0.00    -0.326 A  
HETATM   33  C   UNL     1      -7.185  18.875  68.661  1.00  0.00    -0.333 A  
HETATM   34  C   UNL     1      -8.476  18.450  68.408  1.00  0.00    -0.326 A  
ENDBRANCH  22  25
ENDBRANCH  18  19
ENDBRANCH  17  18
ENDBRANCH   8  17
TORSDOF 4
ENDMDL
MODEL      127
REMARK 921   NORMALIZED FREE ENERGY PREDICTED BY IDOCK:   -5.47 KCAL/MOL
REMARK 922        TOTAL FREE ENERGY PREDICTED BY IDOCK:   -7.53 KCAL/MOL
REMARK 923 INTER-LIGAND FREE ENERGY PREDICTED BY IDOCK:   -7.58 KCAL/MOL
REMARK 924 INTRA-LIGAND FREE ENERGY PREDICTED BY IDOCK:    0.05 KCAL/MOL
REMARK 927      BINDING AFFINITY PREDICTED BY RF-SCORE:    0.00 PKD
ROOT
HETATM    1  F   UNL     1     -12.355  11.635  62.868  1.00  0.00    -0.484 F  
HETATM    2  C   UNL     1     -12.127  12.137  64.089  1.00  0.00    -0.409 A  
HETATM    3  C   UNL     1     -12.743  13.318  64.476  1.00  0.00    -0.229 A  
HETATM    4  C   UNL     1     -12.490  13.849  65.746  1.00  0.00    -0.530 A  
HETATM    5  C   UNL     1     -11.619  13.200  66.645  1.00  0.00    -0.403 A  
HETATM    6  C   UNL     1     -11.302  13.846  68.007  1.00  0.00    -0.317 C  
HETATM    7  C   UNL     1     -11.014  12.005  66.218  1.00  0.00    -0.340 A  
HETATM    8  C   UNL     1     -11.790  13.035  69.247  1.00  0.00    -0.370 C  
HETATM    9  C   UNL     1     -11.266  11.475  64.950  1.00  0.00    -0.242 A  
HETATM   10  C   UNL     1      -9.918  14.498  68.147  1.00  0.00    -0.220 A  
HETATM   11  C   UNL     1      -8.944  14.451  67.136  1.00  0.00    -0.245 A  
HETATM   12  F   UNL     1      -6.342  16.574  68.518  1.00  0.00    -0.121 F  
HETATM   13  C   UNL     1      -9.640  15.276  69.286  1.00  0.00    -0.249 A  
HETATM   14  C   UNL     1      -7.732  15.140  67.267  1.00  0.00    -0.241 A  
HETATM   15  C   UNL     1      -7.490  15.894  68.409  1.00  0.00    -0.127 A  
HETATM   16  C   UNL     1      -8.432  15.968  69.422  1.00  0.00    -0.146 A  
ENDROOT
BRANCH   8  17
HETATM   17  C   UNL     1     -11.316  11.598  69.499  1.00  0.00    -0.328 C  
BRANCH  17  18
HETATM   18  C   UNL     1      -9.902  11.198  69.065  1.00  0.00    -0.114 C  
BRANCH  18  19
HETATM   19  N   UNL     1      -9.255  10.078  69.752  1.00  0.00    -0.219 NA 
HETATM   20  C   UNL     1     -10.838   8.285  70.771  1.00  0.00    -0.252 C  
HETATM   21  C   UNL     1      -9.926   9.525  70.938  1.00  0.00    -0.238 C  
HETATM   22  C   UNL     1     -10.435   7.294  69.658  1.00  0.00    -0.231 C  
HETATM   23  C   UNL     1     -10.057   8.133  68.437  1.00  0.00    -0.226 C  
HETATM   24  C   UNL     1      -8.880   9.032  68.794  1.00  0.00    -0.137 C  
BRANCH  22  25
HETATM   25  N   UNL     1      -9.412   6.290  69.983  1.00  0.00    -0.154 N  
HETATM   26  C   UNL     1      -8.419   6.347  70.991  1.00  0.00    -0.127 C  
HETATM   27  O   UNL     1      -8.219   7.210  71.828  1.00  0.00    -0.104 OA 
HETATM   28  N   UNL     1      -7.652   5.178  70.872  1.00  0.00    -0.077 NA 
HETATM   29  C   UNL     1      -8.128   4.421  69.819  1.00  0.00    -0.060 A  
HETATM   30  C   UNL     1      -7.648   3.217  69.337  1.00  0.00    -0.047 A  
HETATM   31  C   UNL     1      -8.287   2.685  68.222  1.00  0.00    -0.088 A  
HETATM   32  C   UNL     1      -9.379   3.349  67.629  1.00  0.00    -0.246 A  
HETATM   33  C   UNL     1      -9.866   4.553  68.159  1.00  0.00    -0.152 A  
HETATM   34  C   UNL     1      -9.213   5.087  69.255  1.00  0.00    -0.109 A  
ENDBRANCH  22  25
ENDBRANCH  18  19
ENDBRANCH  17  18
ENDBRANCH   8  17
TORSDOF 4
ENDMDL
MODEL      128
REMARK 921   NORMALIZED FREE ENERGY PREDICTED BY IDOCK:   -5.44 KCAL/MOL
REMARK 922        TOTAL FREE ENERGY PREDICTED BY IDOCK:   -7.50 KCAL/MOL
REMARK 923 INTER-LIGAND FREE ENERGY PREDICTED BY IDOCK:   -7.55 KCAL/MOL
REMARK 924 INTRA-LIGAND FREE ENERGY PREDICTED BY IDOCK:    0.06 KCAL/MOL
REMARK 927      BINDING AFFINITY PREDICTED BY RF-SCORE:    0.00 PKD
ROOT
HETATM    1  F   UNL     1      -7.182   3.894  65.551  1.00  0.00    -0.065 F  
HETATM    2  C   UNL     1      -7.538   4.934  66.316  1.00  0.00    -0.087 A  
HETATM    3  C   UNL     1      -6.855   5.188  67.497  1.00  0.00    -0.057 A  
HETATM    4  C   UNL     1      -7.240   6.265  68.303  1.00  0.00    -0.085 A  
HETATM    5  C   UNL     1      -8.314   7.102  67.935  1.00  0.00    -0.118 A  
HETATM    6  C   UNL     1      -8.762   8.234  68.878  1.00  0.00    -0.137 C  
HETATM    7  C   UNL     1      -8.981   6.814  66.732  1.00  0.00    -0.141 A  
HETATM    8  C   UNL     1      -8.575   9.674  68.310  1.00  0.00    -0.119 C  
HETATM    9  C   UNL     1      -8.597   5.738  65.926  1.00  0.00    -0.146 A  
HETATM   10  C   UNL     1     -10.063   7.995  69.660  1.00  0.00    -0.198 A  
HETATM   11  C   UNL     1     -10.864   6.855  69.483  1.00  0.00    -0.287 A  
HETATM   12  F   UNL     1     -13.380   7.311  72.061  1.00  0.00    -0.322 F  
HETATM   13  C   UNL     1     -10.423   8.893  70.682  1.00  0.00    -0.271 A  
HETATM   14  C   UNL     1     -11.991   6.631  70.283  1.00  0.00    -0.302 A  
HETATM   15  C   UNL     1     -12.318   7.542  71.279  1.00  0.00    -0.327 A  
HETATM   16  C   UNL     1     -11.546   8.674  71.486  1.00  0.00    -0.368 A  
ENDROOT
BRANCH   8  17
HETATM   17  C   UNL     1      -9.251  10.112  67.004  1.00  0.00    -0.166 C  
BRANCH  17  18
HETATM   18  C   UNL     1     -10.269  11.256  67.043  1.00  0.00    -0.215 C  
BRANCH  18  19
HETATM   19  N   UNL     1      -9.958  12.436  67.852  1.00  0.00    -0.198 NA 
HETATM   20  C   UNL     1      -8.062  13.975  66.959  1.00  0.00    -0.028 C  
HETATM   21  C   UNL     1      -8.553  12.866  67.920  1.00  0.00    -0.185 C  
HETATM   22  C   UNL     1      -9.110  15.037  66.561  1.00  0.00    -0.286 C  
HETATM   23  C   UNL     1     -10.407  14.286  66.261  1.00  0.00    -0.297 C  
HETATM   24  C   UNL     1     -10.856  13.545  67.515  1.00  0.00    -0.264 C  
BRANCH  22  25
HETATM   25  N   UNL     1      -9.318  16.162  67.485  1.00  0.00    -0.216 N  
HETATM   26  C   UNL     1      -9.150  16.182  68.891  1.00  0.00    -0.246 C  
HETATM   27  O   UNL     1      -8.763  15.297  69.634  1.00  0.00    -0.235 OA 
HETATM   28  N   UNL     1      -9.519  17.464  69.326  1.00  0.00    -0.011 NA 
HETATM   29  C   UNL     1      -9.923  18.219  68.241  1.00  0.00    -0.364 A  
HETATM   30  C   UNL     1     -10.393  19.519  68.223  1.00  0.00    -0.524 A  
HETATM   31  C   UNL     1     -10.782  20.032  66.990  1.00  0.00    -0.366 A  
HETATM   32  C   UNL     1     -10.684  19.253  65.821  1.00  0.00    -0.417 A  
HETATM   33  C   UNL     1     -10.173  17.947  65.863  1.00  0.00    -0.228 A  
HETATM   34  C   UNL     1      -9.808  17.437  67.095  1.00  0.00    -0.278 A  
ENDBRANCH  22  25
ENDBRANCH  18  19
ENDBRANCH  17  18
ENDBRANCH   8  17
TORSDOF 4
ENDMDL
MODEL      129
REMARK 921   NORMALIZED FREE ENERGY PREDICTED BY IDOCK:   -5.41 KCAL/MOL
REMARK 922        TOTAL FREE ENERGY PREDICTED BY IDOCK:   -7.46 KCAL/MOL
REMARK 923 INTER-LIGAND FREE ENERGY PREDICTED BY IDOCK:   -6.88 KCAL/MOL
REMARK 924 INTRA-LIGAND FREE ENERGY PREDICTED BY IDOCK:   -0.58 KCAL/MOL
REMARK 927      BINDING AFFINITY PREDICTED BY RF-SCORE:    0.00 PKD
ROOT
HETATM    1  F   UNL     1     -12.793  10.085  72.347  1.00  0.00    -0.437 F  
HETATM    2  C   UNL     1     -12.263   9.070  71.652  1.00  0.00    -0.348 A  
HETATM    3  C   UNL     1     -13.092   8.110  71.091  1.00  0.00    -0.066 A  
HETATM    4  C   UNL     1     -12.534   7.041  70.379  1.00  0.00     0.027 A  
HETATM    5  C   UNL     1     -11.138   6.925  70.219  1.00  0.00    -0.342 A  
HETATM    6  C   UNL     1     -10.549   5.699  69.496  1.00  0.00    -0.384 C  
HETATM    7  C   UNL     1     -10.330   7.917  70.801  1.00  0.00    -0.211 A  
HETATM    8  C   UNL     1      -9.804   6.020  68.163  1.00  0.00    -0.148 C  
HETATM    9  C   UNL     1     -10.887   8.984  71.512  1.00  0.00    -0.416 A  
HETATM   10  C   UNL     1      -9.886   4.636  70.385  1.00  0.00    -0.306 A  
HETATM   11  C   UNL     1      -9.735   4.784  71.773  1.00  0.00    -0.225 A  
HETATM   12  F   UNL     1      -8.371   1.554  72.718  1.00  0.00    -0.049 F  
HETATM   13  C   UNL     1      -9.508   3.405  69.815  1.00  0.00    -0.229 A  
HETATM   14  C   UNL     1      -9.211   3.750  72.558  1.00  0.00    -0.144 A  
HETATM   15  C   UNL     1      -8.845   2.551  71.960  1.00  0.00    -0.074 A  
HETATM   16  C   UNL     1      -8.986   2.368  70.595  1.00  0.00    -0.160 A  
ENDROOT
BRANCH   8  17
HETATM   17  C   UNL     1      -8.602   6.972  68.129  1.00  0.00    -0.128 C  
BRANCH  17  18
HETATM   18  C   UNL     1      -8.056   7.428  66.771  1.00  0.00    -0.123 C  
BRANCH  18  19
HETATM   19  N   UNL     1      -8.524   8.704  66.227  1.00  0.00    -0.120 NA 
HETATM   20  C   UNL     1     -10.554   9.794  67.433  1.00  0.00    -0.330 C  
HETATM   21  C   UNL     1      -9.970   8.971  66.259  1.00  0.00    -0.281 C  
HETATM   22  C   UNL     1      -9.621  10.867  68.035  1.00  0.00    -0.162 C  
HETATM   23  C   UNL     1      -8.239  10.227  68.165  1.00  0.00    -0.114 C  
HETATM   24  C   UNL     1      -7.747   9.818  66.782  1.00  0.00    -0.098 C  
BRANCH  22  25
HETATM   25  N   UNL     1      -9.571  12.174  67.364  1.00  0.00    -0.176 N  
HETATM   26  C   UNL     1     -10.318  12.610  66.243  1.00  0.00    -0.252 C  
HETATM   27  O   UNL     1     -11.183  12.024  65.617  1.00  0.00    -0.315 OA 
HETATM   28  N   UNL     1      -9.879  13.910  65.944  1.00  0.00    -0.291 NA 
HETATM   29  C   UNL     1      -8.882  14.273  66.829  1.00  0.00    -0.182 A  
HETATM   30  C   UNL     1      -8.157  15.449  66.875  1.00  0.00    -0.259 A  
HETATM   31  C   UNL     1      -7.166  15.542  67.847  1.00  0.00    -0.156 A  
HETATM   32  C   UNL     1      -6.933  14.481  68.744  1.00  0.00    -0.104 A  
HETATM   33  C   UNL     1      -7.706  13.312  68.696  1.00  0.00    -0.080 A  
HETATM   34  C   UNL     1      -8.674  13.218  67.714  1.00  0.00    -0.194 A  
ENDBRANCH  22  25
ENDBRANCH  18  19
ENDBRANCH  17  18
ENDBRANCH   8  17
TORSDOF 4
ENDMDL
MODEL      130
REMARK 921   NORMALIZED FREE ENERGY PREDICTED BY IDOCK:   -5.39 KCAL/MOL
REMARK 922        TOTAL FREE ENERGY PREDICTED BY IDOCK:   -7.44 KCAL/MOL
REMARK 923 INTER-LIGAND FREE ENERGY PREDICTED BY IDOCK:   -7.61 KCAL/MOL
REMARK 924 INTRA-LIGAND FREE ENERGY PREDICTED BY IDOCK:    0.16 KCAL/MOL
REMARK 927      BINDING AFFINITY PREDICTED BY RF-SCORE:    0.00 PKD
ROOT
HETATM    1  F   UNL     1     -12.577  11.797  62.710  1.00  0.00    -0.466 F  
HETATM    2  C   UNL     1     -12.304  12.223  63.951  1.00  0.00    -0.509 A  
HETATM    3  C   UNL     1     -12.813  13.435  64.392  1.00  0.00    -0.014 A  
HETATM    4  C   UNL     1     -12.511  13.886  65.682  1.00  0.00    -0.538 A  
HETATM    5  C   UNL     1     -11.697  13.126  66.547  1.00  0.00    -0.433 A  
HETATM    6  C   UNL     1     -11.321  13.681  67.932  1.00  0.00    -0.325 C  
HETATM    7  C   UNL     1     -11.199  11.903  66.064  1.00  0.00    -0.377 A  
HETATM    8  C   UNL     1     -11.874  12.863  69.140  1.00  0.00    -0.353 C  
HETATM    9  C   UNL     1     -11.500  11.452  64.776  1.00  0.00    -0.056 A  
HETATM   10  C   UNL     1      -9.885  14.205  68.091  1.00  0.00    -0.229 A  
HETATM   11  C   UNL     1      -8.922  14.119  67.072  1.00  0.00    -0.251 A  
HETATM   12  F   UNL     1      -6.141  15.946  68.527  1.00  0.00    -0.098 F  
HETATM   13  C   UNL     1      -9.537  14.906  69.261  1.00  0.00    -0.131 A  
HETATM   14  C   UNL     1      -7.654  14.693  67.225  1.00  0.00    -0.173 A  
HETATM   15  C   UNL     1      -7.344  15.373  68.396  1.00  0.00    -0.114 A  
HETATM   16  C   UNL     1      -8.273  15.484  69.418  1.00  0.00    -0.247 A  
ENDROOT
BRANCH   8  17
HETATM   17  C   UNL     1     -11.525  11.381  69.326  1.00  0.00    -0.370 C  
BRANCH  17  18
HETATM   18  C   UNL     1     -10.050  10.969  69.393  1.00  0.00    -0.030 C  
BRANCH  18  19
HETATM   19  N   UNL     1      -9.732   9.554  69.595  1.00  0.00    -0.187 NA 
HETATM   20  C   UNL     1      -8.515   8.953  71.813  1.00  0.00    -0.091 C  
HETATM   21  C   UNL     1      -8.477   9.229  70.290  1.00  0.00    -0.203 C  
HETATM   22  C   UNL     1      -9.812   8.310  72.351  1.00  0.00    -0.304 C  
HETATM   23  C   UNL     1     -10.976   9.036  71.678  1.00  0.00    -0.435 C  
HETATM   24  C   UNL     1     -10.879   8.844  70.169  1.00  0.00    -0.231 C  
BRANCH  22  25
HETATM   25  N   UNL     1      -9.934   6.848  72.253  1.00  0.00    -0.162 N  
HETATM   26  C   UNL     1     -11.116   6.072  72.193  1.00  0.00    -0.279 C  
HETATM   27  O   UNL     1     -12.278   6.437  72.169  1.00  0.00    -0.318 OA 
HETATM   28  N   UNL     1     -10.717   4.727  72.160  1.00  0.00    -0.134 NA 
HETATM   29  C   UNL     1      -9.338   4.655  72.216  1.00  0.00    -0.128 A  
HETATM   30  C   UNL     1      -8.534   3.531  72.240  1.00  0.00    -0.090 A  
HETATM   31  C   UNL     1      -7.162   3.738  72.349  1.00  0.00    -0.049 A  
HETATM   32  C   UNL     1      -6.633   5.041  72.421  1.00  0.00    -0.048 A  
HETATM   33  C   UNL     1      -7.470   6.165  72.363  1.00  0.00    -0.094 A  
HETATM   34  C   UNL     1      -8.833   5.951  72.275  1.00  0.00    -0.138 A  
ENDBRANCH  22  25
ENDBRANCH  18  19
ENDBRANCH  17  18
ENDBRANCH   8  17
TORSDOF 4
ENDMDL
MODEL      131
REMARK 921   NORMALIZED FREE ENERGY PREDICTED BY IDOCK:   -5.39 KCAL/MOL
REMARK 922        TOTAL FREE ENERGY PREDICTED BY IDOCK:   -7.44 KCAL/MOL
REMARK 923 INTER-LIGAND FREE ENERGY PREDICTED BY IDOCK:   -6.71 KCAL/MOL
REMARK 924 INTRA-LIGAND FREE ENERGY PREDICTED BY IDOCK:   -0.73 KCAL/MOL
REMARK 927      BINDING AFFINITY PREDICTED BY RF-SCORE:    0.00 PKD
ROOT
HETATM    1  F   UNL     1     -11.574  11.896  63.243  1.00  0.00    -0.467 F  
HETATM    2  C   UNL     1     -10.488  11.242  63.676  1.00  0.00    -0.405 A  
HETATM    3  C   UNL     1      -9.474  10.922  62.784  1.00  0.00    -0.359 A  
HETATM    4  C   UNL     1      -8.348  10.224  63.236  1.00  0.00    -0.168 A  
HETATM    5  C   UNL     1      -8.223   9.841  64.587  1.00  0.00    -0.150 A  
HETATM    6  C   UNL     1      -7.009   9.010  65.039  1.00  0.00    -0.080 C  
HETATM    7  C   UNL     1      -9.270  10.184  65.460  1.00  0.00    -0.237 A  
HETATM    8  C   UNL     1      -6.065   9.726  66.054  1.00  0.00    -0.066 C  
HETATM    9  C   UNL     1     -10.395  10.880  65.010  1.00  0.00    -0.356 A  
HETATM   10  C   UNL     1      -7.265   7.520  65.313  1.00  0.00    -0.065 A  
HETATM   11  C   UNL     1      -8.542   6.938  65.244  1.00  0.00    -0.006 A  
HETATM   12  F   UNL     1      -7.781   3.424  65.755  1.00  0.00    -0.077 F  
HETATM   13  C   UNL     1      -6.169   6.665  65.533  1.00  0.00    -0.038 A  
HETATM   14  C   UNL     1      -8.718   5.558  65.407  1.00  0.00    -0.148 A  
HETATM   15  C   UNL     1      -7.612   4.746  65.628  1.00  0.00    -0.086 A  
HETATM   16  C   UNL     1      -6.338   5.286  65.695  1.00  0.00    -0.035 A  
ENDROOT
BRANCH   8  17
HETATM   17  C   UNL     1      -6.582  10.228  67.408  1.00  0.00    -0.068 C  
BRANCH  17  18
HETATM   18  C   UNL     1      -6.386   9.350  68.649  1.00  0.00    -0.048 C  
BRANCH  18  19
HETATM   19  N   UNL     1      -7.501   9.215  69.588  1.00  0.00    -0.074 NA 
HETATM   20  C   UNL     1      -9.864   9.775  68.656  1.00  0.00    -0.168 C  
HETATM   21  C   UNL     1      -8.611  10.174  69.473  1.00  0.00    -0.164 C  
HETATM   22  C   UNL     1     -10.222   8.274  68.658  1.00  0.00    -0.204 C  
HETATM   23  C   UNL     1      -8.913   7.507  68.469  1.00  0.00    -0.128 C  
HETATM   24  C   UNL     1      -7.976   7.827  69.628  1.00  0.00    -0.116 C  
BRANCH  22  25
HETATM   25  N   UNL     1     -11.007   7.766  69.793  1.00  0.00    -0.206 N  
HETATM   26  C   UNL     1     -11.191   6.422  70.198  1.00  0.00    -0.390 C  
HETATM   27  O   UNL     1     -10.715   5.403  69.728  1.00  0.00    -0.315 OA 
HETATM   28  N   UNL     1     -12.061   6.444  71.298  1.00  0.00    -0.254 NA 
HETATM   29  C   UNL     1     -12.429   7.749  71.567  1.00  0.00    -0.324 A  
HETATM   30  C   UNL     1     -13.291   8.219  72.540  1.00  0.00    -0.092 A  
HETATM   31  C   UNL     1     -13.529   9.590  72.564  1.00  0.00    -0.381 A  
HETATM   32  C   UNL     1     -12.903  10.447  71.639  1.00  0.00    -0.579 A  
HETATM   33  C   UNL     1     -12.007   9.947  70.682  1.00  0.00    -0.361 A  
HETATM   34  C   UNL     1     -11.792   8.582  70.651  1.00  0.00    -0.096 A  
ENDBRANCH  22  25
ENDBRANCH  18  19
ENDBRANCH  17  18
ENDBRANCH   8  17
TORSDOF 4
ENDMDL
MODEL      132
REMARK 921   NORMALIZED FREE ENERGY PREDICTED BY IDOCK:   -5.38 KCAL/MOL
REMARK 922        TOTAL FREE ENERGY PREDICTED BY IDOCK:   -7.42 KCAL/MOL
REMARK 923 INTER-LIGAND FREE ENERGY PREDICTED BY IDOCK:   -6.90 KCAL/MOL
REMARK 924 INTRA-LIGAND FREE ENERGY PREDICTED BY IDOCK:   -0.52 KCAL/MOL
REMARK 927      BINDING AFFINITY PREDICTED BY RF-SCORE:    0.00 PKD
ROOT
HETATM    1  F   UNL     1     -10.712  16.997  70.356  1.00  0.00    -0.174 F  
HETATM    2  C   UNL     1     -10.910  15.863  69.672  1.00  0.00    -0.314 A  
HETATM    3  C   UNL     1     -12.085  15.146  69.850  1.00  0.00    -0.373 A  
HETATM    4  C   UNL     1     -12.282  13.952  69.147  1.00  0.00    -0.305 A  
HETATM    5  C   UNL     1     -11.305  13.463  68.255  1.00  0.00    -0.330 A  
HETATM    6  C   UNL     1     -11.517  12.110  67.552  1.00  0.00    -0.410 C  
HETATM    7  C   UNL     1     -10.129  14.217  68.101  1.00  0.00    -0.232 A  
HETATM    8  C   UNL     1     -11.651  12.191  66.000  1.00  0.00    -0.420 C  
HETATM    9  C   UNL     1      -9.931  15.409  68.803  1.00  0.00    -0.208 A  
HETATM   10  C   UNL     1     -10.693  10.928  68.084  1.00  0.00    -0.256 A  
HETATM   11  C   UNL     1      -9.730  11.061  69.099  1.00  0.00    -0.096 A  
HETATM   12  F   UNL     1      -8.763   7.606  69.660  1.00  0.00    -0.132 F  
HETATM   13  C   UNL     1     -10.982   9.629  67.626  1.00  0.00    -0.190 A  
HETATM   14  C   UNL     1      -9.069   9.943  69.620  1.00  0.00    -0.245 A  
HETATM   15  C   UNL     1      -9.377   8.676  69.139  1.00  0.00    -0.153 A  
HETATM   16  C   UNL     1     -10.326   8.508  68.144  1.00  0.00    -0.258 A  
ENDROOT
BRANCH   8  17
HETATM   17  C   UNL     1     -10.535  12.787  65.133  1.00  0.00    -0.320 C  
BRANCH  17  18
HETATM   18  C   UNL     1     -10.327  12.243  63.715  1.00  0.00    -0.435 C  
BRANCH  18  19
HETATM   19  N   UNL     1     -10.028  10.819  63.553  1.00  0.00    -0.344 NA 
HETATM   20  C   UNL     1      -7.655  10.235  62.664  1.00  0.00    -0.151 C  
HETATM   21  C   UNL     1      -9.173  10.425  62.424  1.00  0.00    -0.277 C  
HETATM   22  C   UNL     1      -7.251   9.736  64.068  1.00  0.00    -0.128 C  
HETATM   23  C   UNL     1      -8.091  10.522  65.075  1.00  0.00    -0.096 C  
HETATM   24  C   UNL     1      -9.567  10.241  64.820  1.00  0.00    -0.307 C  
BRANCH  22  25
HETATM   25  N   UNL     1      -7.300   8.287  64.312  1.00  0.00    -0.089 N  
HETATM   26  C   UNL     1      -7.803   7.274  63.459  1.00  0.00    -0.108 C  
HETATM   27  O   UNL     1      -8.263   7.369  62.335  1.00  0.00    -0.140 OA 
HETATM   28  N   UNL     1      -7.678   6.060  64.154  1.00  0.00    -0.102 NA 
HETATM   29  C   UNL     1      -7.137   6.299  65.403  1.00  0.00    -0.068 A  
HETATM   30  C   UNL     1      -6.875   5.395  66.415  1.00  0.00    -0.059 A  
HETATM   31  C   UNL     1      -6.368   5.910  67.605  1.00  0.00    -0.041 A  
HETATM   32  C   UNL     1      -6.129   7.290  67.750  1.00  0.00    -0.035 A  
HETATM   33  C   UNL     1      -6.373   8.181  66.694  1.00  0.00    -0.055 A  
HETATM   34  C   UNL     1      -6.896   7.665  65.523  1.00  0.00    -0.049 A  
ENDBRANCH  22  25
ENDBRANCH  18  19
ENDBRANCH  17  18
ENDBRANCH   8  17
TORSDOF 4
ENDMDL
MODEL      133
REMARK 921   NORMALIZED FREE ENERGY PREDICTED BY IDOCK:   -5.37 KCAL/MOL
REMARK 922        TOTAL FREE ENERGY PREDICTED BY IDOCK:   -7.41 KCAL/MOL
REMARK 923 INTER-LIGAND FREE ENERGY PREDICTED BY IDOCK:   -6.79 KCAL/MOL
REMARK 924 INTRA-LIGAND FREE ENERGY PREDICTED BY IDOCK:   -0.62 KCAL/MOL
REMARK 927      BINDING AFFINITY PREDICTED BY RF-SCORE:    0.00 PKD
ROOT
HETATM    1  F   UNL     1     -12.036  12.743  67.136  1.00  0.00    -0.401 F  
HETATM    2  C   UNL     1     -11.768  11.852  68.100  1.00  0.00    -0.320 A  
HETATM    3  C   UNL     1     -11.958  12.197  69.430  1.00  0.00    -0.329 A  
HETATM    4  C   UNL     1     -11.661  11.270  70.436  1.00  0.00    -0.398 A  
HETATM    5  C   UNL     1     -11.173   9.985  70.121  1.00  0.00    -0.367 A  
HETATM    6  C   UNL     1     -10.785   9.014  71.250  1.00  0.00    -0.379 C  
HETATM    7  C   UNL     1     -10.995   9.673  68.762  1.00  0.00    -0.153 A  
HETATM    8  C   UNL     1     -11.653   7.720  71.329  1.00  0.00    -0.301 C  
HETATM    9  C   UNL     1     -11.290  10.598  67.757  1.00  0.00    -0.320 A  
HETATM   10  C   UNL     1      -9.281   8.818  71.495  1.00  0.00    -0.332 A  
HETATM   11  C   UNL     1      -8.292   9.413  70.696  1.00  0.00    -0.217 A  
HETATM   12  F   UNL     1      -5.256   8.474  72.454  1.00  0.00    -0.035 F  
HETATM   13  C   UNL     1      -8.859   8.106  72.634  1.00  0.00    -0.285 A  
HETATM   14  C   UNL     1      -6.933   9.285  71.011  1.00  0.00    -0.090 A  
HETATM   15  C   UNL     1      -6.554   8.570  72.140  1.00  0.00    -0.080 A  
HETATM   16  C   UNL     1      -7.505   7.976  72.955  1.00  0.00    -0.153 A  
ENDROOT
BRANCH   8  17
HETATM   17  C   UNL     1     -11.749   6.750  70.144  1.00  0.00    -0.370 C  
BRANCH  17  18
HETATM   18  C   UNL     1     -10.852   5.508  70.127  1.00  0.00    -0.229 C  
BRANCH  18  19
HETATM   19  N   UNL     1      -9.621   5.550  69.336  1.00  0.00    -0.139 NA 
HETATM   20  C   UNL     1      -9.663   4.264  67.076  1.00  0.00    -0.237 C  
HETATM   21  C   UNL     1      -9.261   4.348  68.569  1.00  0.00    -0.135 C  
HETATM   22  C   UNL     1      -9.708   5.605  66.313  1.00  0.00    -0.135 C  
HETATM   23  C   UNL     1     -10.397   6.613  67.232  1.00  0.00    -0.296 C  
HETATM   24  C   UNL     1      -9.580   6.762  68.510  1.00  0.00    -0.130 C  
BRANCH  22  25
HETATM   25  N   UNL     1      -8.442   6.118  65.770  1.00  0.00    -0.143 N  
HETATM   26  C   UNL     1      -7.215   5.429  65.611  1.00  0.00    -0.068 C  
HETATM   27  O   UNL     1      -6.949   4.263  65.846  1.00  0.00    -0.062 OA 
HETATM   28  N   UNL     1      -6.292   6.356  65.103  1.00  0.00    -0.034 NA 
HETATM   29  C   UNL     1      -6.904   7.586  64.965  1.00  0.00    -0.047 A  
HETATM   30  C   UNL     1      -6.355   8.779  64.531  1.00  0.00    -0.067 A  
HETATM   31  C   UNL     1      -7.187   9.894  64.533  1.00  0.00    -0.137 A  
HETATM   32  C   UNL     1      -8.528   9.794  64.950  1.00  0.00    -0.165 A  
HETATM   33  C   UNL     1      -9.069   8.564  65.355  1.00  0.00    -0.103 A  
HETATM   34  C   UNL     1      -8.231   7.465  65.371  1.00  0.00    -0.134 A  
ENDBRANCH  22  25
ENDBRANCH  18  19
ENDBRANCH  17  18
ENDBRANCH   8  17
TORSDOF 4
ENDMDL
MODEL      134
REMARK 921   NORMALIZED FREE ENERGY PREDICTED BY IDOCK:   -5.37 KCAL/MOL
REMARK 922        TOTAL FREE ENERGY PREDICTED BY IDOCK:   -7.41 KCAL/MOL
REMARK 923 INTER-LIGAND FREE ENERGY PREDICTED BY IDOCK:   -7.24 KCAL/MOL
REMARK 924 INTRA-LIGAND FREE ENERGY PREDICTED BY IDOCK:   -0.18 KCAL/MOL
REMARK 927      BINDING AFFINITY PREDICTED BY RF-SCORE:    0.00 PKD
ROOT
HETATM    1  F   UNL     1     -12.640  11.831  62.870  1.00  0.00    -0.581 F  
HETATM    2  C   UNL     1     -12.334  12.259  64.101  1.00  0.00    -0.451 A  
HETATM    3  C   UNL     1     -12.899  13.430  64.585  1.00  0.00    -0.148 A  
HETATM    4  C   UNL     1     -12.564  13.884  65.866  1.00  0.00    -0.498 A  
HETATM    5  C   UNL     1     -11.661  13.168  66.679  1.00  0.00    -0.427 A  
HETATM    6  C   UNL     1     -11.255  13.730  68.053  1.00  0.00    -0.293 C  
HETATM    7  C   UNL     1     -11.111  11.985  66.154  1.00  0.00    -0.367 A  
HETATM    8  C   UNL     1     -11.695  12.863  69.273  1.00  0.00    -0.378 C  
HETATM    9  C   UNL     1     -11.444  11.532  64.876  1.00  0.00    -0.123 A  
HETATM   10  C   UNL     1      -9.850  14.343  68.151  1.00  0.00    -0.223 A  
HETATM   11  C   UNL     1      -8.934  14.332  67.087  1.00  0.00    -0.237 A  
HETATM   12  F   UNL     1      -6.208  16.318  68.434  1.00  0.00    -0.110 F  
HETATM   13  C   UNL     1      -9.491  15.051  69.314  1.00  0.00    -0.171 A  
HETATM   14  C   UNL     1      -7.699  14.985  67.188  1.00  0.00    -0.202 A  
HETATM   15  C   UNL     1      -7.377  15.670  68.353  1.00  0.00    -0.116 A  
HETATM   16  C   UNL     1      -8.261  15.708  69.419  1.00  0.00    -0.236 A  
ENDROOT
BRANCH   8  17
HETATM   17  C   UNL     1     -11.244  11.404  69.421  1.00  0.00    -0.333 C  
BRANCH  17  18
HETATM   18  C   UNL     1      -9.770  11.057  69.185  1.00  0.00    -0.076 C  
BRANCH  18  19
HETATM   19  N   UNL     1      -9.393   9.645  69.097  1.00  0.00    -0.163 NA 
HETATM   20  C   UNL     1     -10.864   8.157  67.554  1.00  0.00    -0.109 C  
HETATM   21  C   UNL     1     -10.475   8.657  68.966  1.00  0.00    -0.199 C  
HETATM   22  C   UNL     1      -9.720   8.097  66.519  1.00  0.00    -0.239 C  
HETATM   23  C   UNL     1      -8.915   9.387  66.676  1.00  0.00    -0.170 C  
HETATM   24  C   UNL     1      -8.346   9.452  68.088  1.00  0.00    -0.119 C  
BRANCH  22  25
HETATM   25  N   UNL     1      -8.864   6.902  66.524  1.00  0.00    -0.135 N  
HETATM   26  C   UNL     1      -7.842   6.553  65.607  1.00  0.00    -0.100 C  
HETATM   27  O   UNL     1      -7.424   7.175  64.646  1.00  0.00    -0.083 OA 
HETATM   28  N   UNL     1      -7.352   5.299  66.002  1.00  0.00    -0.080 NA 
HETATM   29  C   UNL     1      -8.048   4.863  67.114  1.00  0.00    -0.107 A  
HETATM   30  C   UNL     1      -7.910   3.674  67.805  1.00  0.00    -0.077 A  
HETATM   31  C   UNL     1      -8.779   3.459  68.870  1.00  0.00    -0.140 A  
HETATM   32  C   UNL     1      -9.742   4.424  69.222  1.00  0.00    -0.252 A  
HETATM   33  C   UNL     1      -9.838   5.637  68.523  1.00  0.00    -0.185 A  
HETATM   34  C   UNL     1      -8.986   5.834  67.453  1.00  0.00    -0.108 A  
ENDBRANCH  22  25
ENDBRANCH  18  19
ENDBRANCH  17  18
ENDBRANCH   8  17
TORSDOF 4
ENDMDL
MODEL      135
REMARK 921   NORMALIZED FREE ENERGY PREDICTED BY IDOCK:   -5.37 KCAL/MOL
REMARK 922        TOTAL FREE ENERGY PREDICTED BY IDOCK:   -7.41 KCAL/MOL
REMARK 923 INTER-LIGAND FREE ENERGY PREDICTED BY IDOCK:   -7.67 KCAL/MOL
REMARK 924 INTRA-LIGAND FREE ENERGY PREDICTED BY IDOCK:    0.26 KCAL/MOL
REMARK 927      BINDING AFFINITY PREDICTED BY RF-SCORE:    0.00 PKD
ROOT
HETATM    1  F   UNL     1     -11.749  13.581  62.582  1.00  0.00     0.074 F  
HETATM    2  C   UNL     1     -11.636  13.221  63.867  1.00  0.00    -0.400 A  
HETATM    3  C   UNL     1     -12.646  12.485  64.469  1.00  0.00    -0.503 A  
HETATM    4  C   UNL     1     -12.534  12.125  65.817  1.00  0.00     0.520 A  
HETATM    5  C   UNL     1     -11.406  12.497  66.577  1.00  0.00    -0.387 A  
HETATM    6  C   UNL     1     -11.344  12.152  68.076  1.00  0.00    -0.353 C  
HETATM    7  C   UNL     1     -10.403  13.242  65.932  1.00  0.00    -0.293 A  
HETATM    8  C   UNL     1     -10.207  11.160  68.474  1.00  0.00    -0.209 C  
HETATM    9  C   UNL     1     -10.515  13.602  64.587  1.00  0.00    -0.442 A  
HETATM   10  C   UNL     1     -11.580  13.313  69.054  1.00  0.00    -0.359 A  
HETATM   11  C   UNL     1     -11.763  14.641  68.636  1.00  0.00    -0.362 A  
HETATM   12  F   UNL     1     -12.533  16.305  71.770  1.00  0.00    -0.491 F  
HETATM   13  C   UNL     1     -11.737  13.033  70.425  1.00  0.00    -0.117 A  
HETATM   14  C   UNL     1     -12.070  15.653  69.554  1.00  0.00    -0.307 A  
HETATM   15  C   UNL     1     -12.212  15.340  70.900  1.00  0.00    -0.355 A  
HETATM   16  C   UNL     1     -12.046  14.039  71.346  1.00  0.00    -0.252 A  
ENDROOT
BRANCH   8  17
HETATM   17  C   UNL     1      -8.733  11.481  68.198  1.00  0.00    -0.157 C  
BRANCH  17  18
HETATM   18  C   UNL     1      -8.341  12.923  67.854  1.00  0.00    -0.170 C  
BRANCH  18  19
HETATM   19  N   UNL     1      -7.605  13.700  68.853  1.00  0.00    -0.067 NA 
HETATM   20  C   UNL     1      -5.244  14.532  68.152  1.00  0.00    -0.118 C  
HETATM   21  C   UNL     1      -6.145  13.529  68.912  1.00  0.00    -0.089 C  
HETATM   22  C   UNL     1      -5.785  15.973  68.036  1.00  0.00    -0.122 C  
HETATM   23  C   UNL     1      -7.268  15.860  67.681  1.00  0.00    -0.182 C  
HETATM   24  C   UNL     1      -7.991  15.113  68.795  1.00  0.00    -0.162 C  
BRANCH  22  25
HETATM   25  N   UNL     1      -5.550  16.878  69.170  1.00  0.00    -0.144 N  
HETATM   26  C   UNL     1      -5.304  16.539  70.523  1.00  0.00    -0.188 C  
HETATM   27  O   UNL     1      -5.194  15.439  71.035  1.00  0.00    -0.145 OA 
HETATM   28  N   UNL     1      -5.197  17.746  71.231  1.00  0.00    -0.398 NA 
HETATM   29  C   UNL     1      -5.386  18.806  70.364  1.00  0.00    -0.223 A  
HETATM   30  C   UNL     1      -5.394  20.159  70.646  1.00  0.00    -0.299 A  
HETATM   31  C   UNL     1      -5.659  21.023  69.587  1.00  0.00    -0.233 A  
HETATM   32  C   UNL     1      -5.896  20.525  68.291  1.00  0.00    -0.318 A  
HETATM   33  C   UNL     1      -5.850  19.148  68.027  1.00  0.00    -0.211 A  
HETATM   34  C   UNL     1      -5.606  18.295  69.087  1.00  0.00    -0.206 A  
ENDBRANCH  22  25
ENDBRANCH  18  19
ENDBRANCH  17  18
ENDBRANCH   8  17
TORSDOF 4
ENDMDL
MODEL      136
REMARK 921   NORMALIZED FREE ENERGY PREDICTED BY IDOCK:   -5.35 KCAL/MOL
REMARK 922        TOTAL FREE ENERGY PREDICTED BY IDOCK:   -7.39 KCAL/MOL
REMARK 923 INTER-LIGAND FREE ENERGY PREDICTED BY IDOCK:   -7.59 KCAL/MOL
REMARK 924 INTRA-LIGAND FREE ENERGY PREDICTED BY IDOCK:    0.20 KCAL/MOL
REMARK 927      BINDING AFFINITY PREDICTED BY RF-SCORE:    0.00 PKD
ROOT
HETATM    1  F   UNL     1     -10.075  10.503  62.351  1.00  0.00    -0.200 F  
HETATM    2  C   UNL     1     -10.399  11.208  63.443  1.00  0.00    -0.360 A  
HETATM    3  C   UNL     1     -11.465  12.094  63.402  1.00  0.00    -0.501 A  
HETATM    4  C   UNL     1     -11.790  12.842  64.539  1.00  0.00    -0.429 A  
HETATM    5  C   UNL     1     -11.051  12.709  65.733  1.00  0.00    -0.332 A  
HETATM    6  C   UNL     1     -11.384  13.599  66.944  1.00  0.00    -0.345 C  
HETATM    7  C   UNL     1      -9.978  11.801  65.736  1.00  0.00    -0.269 A  
HETATM    8  C   UNL     1     -11.905  12.831  68.199  1.00  0.00    -0.372 C  
HETATM    9  C   UNL     1      -9.653  11.054  64.601  1.00  0.00    -0.297 A  
HETATM   10  C   UNL     1     -10.411  14.752  67.232  1.00  0.00    -0.264 A  
HETATM   11  C   UNL     1      -9.231  14.959  66.500  1.00  0.00    -0.314 A  
HETATM   12  F   UNL     1      -8.033  18.090  67.895  1.00  0.00    -0.222 F  
HETATM   13  C   UNL     1     -10.760  15.719  68.194  1.00  0.00    -0.285 A  
HETATM   14  C   UNL     1      -8.421  16.077  66.733  1.00  0.00    -0.295 A  
HETATM   15  C   UNL     1      -8.795  17.007  67.694  1.00  0.00    -0.220 A  
HETATM   16  C   UNL     1      -9.956  16.839  68.430  1.00  0.00    -0.268 A  
ENDROOT
BRANCH   8  17
HETATM   17  C   UNL     1     -11.064  11.740  68.873  1.00  0.00    -0.297 C  
BRANCH  17  18
HETATM   18  C   UNL     1     -11.184  10.296  68.374  1.00  0.00    -0.224 C  
BRANCH  18  19
HETATM   19  N   UNL     1     -10.839   9.211  69.295  1.00  0.00    -0.181 NA 
HETATM   20  C   UNL     1      -9.209   7.403  68.381  1.00  0.00    -0.138 C  
HETATM   21  C   UNL     1     -10.644   7.869  68.726  1.00  0.00    -0.127 C  
HETATM   22  C   UNL     1      -8.083   7.963  69.276  1.00  0.00    -0.126 C  
HETATM   23  C   UNL     1      -8.375   9.451  69.473  1.00  0.00    -0.127 C  
HETATM   24  C   UNL     1      -9.725   9.606  70.164  1.00  0.00    -0.254 C  
BRANCH  22  25
HETATM   25  N   UNL     1      -7.822   7.272  70.548  1.00  0.00    -0.097 N  
HETATM   26  C   UNL     1      -7.015   7.705  71.628  1.00  0.00    -0.061 C  
HETATM   27  O   UNL     1      -6.399   8.747  71.761  1.00  0.00    -0.067 OA 
HETATM   28  N   UNL     1      -7.039   6.681  72.588  1.00  0.00    -0.079 NA 
HETATM   29  C   UNL     1      -7.814   5.635  72.124  1.00  0.00    -0.103 A  
HETATM   30  C   UNL     1      -8.078   4.422  72.734  1.00  0.00    -0.094 A  
HETATM   31  C   UNL     1      -8.858   3.515  72.022  1.00  0.00    -0.129 A  
HETATM   32  C   UNL     1      -9.356   3.838  70.745  1.00  0.00    -0.218 A  
HETATM   33  C   UNL     1      -9.099   5.089  70.164  1.00  0.00    -0.163 A  
HETATM   34  C   UNL     1      -8.307   5.976  70.868  1.00  0.00    -0.126 A  
ENDBRANCH  22  25
ENDBRANCH  18  19
ENDBRANCH  17  18
ENDBRANCH   8  17
TORSDOF 4
ENDMDL
MODEL      137
REMARK 921   NORMALIZED FREE ENERGY PREDICTED BY IDOCK:   -5.33 KCAL/MOL
REMARK 922        TOTAL FREE ENERGY PREDICTED BY IDOCK:   -7.37 KCAL/MOL
REMARK 923 INTER-LIGAND FREE ENERGY PREDICTED BY IDOCK:   -7.11 KCAL/MOL
REMARK 924 INTRA-LIGAND FREE ENERGY PREDICTED BY IDOCK:   -0.26 KCAL/MOL
REMARK 927      BINDING AFFINITY PREDICTED BY RF-SCORE:    0.00 PKD
ROOT
HETATM    1  F   UNL     1     -13.390  10.228  71.939  1.00  0.00    -0.453 F  
HETATM    2  C   UNL     1     -12.625  10.902  71.071  1.00  0.00    -0.417 A  
HETATM    3  C   UNL     1     -12.601  12.289  71.103  1.00  0.00    -0.353 A  
HETATM    4  C   UNL     1     -11.814  12.992  70.183  1.00  0.00    -0.324 A  
HETATM    5  C   UNL     1     -11.038  12.312  69.221  1.00  0.00    -0.220 A  
HETATM    6  C   UNL     1     -10.241  13.112  68.175  1.00  0.00    -0.239 C  
HETATM    7  C   UNL     1     -11.088  10.907  69.220  1.00  0.00    -0.305 A  
HETATM    8  C   UNL     1      -8.692  12.956  68.271  1.00  0.00    -0.168 C  
HETATM    9  C   UNL     1     -11.874  10.205  70.138  1.00  0.00    -0.299 A  
HETATM   10  C   UNL     1     -10.816  13.135  66.751  1.00  0.00    -0.289 A  
HETATM   11  C   UNL     1     -11.958  12.410  66.374  1.00  0.00    -0.346 A  
HETATM   12  F   UNL     1     -12.458  13.536  62.958  1.00  0.00    -0.555 F  
HETATM   13  C   UNL     1     -10.252  14.006  65.798  1.00  0.00    -0.343 A  
HETATM   14  C   UNL     1     -12.503  12.534  65.090  1.00  0.00    -0.451 A  
HETATM   15  C   UNL     1     -11.917  13.399  64.175  1.00  0.00    -0.450 A  
HETATM   16  C   UNL     1     -10.794  14.136  64.516  1.00  0.00    -0.336 A  
ENDROOT
BRANCH   8  17
HETATM   17  C   UNL     1      -8.019  11.583  68.149  1.00  0.00    -0.136 C  
BRANCH  17  18
HETATM   18  C   UNL     1      -7.280  11.231  66.853  1.00  0.00    -0.142 C  
BRANCH  18  19
HETATM   19  N   UNL     1      -6.766   9.870  66.692  1.00  0.00    -0.078 NA 
HETATM   20  C   UNL     1      -8.345   7.948  67.447  1.00  0.00    -0.123 C  
HETATM   21  C   UNL     1      -7.135   8.876  67.712  1.00  0.00    -0.079 C  
HETATM   22  C   UNL     1      -8.604   7.579  65.971  1.00  0.00    -0.151 C  
HETATM   23  C   UNL     1      -8.437   8.864  65.159  1.00  0.00    -0.190 C  
HETATM   24  C   UNL     1      -7.015   9.381  65.332  1.00  0.00    -0.090 C  
BRANCH  22  25
HETATM   25  N   UNL     1      -7.835   6.459  65.407  1.00  0.00    -0.099 N  
HETATM   26  C   UNL     1      -7.759   6.043  64.056  1.00  0.00    -0.105 C  
HETATM   27  O   UNL     1      -8.273   6.536  63.067  1.00  0.00    -0.083 OA 
HETATM   28  N   UNL     1      -6.943   4.902  64.028  1.00  0.00    -0.048 NA 
HETATM   29  C   UNL     1      -6.536   4.597  65.313  1.00  0.00    -0.036 A  
HETATM   30  C   UNL     1      -5.753   3.541  65.741  1.00  0.00    -0.018 A  
HETATM   31  C   UNL     1      -5.530   3.435  67.110  1.00  0.00    -0.020 A  
HETATM   32  C   UNL     1      -6.075   4.376  68.005  1.00  0.00    -0.031 A  
HETATM   33  C   UNL     1      -6.840   5.456  67.540  1.00  0.00    -0.060 A  
HETATM   34  C   UNL     1      -7.074   5.543  66.181  1.00  0.00    -0.068 A  
ENDBRANCH  22  25
ENDBRANCH  18  19
ENDBRANCH  17  18
ENDBRANCH   8  17
TORSDOF 4
ENDMDL
MODEL      138
REMARK 921   NORMALIZED FREE ENERGY PREDICTED BY IDOCK:   -5.32 KCAL/MOL
REMARK 922        TOTAL FREE ENERGY PREDICTED BY IDOCK:   -7.35 KCAL/MOL
REMARK 923 INTER-LIGAND FREE ENERGY PREDICTED BY IDOCK:   -7.00 KCAL/MOL
REMARK 924 INTRA-LIGAND FREE ENERGY PREDICTED BY IDOCK:   -0.35 KCAL/MOL
REMARK 927      BINDING AFFINITY PREDICTED BY RF-SCORE:    0.00 PKD
ROOT
HETATM    1  F   UNL     1     -12.839  13.881  68.799  1.00  0.00     0.008 F  
HETATM    2  C   UNL     1     -11.896  13.141  68.202  1.00  0.00    -0.348 A  
HETATM    3  C   UNL     1     -11.876  13.032  66.819  1.00  0.00    -0.451 A  
HETATM    4  C   UNL     1     -10.899  12.244  66.199  1.00  0.00    -0.314 A  
HETATM    5  C   UNL     1      -9.929  11.558  66.958  1.00  0.00    -0.225 A  
HETATM    6  C   UNL     1      -8.914  10.639  66.253  1.00  0.00    -0.180 C  
HETATM    7  C   UNL     1      -9.981  11.692  68.356  1.00  0.00    -0.201 A  
HETATM    8  C   UNL     1      -7.427  11.097  66.367  1.00  0.00    -0.103 C  
HETATM    9  C   UNL     1     -10.956  12.479  68.976  1.00  0.00    -0.237 A  
HETATM   10  C   UNL     1      -9.152   9.128  66.388  1.00  0.00    -0.211 A  
HETATM   11  C   UNL     1     -10.182   8.582  67.173  1.00  0.00    -0.355 A  
HETATM   12  F   UNL     1      -9.895   5.043  66.414  1.00  0.00    -0.138 F  
HETATM   13  C   UNL     1      -8.386   8.241  65.609  1.00  0.00    -0.154 A  
HETATM   14  C   UNL     1     -10.423   7.203  67.192  1.00  0.00    -0.389 A  
HETATM   15  C   UNL     1      -9.643   6.358  66.414  1.00  0.00    -0.113 A  
HETATM   16  C   UNL     1      -8.624   6.863  65.623  1.00  0.00    -0.119 A  
ENDROOT
BRANCH   8  17
HETATM   17  C   UNL     1      -6.748  11.274  67.731  1.00  0.00    -0.069 C  
BRANCH  17  18
HETATM   18  C   UNL     1      -5.795  12.457  67.937  1.00  0.00    -0.086 C  
BRANCH  18  19
HETATM   19  N   UNL     1      -6.148  13.746  67.341  1.00  0.00    -0.331 NA 
HETATM   20  C   UNL     1      -8.249  14.927  68.317  1.00  0.00    -0.145 C  
HETATM   21  C   UNL     1      -7.577  14.071  67.215  1.00  0.00    -0.070 C  
HETATM   22  C   UNL     1      -7.343  15.966  69.012  1.00  0.00    -0.185 C  
HETATM   23  C   UNL     1      -6.011  15.272  69.292  1.00  0.00    -0.104 C  
HETATM   24  C   UNL     1      -5.390  14.832  67.972  1.00  0.00    -0.115 C  
BRANCH  22  25
HETATM   25  N   UNL     1      -7.167  17.265  68.345  1.00  0.00    -0.210 N  
HETATM   26  C   UNL     1      -7.378  17.583  66.981  1.00  0.00    -0.192 C  
HETATM   27  O   UNL     1      -7.785  16.874  66.078  1.00  0.00    -0.337 OA 
HETATM   28  N   UNL     1      -7.026  18.932  66.820  1.00  0.00    -0.197 NA 
HETATM   29  C   UNL     1      -6.592  19.441  68.030  1.00  0.00    -0.235 A  
HETATM   30  C   UNL     1      -6.125  20.711  68.312  1.00  0.00    -0.368 A  
HETATM   31  C   UNL     1      -5.700  20.952  69.615  1.00  0.00    -0.263 A  
HETATM   32  C   UNL     1      -5.760  19.940  70.592  1.00  0.00    -0.326 A  
HETATM   33  C   UNL     1      -6.269  18.669  70.286  1.00  0.00     0.028 A  
HETATM   34  C   UNL     1      -6.669  18.431  68.984  1.00  0.00    -0.267 A  
ENDBRANCH  22  25
ENDBRANCH  18  19
ENDBRANCH  17  18
ENDBRANCH   8  17
TORSDOF 4
ENDMDL
MODEL      139
REMARK 921   NORMALIZED FREE ENERGY PREDICTED BY IDOCK:   -5.32 KCAL/MOL
REMARK 922        TOTAL FREE ENERGY PREDICTED BY IDOCK:   -7.35 KCAL/MOL
REMARK 923 INTER-LIGAND FREE ENERGY PREDICTED BY IDOCK:   -7.02 KCAL/MOL
REMARK 924 INTRA-LIGAND FREE ENERGY PREDICTED BY IDOCK:   -0.33 KCAL/MOL
REMARK 927      BINDING AFFINITY PREDICTED BY RF-SCORE:    0.00 PKD
ROOT
HETATM    1  F   UNL     1      -5.565  13.197  69.920  1.00  0.00    -0.084 F  
HETATM    2  C   UNL     1      -6.438  13.827  69.123  1.00  0.00    -0.109 A  
HETATM    3  C   UNL     1      -6.008  14.367  67.919  1.00  0.00    -0.149 A  
HETATM    4  C   UNL     1      -6.919  15.040  67.096  1.00  0.00     0.075 A  
HETATM    5  C   UNL     1      -8.273  15.176  67.468  1.00  0.00    -0.196 A  
HETATM    6  C   UNL     1      -9.234  15.984  66.579  1.00  0.00    -0.307 C  
HETATM    7  C   UNL     1      -8.670  14.614  68.694  1.00  0.00    -0.174 A  
HETATM    8  C   UNL     1     -10.391  15.155  65.940  1.00  0.00    -0.344 C  
HETATM    9  C   UNL     1      -7.761  13.943  69.516  1.00  0.00     0.433 A  
HETATM   10  C   UNL     1      -9.625  17.380  67.089  1.00  0.00    -0.265 A  
HETATM   11  C   UNL     1      -9.211  17.884  68.333  1.00  0.00    -0.289 A  
HETATM   12  F   UNL     1     -10.478  21.285  68.212  1.00  0.00     0.034 F  
HETATM   13  C   UNL     1     -10.335  18.247  66.237  1.00  0.00    -0.422 A  
HETATM   14  C   UNL     1      -9.510  19.196  68.718  1.00  0.00    -0.454 A  
HETATM   15  C   UNL     1     -10.217  20.022  67.852  1.00  0.00    -0.405 A  
HETATM   16  C   UNL     1     -10.635  19.560  66.615  1.00  0.00    -0.583 A  
ENDROOT
BRANCH   8  17
HETATM   17  C   UNL     1     -11.392  14.382  66.808  1.00  0.00    -0.360 C  
BRANCH  17  18
HETATM   18  C   UNL     1     -12.301  13.341  66.143  1.00  0.00    -0.358 C  
BRANCH  18  19
HETATM   19  N   UNL     1     -11.918  11.931  66.225  1.00  0.00    -0.503 NA 
HETATM   20  C   UNL     1      -9.367  11.432  66.265  1.00  0.00    -0.228 C  
HETATM   21  C   UNL     1     -10.710  11.508  65.500  1.00  0.00    -0.272 C  
HETATM   22  C   UNL     1      -9.461  11.063  67.761  1.00  0.00    -0.162 C  
HETATM   23  C   UNL     1     -10.625  11.868  68.341  1.00  0.00    -0.239 C  
HETATM   24  C   UNL     1     -11.909  11.478  67.620  1.00  0.00    -0.118 C  
BRANCH  22  25
HETATM   25  N   UNL     1      -9.545   9.636  68.103  1.00  0.00    -0.143 N  
HETATM   26  C   UNL     1      -9.959   9.052  69.325  1.00  0.00    -0.188 C  
HETATM   27  O   UNL     1     -10.370   9.592  70.338  1.00  0.00    -0.237 OA 
HETATM   28  N   UNL     1      -9.816   7.663  69.181  1.00  0.00    -0.168 NA 
HETATM   29  C   UNL     1      -9.314   7.382  67.925  1.00  0.00    -0.134 A  
HETATM   30  C   UNL     1      -8.994   6.152  67.381  1.00  0.00    -0.112 A  
HETATM   31  C   UNL     1      -8.453   6.150  66.099  1.00  0.00    -0.137 A  
HETATM   32  C   UNL     1      -8.257   7.355  65.396  1.00  0.00    -0.135 A  
HETATM   33  C   UNL     1      -8.620   8.587  65.961  1.00  0.00    -0.162 A  
HETATM   34  C   UNL     1      -9.138   8.582  67.242  1.00  0.00    -0.133 A  
ENDBRANCH  22  25
ENDBRANCH  18  19
ENDBRANCH  17  18
ENDBRANCH   8  17
TORSDOF 4
ENDMDL
MODEL      140
REMARK 921   NORMALIZED FREE ENERGY PREDICTED BY IDOCK:   -5.32 KCAL/MOL
REMARK 922        TOTAL FREE ENERGY PREDICTED BY IDOCK:   -7.35 KCAL/MOL
REMARK 923 INTER-LIGAND FREE ENERGY PREDICTED BY IDOCK:   -7.11 KCAL/MOL
REMARK 924 INTRA-LIGAND FREE ENERGY PREDICTED BY IDOCK:   -0.24 KCAL/MOL
REMARK 927      BINDING AFFINITY PREDICTED BY RF-SCORE:    0.00 PKD
ROOT
HETATM    1  F   UNL     1     -12.195  14.282  68.851  1.00  0.00    -0.358 F  
HETATM    2  C   UNL     1     -11.083  13.672  68.420  1.00  0.00    -0.264 A  
HETATM    3  C   UNL     1     -10.199  14.352  67.594  1.00  0.00    -0.229 A  
HETATM    4  C   UNL     1      -9.046  13.706  67.131  1.00  0.00    -0.241 A  
HETATM    5  C   UNL     1      -8.764  12.373  67.494  1.00  0.00    -0.179 A  
HETATM    6  C   UNL     1      -7.528  11.665  66.910  1.00  0.00    -0.131 C  
HETATM    7  C   UNL     1      -9.682  11.718  68.333  1.00  0.00    -0.197 A  
HETATM    8  C   UNL     1      -6.443  11.268  67.958  1.00  0.00    -0.057 C  
HETATM    9  C   UNL     1     -10.833  12.361  68.795  1.00  0.00    -0.263 A  
HETATM   10  C   UNL     1      -7.792  10.628  65.808  1.00  0.00    -0.141 A  
HETATM   11  C   UNL     1      -9.084  10.264  65.393  1.00  0.00    -0.221 A  
HETATM   12  F   UNL     1      -8.370   8.057  62.599  1.00  0.00    -0.169 F  
HETATM   13  C   UNL     1      -6.703  10.094  65.094  1.00  0.00    -0.131 A  
HETATM   14  C   UNL     1      -9.278   9.386  64.320  1.00  0.00    -0.073 A  
HETATM   15  C   UNL     1      -8.179   8.874  63.643  1.00  0.00    -0.172 A  
HETATM   16  C   UNL     1      -6.891   9.218  64.020  1.00  0.00    -0.092 A  
ENDROOT
BRANCH   8  17
HETATM   17  C   UNL     1      -6.771  10.339  69.134  1.00  0.00    -0.058 C  
BRANCH  17  18
HETATM   18  C   UNL     1      -6.469   8.842  69.002  1.00  0.00    -0.047 C  
BRANCH  18  19
HETATM   19  N   UNL     1      -7.484   7.887  69.450  1.00  0.00    -0.088 NA 
HETATM   20  C   UNL     1      -7.648   7.502  72.016  1.00  0.00    -0.084 C  
HETATM   21  C   UNL     1      -7.166   7.049  70.616  1.00  0.00    -0.068 C  
HETATM   22  C   UNL     1      -8.974   8.292  72.051  1.00  0.00    -0.196 C  
HETATM   23  C   UNL     1      -8.918   9.299  70.902  1.00  0.00    -0.273 C  
HETATM   24  C   UNL     1      -8.788   8.544  69.584  1.00  0.00    -0.137 C  
BRANCH  22  25
HETATM   25  N   UNL     1     -10.224   7.519  72.054  1.00  0.00    -0.193 N  
HETATM   26  C   UNL     1     -10.382   6.112  72.101  1.00  0.00    -0.197 C  
HETATM   27  O   UNL     1      -9.532   5.243  72.189  1.00  0.00    -0.142 OA 
HETATM   28  N   UNL     1     -11.760   5.855  72.030  1.00  0.00    -0.246 NA 
HETATM   29  C   UNL     1     -12.445   7.051  71.924  1.00  0.00    -0.311 A  
HETATM   30  C   UNL     1     -13.806   7.256  71.798  1.00  0.00    -0.420 A  
HETATM   31  C   UNL     1     -14.236   8.572  71.657  1.00  0.00    -0.496 A  
HETATM   32  C   UNL     1     -13.314   9.636  71.655  1.00  0.00    -0.485 A  
HETATM   33  C   UNL     1     -11.940   9.401  71.816  1.00  0.00    -0.452 A  
HETATM   34  C   UNL     1     -11.519   8.090  71.935  1.00  0.00    -0.291 A  
ENDBRANCH  22  25
ENDBRANCH  18  19
ENDBRANCH  17  18
ENDBRANCH   8  17
TORSDOF 4
ENDMDL
MODEL      141
REMARK 921   NORMALIZED FREE ENERGY PREDICTED BY IDOCK:   -5.27 KCAL/MOL
REMARK 922        TOTAL FREE ENERGY PREDICTED BY IDOCK:   -7.30 KCAL/MOL
REMARK 923 INTER-LIGAND FREE ENERGY PREDICTED BY IDOCK:   -7.29 KCAL/MOL
REMARK 924 INTRA-LIGAND FREE ENERGY PREDICTED BY IDOCK:   -0.01 KCAL/MOL
REMARK 927      BINDING AFFINITY PREDICTED BY RF-SCORE:    0.00 PKD
ROOT
HETATM    1  F   UNL     1     -10.075  10.503  62.351  1.00  0.00    -0.200 F  
HETATM    2  C   UNL     1     -10.399  11.208  63.443  1.00  0.00    -0.360 A  
HETATM    3  C   UNL     1     -11.465  12.094  63.402  1.00  0.00    -0.501 A  
HETATM    4  C   UNL     1     -11.790  12.842  64.539  1.00  0.00    -0.429 A  
HETATM    5  C   UNL     1     -11.051  12.709  65.733  1.00  0.00    -0.332 A  
HETATM    6  C   UNL     1     -11.384  13.599  66.944  1.00  0.00    -0.345 C  
HETATM    7  C   UNL     1      -9.978  11.801  65.736  1.00  0.00    -0.269 A  
HETATM    8  C   UNL     1     -11.905  12.831  68.199  1.00  0.00    -0.372 C  
HETATM    9  C   UNL     1      -9.653  11.054  64.601  1.00  0.00    -0.297 A  
HETATM   10  C   UNL     1     -10.411  14.752  67.232  1.00  0.00    -0.264 A  
HETATM   11  C   UNL     1      -9.231  14.959  66.500  1.00  0.00    -0.314 A  
HETATM   12  F   UNL     1      -8.033  18.090  67.895  1.00  0.00    -0.222 F  
HETATM   13  C   UNL     1     -10.760  15.719  68.194  1.00  0.00    -0.285 A  
HETATM   14  C   UNL     1      -8.421  16.077  66.733  1.00  0.00    -0.295 A  
HETATM   15  C   UNL     1      -8.795  17.007  67.694  1.00  0.00    -0.220 A  
HETATM   16  C   UNL     1      -9.956  16.839  68.430  1.00  0.00    -0.268 A  
ENDROOT
BRANCH   8  17
HETATM   17  C   UNL     1     -11.064  11.740  68.873  1.00  0.00    -0.297 C  
BRANCH  17  18
HETATM   18  C   UNL     1     -11.184  10.296  68.374  1.00  0.00    -0.224 C  
BRANCH  18  19
HETATM   19  N   UNL     1     -10.839   9.211  69.295  1.00  0.00    -0.181 NA 
HETATM   20  C   UNL     1      -9.209   7.403  68.381  1.00  0.00    -0.138 C  
HETATM   21  C   UNL     1     -10.644   7.869  68.726  1.00  0.00    -0.127 C  
HETATM   22  C   UNL     1      -8.083   7.963  69.276  1.00  0.00    -0.126 C  
HETATM   23  C   UNL     1      -8.375   9.451  69.473  1.00  0.00    -0.127 C  
HETATM   24  C   UNL     1      -9.725   9.606  70.164  1.00  0.00    -0.254 C  
BRANCH  22  25
HETATM   25  N   UNL     1      -7.822   7.272  70.548  1.00  0.00    -0.097 N  
HETATM   26  C   UNL     1      -8.478   6.134  71.075  1.00  0.00    -0.128 C  
HETATM   27  O   UNL     1      -9.365   5.458  70.583  1.00  0.00    -0.153 OA 
HETATM   28  N   UNL     1      -7.911   5.885  72.334  1.00  0.00    -0.102 NA 
HETATM   29  C   UNL     1      -6.947   6.839  72.601  1.00  0.00    -0.071 A  
HETATM   30  C   UNL     1      -6.170   6.986  73.735  1.00  0.00    -0.066 A  
HETATM   31  C   UNL     1      -5.302   8.073  73.768  1.00  0.00    -0.049 A  
HETATM   32  C   UNL     1      -5.223   8.967  72.683  1.00  0.00    -0.069 A  
HETATM   33  C   UNL     1      -6.001   8.776  71.531  1.00  0.00    -0.056 A  
HETATM   34  C   UNL     1      -6.876   7.706  71.514  1.00  0.00    -0.049 A  
ENDBRANCH  22  25
ENDBRANCH  18  19
ENDBRANCH  17  18
ENDBRANCH   8  17
TORSDOF 4
ENDMDL
MODEL      142
REMARK 921   NORMALIZED FREE ENERGY PREDICTED BY IDOCK:   -5.25 KCAL/MOL
REMARK 922        TOTAL FREE ENERGY PREDICTED BY IDOCK:   -7.26 KCAL/MOL
REMARK 923 INTER-LIGAND FREE ENERGY PREDICTED BY IDOCK:   -6.08 KCAL/MOL
REMARK 924 INTRA-LIGAND FREE ENERGY PREDICTED BY IDOCK:   -1.19 KCAL/MOL
REMARK 927      BINDING AFFINITY PREDICTED BY RF-SCORE:    0.00 PKD
ROOT
HETATM    1  F   UNL     1     -13.178  13.364  64.487  1.00  0.00    -0.084 F  
HETATM    2  C   UNL     1     -12.139  12.542  64.686  1.00  0.00    -0.428 A  
HETATM    3  C   UNL     1     -11.599  11.840  63.619  1.00  0.00    -0.521 A  
HETATM    4  C   UNL     1     -10.525  10.969  63.833  1.00  0.00    -0.422 A  
HETATM    5  C   UNL     1      -9.977  10.793  65.121  1.00  0.00    -0.351 A  
HETATM    6  C   UNL     1      -8.845   9.773  65.339  1.00  0.00    -0.199 C  
HETATM    7  C   UNL     1     -10.550  11.522  66.177  1.00  0.00    -0.314 A  
HETATM    8  C   UNL     1      -7.484  10.389  65.788  1.00  0.00    -0.147 C  
HETATM    9  C   UNL     1     -11.623  12.391  65.964  1.00  0.00    -0.455 A  
HETATM   10  C   UNL     1      -9.235   8.458  66.032  1.00  0.00    -0.247 A  
HETATM   11  C   UNL     1     -10.527   8.206  66.524  1.00  0.00    -0.041 A  
HETATM   12  F   UNL     1     -10.251   4.746  67.590  1.00  0.00    -0.205 F  
HETATM   13  C   UNL     1      -8.301   7.406  66.082  1.00  0.00    -0.139 A  
HETATM   14  C   UNL     1     -10.865   6.959  67.062  1.00  0.00    -0.436 A  
HETATM   15  C   UNL     1      -9.915   5.946  67.100  1.00  0.00    -0.159 A  
HETATM   16  C   UNL     1      -8.634   6.158  66.617  1.00  0.00    -0.118 A  
ENDROOT
BRANCH   8  17
HETATM   17  C   UNL     1      -7.368  11.218  67.074  1.00  0.00    -0.136 C  
BRANCH  17  18
HETATM   18  C   UNL     1      -6.367  10.782  68.150  1.00  0.00    -0.057 C  
BRANCH  18  19
HETATM   19  N   UNL     1      -6.884  10.403  69.466  1.00  0.00    -0.079 NA 
HETATM   20  C   UNL     1      -9.129   9.092  69.486  1.00  0.00    -0.151 C  
HETATM   21  C   UNL     1      -8.342  10.414  69.656  1.00  0.00    -0.068 C  
HETATM   22  C   UNL     1      -8.373   7.801  69.871  1.00  0.00    -0.130 C  
HETATM   23  C   UNL     1      -6.963   7.928  69.296  1.00  0.00    -0.056 C  
HETATM   24  C   UNL     1      -6.280   9.143  69.913  1.00  0.00    -0.038 C  
BRANCH  22  25
HETATM   25  N   UNL     1      -8.365   7.419  71.290  1.00  0.00    -0.109 N  
HETATM   26  C   UNL     1      -9.138   7.960  72.346  1.00  0.00    -0.172 C  
HETATM   27  O   UNL     1      -9.997   8.823  72.309  1.00  0.00    -0.308 OA 
HETATM   28  N   UNL     1      -8.736   7.304  73.520  1.00  0.00    -0.145 NA 
HETATM   29  C   UNL     1      -7.736   6.398  73.222  1.00  0.00    -0.097 A  
HETATM   30  C   UNL     1      -7.040   5.569  74.081  1.00  0.00    -0.082 A  
HETATM   31  C   UNL     1      -6.038   4.781  73.524  1.00  0.00    -0.030 A  
HETATM   32  C   UNL     1      -5.766   4.829  72.143  1.00  0.00    -0.012 A  
HETATM   33  C   UNL     1      -6.511   5.656  71.288  1.00  0.00    -0.044 A  
HETATM   34  C   UNL     1      -7.490   6.452  71.853  1.00  0.00    -0.094 A  
ENDBRANCH  22  25
ENDBRANCH  18  19
ENDBRANCH  17  18
ENDBRANCH   8  17
TORSDOF 4
ENDMDL
MODEL      143
REMARK 921   NORMALIZED FREE ENERGY PREDICTED BY IDOCK:   -5.24 KCAL/MOL
REMARK 922        TOTAL FREE ENERGY PREDICTED BY IDOCK:   -7.25 KCAL/MOL
REMARK 923 INTER-LIGAND FREE ENERGY PREDICTED BY IDOCK:   -7.54 KCAL/MOL
REMARK 924 INTRA-LIGAND FREE ENERGY PREDICTED BY IDOCK:    0.29 KCAL/MOL
REMARK 927      BINDING AFFINITY PREDICTED BY RF-SCORE:    0.00 PKD
ROOT
HETATM    1  F   UNL     1     -12.355  11.635  62.868  1.00  0.00    -0.484 F  
HETATM    2  C   UNL     1     -12.127  12.137  64.089  1.00  0.00    -0.409 A  
HETATM    3  C   UNL     1     -12.743  13.318  64.476  1.00  0.00    -0.229 A  
HETATM    4  C   UNL     1     -12.490  13.849  65.746  1.00  0.00    -0.530 A  
HETATM    5  C   UNL     1     -11.619  13.200  66.645  1.00  0.00    -0.403 A  
HETATM    6  C   UNL     1     -11.302  13.846  68.007  1.00  0.00    -0.317 C  
HETATM    7  C   UNL     1     -11.014  12.005  66.218  1.00  0.00    -0.340 A  
HETATM    8  C   UNL     1     -11.790  13.035  69.247  1.00  0.00    -0.370 C  
HETATM    9  C   UNL     1     -11.266  11.475  64.950  1.00  0.00    -0.242 A  
HETATM   10  C   UNL     1      -9.918  14.498  68.147  1.00  0.00    -0.220 A  
HETATM   11  C   UNL     1      -8.944  14.451  67.136  1.00  0.00    -0.245 A  
HETATM   12  F   UNL     1      -6.342  16.574  68.518  1.00  0.00    -0.121 F  
HETATM   13  C   UNL     1      -9.640  15.276  69.286  1.00  0.00    -0.249 A  
HETATM   14  C   UNL     1      -7.732  15.140  67.267  1.00  0.00    -0.241 A  
HETATM   15  C   UNL     1      -7.490  15.894  68.409  1.00  0.00    -0.127 A  
HETATM   16  C   UNL     1      -8.432  15.968  69.422  1.00  0.00    -0.146 A  
ENDROOT
BRANCH   8  17
HETATM   17  C   UNL     1     -11.316  11.598  69.499  1.00  0.00    -0.328 C  
BRANCH  17  18
HETATM   18  C   UNL     1      -9.902  11.198  69.065  1.00  0.00    -0.114 C  
BRANCH  18  19
HETATM   19  N   UNL     1      -9.255  10.078  69.752  1.00  0.00    -0.219 NA 
HETATM   20  C   UNL     1     -10.838   8.285  70.771  1.00  0.00    -0.252 C  
HETATM   21  C   UNL     1      -9.926   9.525  70.938  1.00  0.00    -0.238 C  
HETATM   22  C   UNL     1     -10.435   7.294  69.658  1.00  0.00    -0.231 C  
HETATM   23  C   UNL     1     -10.057   8.133  68.437  1.00  0.00    -0.226 C  
HETATM   24  C   UNL     1      -8.880   9.032  68.794  1.00  0.00    -0.137 C  
BRANCH  22  25
HETATM   25  N   UNL     1      -9.412   6.290  69.983  1.00  0.00    -0.154 N  
HETATM   26  C   UNL     1      -8.570   5.579  69.093  1.00  0.00    -0.104 C  
HETATM   27  O   UNL     1      -8.479   5.668  67.881  1.00  0.00    -0.104 OA 
HETATM   28  N   UNL     1      -7.805   4.699  69.873  1.00  0.00    -0.061 NA 
HETATM   29  C   UNL     1      -8.161   4.835  71.202  1.00  0.00    -0.092 A  
HETATM   30  C   UNL     1      -7.681   4.142  72.298  1.00  0.00    -0.080 A  
HETATM   31  C   UNL     1      -8.250   4.441  73.532  1.00  0.00    -0.094 A  
HETATM   32  C   UNL     1      -9.260   5.416  73.644  1.00  0.00    -0.130 A  
HETATM   33  C   UNL     1      -9.706   6.126  72.519  1.00  0.00    -0.166 A  
HETATM   34  C   UNL     1      -9.151   5.809  71.293  1.00  0.00    -0.140 A  
ENDBRANCH  22  25
ENDBRANCH  18  19
ENDBRANCH  17  18
ENDBRANCH   8  17
TORSDOF 4
ENDMDL
MODEL      144
REMARK 921   NORMALIZED FREE ENERGY PREDICTED BY IDOCK:   -5.23 KCAL/MOL
REMARK 922        TOTAL FREE ENERGY PREDICTED BY IDOCK:   -7.23 KCAL/MOL
REMARK 923 INTER-LIGAND FREE ENERGY PREDICTED BY IDOCK:   -7.64 KCAL/MOL
REMARK 924 INTRA-LIGAND FREE ENERGY PREDICTED BY IDOCK:    0.41 KCAL/MOL
REMARK 927      BINDING AFFINITY PREDICTED BY RF-SCORE:    0.00 PKD
ROOT
HETATM    1  F   UNL     1     -10.235  10.412  62.738  1.00  0.00    -0.264 F  
HETATM    2  C   UNL     1     -10.558  11.270  63.715  1.00  0.00    -0.392 A  
HETATM    3  C   UNL     1     -11.731  12.005  63.627  1.00  0.00    -0.587 A  
HETATM    4  C   UNL     1     -12.057  12.914  64.641  1.00  0.00    -0.474 A  
HETATM    5  C   UNL     1     -11.213  13.094  65.756  1.00  0.00    -0.309 A  
HETATM    6  C   UNL     1     -11.560  14.154  66.817  1.00  0.00    -0.409 C  
HETATM    7  C   UNL     1     -10.034  12.331  65.809  1.00  0.00    -0.273 A  
HETATM    8  C   UNL     1     -11.872  13.584  68.235  1.00  0.00    -0.401 C  
HETATM    9  C   UNL     1      -9.707  11.424  64.798  1.00  0.00    -0.280 A  
HETATM   10  C   UNL     1     -10.726  15.444  66.792  1.00  0.00    -0.310 A  
HETATM   11  C   UNL     1      -9.647  15.640  65.915  1.00  0.00    -0.385 A  
HETATM   12  F   UNL     1      -8.758  19.094  66.597  1.00  0.00    -0.273 F  
HETATM   13  C   UNL     1     -11.119  16.529  67.597  1.00  0.00    -0.127 A  
HETATM   14  C   UNL     1      -8.973  16.867  65.860  1.00  0.00    -0.075 A  
HETATM   15  C   UNL     1      -9.386  17.914  66.674  1.00  0.00    -0.286 A  
HETATM   16  C   UNL     1     -10.452  17.758  67.544  1.00  0.00    -0.376 A  
ENDROOT
BRANCH   8  17
HETATM   17  C   UNL     1     -10.843  12.743  69.002  1.00  0.00    -0.192 C  
BRANCH  17  18
HETATM   18  C   UNL     1     -11.178  11.285  69.336  1.00  0.00    -0.280 C  
BRANCH  18  19
HETATM   19  N   UNL     1     -10.080  10.320  69.409  1.00  0.00    -0.224 NA 
HETATM   20  C   UNL     1     -10.703   7.930  70.222  1.00  0.00    -0.236 C  
HETATM   21  C   UNL     1     -10.110   9.333  70.499  1.00  0.00    -0.255 C  
HETATM   22  C   UNL     1     -10.527   7.394  68.785  1.00  0.00    -0.199 C  
HETATM   23  C   UNL     1     -10.840   8.554  67.840  1.00  0.00    -0.045 C  
HETATM   24  C   UNL     1      -9.859   9.690  68.103  1.00  0.00    -0.150 C  
BRANCH  22  25
HETATM   25  N   UNL     1      -9.253   6.736  68.459  1.00  0.00    -0.129 N  
HETATM   26  C   UNL     1      -9.021   5.692  67.531  1.00  0.00    -0.107 C  
HETATM   27  O   UNL     1      -9.804   5.140  66.779  1.00  0.00    -0.150 OA 
HETATM   28  N   UNL     1      -7.657   5.370  67.616  1.00  0.00    -0.087 NA 
HETATM   29  C   UNL     1      -7.056   6.166  68.572  1.00  0.00    -0.082 A  
HETATM   30  C   UNL     1      -5.739   6.159  68.994  1.00  0.00    -0.019 A  
HETATM   31  C   UNL     1      -5.401   7.039  70.018  1.00  0.00    -0.019 A  
HETATM   32  C   UNL     1      -6.365   7.899  70.579  1.00  0.00    -0.037 A  
HETATM   33  C   UNL     1      -7.687   7.907  70.108  1.00  0.00    -0.088 A  
HETATM   34  C   UNL     1      -8.020   7.016  69.106  1.00  0.00    -0.119 A  
ENDBRANCH  22  25
ENDBRANCH  18  19
ENDBRANCH  17  18
ENDBRANCH   8  17
TORSDOF 4
ENDMDL
MODEL      145
REMARK 921   NORMALIZED FREE ENERGY PREDICTED BY IDOCK:   -5.22 KCAL/MOL
REMARK 922        TOTAL FREE ENERGY PREDICTED BY IDOCK:   -7.23 KCAL/MOL
REMARK 923 INTER-LIGAND FREE ENERGY PREDICTED BY IDOCK:   -5.96 KCAL/MOL
REMARK 924 INTRA-LIGAND FREE ENERGY PREDICTED BY IDOCK:   -1.28 KCAL/MOL
REMARK 927      BINDING AFFINITY PREDICTED BY RF-SCORE:    0.00 PKD
ROOT
HETATM    1  F   UNL     1     -11.988  12.636  67.030  1.00  0.00    -0.410 F  
HETATM    2  C   UNL     1     -11.747  11.819  68.063  1.00  0.00    -0.293 A  
HETATM    3  C   UNL     1     -11.871  12.293  69.361  1.00  0.00    -0.370 A  
HETATM    4  C   UNL     1     -11.602  11.441  70.439  1.00  0.00    -0.267 A  
HETATM    5  C   UNL     1     -11.209  10.104  70.229  1.00  0.00    -0.387 A  
HETATM    6  C   UNL     1     -10.847   9.213  71.432  1.00  0.00    -0.419 C  
HETATM    7  C   UNL     1     -11.094   9.660  68.900  1.00  0.00    -0.097 A  
HETATM    8  C   UNL     1     -11.793   7.992  71.651  1.00  0.00    -0.329 C  
HETATM    9  C   UNL     1     -11.362  10.510  67.824  1.00  0.00    -0.267 A  
HETATM   10  C   UNL     1      -9.352   8.939  71.654  1.00  0.00    -0.328 A  
HETATM   11  C   UNL     1      -8.353   9.394  70.778  1.00  0.00    -0.180 A  
HETATM   12  F   UNL     1      -5.329   8.414  72.534  1.00  0.00    -0.035 F  
HETATM   13  C   UNL     1      -8.940   8.305  72.841  1.00  0.00    -0.324 A  
HETATM   14  C   UNL     1      -6.996   9.204  71.068  1.00  0.00    -0.102 A  
HETATM   15  C   UNL     1      -6.627   8.569  72.247  1.00  0.00    -0.084 A  
HETATM   16  C   UNL     1      -7.587   8.115  73.137  1.00  0.00    -0.197 A  
ENDROOT
BRANCH   8  17
HETATM   17  C   UNL     1     -11.990   6.929  70.562  1.00  0.00    -0.358 C  
BRANCH  17  18
HETATM   18  C   UNL     1     -11.198   5.620  70.652  1.00  0.00    -0.019 C  
BRANCH  18  19
HETATM   19  N   UNL     1     -10.496   5.149  69.456  1.00  0.00    -0.230 NA 
HETATM   20  C   UNL     1      -9.085   6.920  68.178  1.00  0.00    -0.124 C  
HETATM   21  C   UNL     1     -10.377   6.079  68.324  1.00  0.00    -0.207 C  
HETATM   22  C   UNL     1      -7.788   6.259  68.693  1.00  0.00    -0.102 C  
HETATM   23  C   UNL     1      -8.127   5.607  70.034  1.00  0.00    -0.106 C  
HETATM   24  C   UNL     1      -9.206   4.553  69.816  1.00  0.00    -0.125 C  
BRANCH  22  25
HETATM   25  N   UNL     1      -7.090   5.337  67.785  1.00  0.00    -0.066 N  
HETATM   26  C   UNL     1      -6.008   4.472  68.078  1.00  0.00    -0.027 C  
HETATM   27  O   UNL     1      -5.447   4.272  69.141  1.00  0.00    -0.011 OA 
HETATM   28  N   UNL     1      -5.659   3.837  66.876  1.00  0.00    -0.021 NA 
HETATM   29  C   UNL     1      -6.476   4.295  65.860  1.00  0.00    -0.037 A  
HETATM   30  C   UNL     1      -6.455   3.958  64.520  1.00  0.00    -0.042 A  
HETATM   31  C   UNL     1      -7.364   4.609  63.691  1.00  0.00    -0.054 A  
HETATM   32  C   UNL     1      -8.265   5.558  64.213  1.00  0.00    -0.124 A  
HETATM   33  C   UNL     1      -8.285   5.857  65.583  1.00  0.00    -0.134 A  
HETATM   34  C   UNL     1      -7.366   5.222  66.396  1.00  0.00    -0.082 A  
ENDBRANCH  22  25
ENDBRANCH  18  19
ENDBRANCH  17  18
ENDBRANCH   8  17
TORSDOF 4
ENDMDL
MODEL      146
REMARK 921   NORMALIZED FREE ENERGY PREDICTED BY IDOCK:   -5.19 KCAL/MOL
REMARK 922        TOTAL FREE ENERGY PREDICTED BY IDOCK:   -7.19 KCAL/MOL
REMARK 923 INTER-LIGAND FREE ENERGY PREDICTED BY IDOCK:   -7.01 KCAL/MOL
REMARK 924 INTRA-LIGAND FREE ENERGY PREDICTED BY IDOCK:   -0.17 KCAL/MOL
REMARK 927      BINDING AFFINITY PREDICTED BY RF-SCORE:    0.00 PKD
ROOT
HETATM    1  F   UNL     1     -10.409  18.288  69.378  1.00  0.00    -0.347 F  
HETATM    2  C   UNL     1     -10.112  17.145  68.746  1.00  0.00    -0.329 A  
HETATM    3  C   UNL     1      -9.210  17.153  67.692  1.00  0.00    -0.238 A  
HETATM    4  C   UNL     1      -8.915  15.960  67.023  1.00  0.00    -0.239 A  
HETATM    5  C   UNL     1      -9.518  14.744  67.404  1.00  0.00    -0.207 A  
HETATM    6  C   UNL     1      -9.232  13.461  66.601  1.00  0.00    -0.223 C  
HETATM    7  C   UNL     1     -10.427  14.776  68.476  1.00  0.00    -0.249 A  
HETATM    8  C   UNL     1      -8.489  12.343  67.396  1.00  0.00    -0.179 C  
HETATM    9  C   UNL     1     -10.722  15.966  69.145  1.00  0.00    -0.259 A  
HETATM   10  C   UNL     1     -10.350  12.977  65.666  1.00  0.00    -0.294 A  
HETATM   11  C   UNL     1     -11.606  13.600  65.588  1.00  0.00    -0.342 A  
HETATM   12  F   UNL     1     -13.171  11.772  62.869  1.00  0.00    -0.487 F  
HETATM   13  C   UNL     1     -10.082  11.933  64.760  1.00  0.00    -0.295 A  
HETATM   14  C   UNL     1     -12.563  13.184  64.654  1.00  0.00    -0.384 A  
HETATM   15  C   UNL     1     -12.264  12.148  63.779  1.00  0.00    -0.531 A  
HETATM   16  C   UNL     1     -11.033  11.515  63.824  1.00  0.00    -0.485 A  
ENDROOT
BRANCH   8  17
HETATM   17  C   UNL     1      -9.083  11.746  68.679  1.00  0.00    -0.075 C  
BRANCH  17  18
HETATM   18  C   UNL     1      -8.622  10.357  69.133  1.00  0.00    -0.164 C  
BRANCH  18  19
HETATM   19  N   UNL     1      -9.189   9.183  68.467  1.00  0.00    -0.136 NA 
HETATM   20  C   UNL     1      -7.938   8.347  66.347  1.00  0.00    -0.099 C  
HETATM   21  C   UNL     1      -9.107   9.125  67.000  1.00  0.00    -0.123 C  
HETATM   22  C   UNL     1      -7.412   7.130  67.136  1.00  0.00    -0.098 C  
HETATM   23  C   UNL     1      -7.318   7.560  68.600  1.00  0.00    -0.095 C  
HETATM   24  C   UNL     1      -8.705   7.949  69.095  1.00  0.00    -0.138 C  
BRANCH  22  25
HETATM   25  N   UNL     1      -8.128   5.856  66.973  1.00  0.00    -0.102 N  
HETATM   26  C   UNL     1      -9.499   5.655  66.681  1.00  0.00    -0.147 C  
HETATM   27  O   UNL     1     -10.370   6.479  66.462  1.00  0.00    -0.156 OA 
HETATM   28  N   UNL     1      -9.715   4.269  66.679  1.00  0.00    -0.208 NA 
HETATM   29  C   UNL     1      -8.532   3.619  66.976  1.00  0.00    -0.105 A  
HETATM   30  C   UNL     1      -8.304   2.262  67.108  1.00  0.00    -0.092 A  
HETATM   31  C   UNL     1      -7.017   1.870  67.466  1.00  0.00    -0.039 A  
HETATM   32  C   UNL     1      -6.003   2.825  67.670  1.00  0.00    -0.027 A  
HETATM   33  C   UNL     1      -6.254   4.195  67.498  1.00  0.00    -0.036 A  
HETATM   34  C   UNL     1      -7.540   4.578  67.163  1.00  0.00    -0.086 A  
ENDBRANCH  22  25
ENDBRANCH  18  19
ENDBRANCH  17  18
ENDBRANCH   8  17
TORSDOF 4
ENDMDL
MODEL      147
REMARK 921   NORMALIZED FREE ENERGY PREDICTED BY IDOCK:   -5.18 KCAL/MOL
REMARK 922        TOTAL FREE ENERGY PREDICTED BY IDOCK:   -7.17 KCAL/MOL
REMARK 923 INTER-LIGAND FREE ENERGY PREDICTED BY IDOCK:   -6.72 KCAL/MOL
REMARK 924 INTRA-LIGAND FREE ENERGY PREDICTED BY IDOCK:   -0.45 KCAL/MOL
REMARK 927      BINDING AFFINITY PREDICTED BY RF-SCORE:    0.00 PKD
ROOT
HETATM    1  F   UNL     1      -7.108  10.038  64.486  1.00  0.00    -0.120 F  
HETATM    2  C   UNL     1      -7.180   8.728  64.760  1.00  0.00    -0.091 A  
HETATM    3  C   UNL     1      -6.284   7.850  64.169  1.00  0.00    -0.057 A  
HETATM    4  C   UNL     1      -6.372   6.480  64.443  1.00  0.00    -0.037 A  
HETATM    5  C   UNL     1      -7.359   5.975  65.315  1.00  0.00    -0.076 A  
HETATM    6  C   UNL     1      -7.480   4.456  65.539  1.00  0.00    -0.081 C  
HETATM    7  C   UNL     1      -8.249   6.896  65.894  1.00  0.00    -0.129 A  
HETATM    8  C   UNL     1      -7.182   3.983  66.996  1.00  0.00    -0.068 C  
HETATM    9  C   UNL     1      -8.161   8.263  65.621  1.00  0.00    -0.134 A  
HETATM   10  C   UNL     1      -8.656   3.755  64.843  1.00  0.00    -0.113 A  
HETATM   11  C   UNL     1      -9.631   4.446  64.105  1.00  0.00    -0.067 A  
HETATM   12  F   UNL     1     -11.599   1.716  62.742  1.00  0.00    -0.222 F  
HETATM   13  C   UNL     1      -8.710   2.348  64.840  1.00  0.00    -0.111 A  
HETATM   14  C   UNL     1     -10.632   3.759  63.408  1.00  0.00    -0.234 A  
HETATM   15  C   UNL     1     -10.657   2.370  63.432  1.00  0.00    -0.200 A  
HETATM   16  C   UNL     1      -9.707   1.657  64.144  1.00  0.00    -0.115 A  
ENDROOT
BRANCH   8  17
HETATM   17  C   UNL     1      -7.992   4.509  68.187  1.00  0.00    -0.080 C  
BRANCH  17  18
HETATM   18  C   UNL     1      -9.503   4.253  68.228  1.00  0.00    -0.154 C  
BRANCH  18  19
HETATM   19  N   UNL     1     -10.276   4.828  69.329  1.00  0.00    -0.150 NA 
HETATM   20  C   UNL     1      -8.928   6.167  71.104  1.00  0.00    -0.144 C  
HETATM   21  C   UNL     1      -9.645   4.870  70.657  1.00  0.00    -0.186 C  
HETATM   22  C   UNL     1      -9.513   7.486  70.555  1.00  0.00    -0.164 C  
HETATM   23  C   UNL     1      -9.814   7.252  69.074  1.00  0.00    -0.165 C  
HETATM   24  C   UNL     1     -10.834   6.129  68.944  1.00  0.00    -0.340 C  
BRANCH  22  25
HETATM   25  N   UNL     1     -10.656   8.071  71.271  1.00  0.00    -0.207 N  
HETATM   26  C   UNL     1     -11.444   7.481  72.289  1.00  0.00    -0.303 C  
HETATM   27  O   UNL     1     -11.328   6.390  72.819  1.00  0.00    -0.251 OA 
HETATM   28  N   UNL     1     -12.444   8.409  72.618  1.00  0.00    -0.290 NA 
HETATM   29  C   UNL     1     -12.305   9.533  71.826  1.00  0.00    -0.394 A  
HETATM   30  C   UNL     1     -13.092  10.670  71.797  1.00  0.00    -0.571 A  
HETATM   31  C   UNL     1     -12.760  11.644  70.861  1.00  0.00    -0.351 A  
HETATM   32  C   UNL     1     -11.662  11.469  69.996  1.00  0.00    -0.414 A  
HETATM   33  C   UNL     1     -10.862  10.319  70.068  1.00  0.00    -0.364 A  
HETATM   34  C   UNL     1     -11.210   9.347  70.986  1.00  0.00    -0.342 A  
ENDBRANCH  22  25
ENDBRANCH  18  19
ENDBRANCH  17  18
ENDBRANCH   8  17
TORSDOF 4
ENDMDL
MODEL      148
REMARK 921   NORMALIZED FREE ENERGY PREDICTED BY IDOCK:   -5.17 KCAL/MOL
REMARK 922        TOTAL FREE ENERGY PREDICTED BY IDOCK:   -7.17 KCAL/MOL
REMARK 923 INTER-LIGAND FREE ENERGY PREDICTED BY IDOCK:   -6.99 KCAL/MOL
REMARK 924 INTRA-LIGAND FREE ENERGY PREDICTED BY IDOCK:   -0.18 KCAL/MOL
REMARK 927      BINDING AFFINITY PREDICTED BY RF-SCORE:    0.00 PKD
ROOT
HETATM    1  F   UNL     1     -14.088  10.301  72.791  1.00  0.00    -0.080 F  
HETATM    2  C   UNL     1     -13.276   9.441  72.161  1.00  0.00    -0.460 A  
HETATM    3  C   UNL     1     -13.492   8.076  72.280  1.00  0.00    -0.125 A  
HETATM    4  C   UNL     1     -12.632   7.179  71.635  1.00  0.00    -0.410 A  
HETATM    5  C   UNL     1     -11.547   7.641  70.861  1.00  0.00    -0.299 A  
HETATM    6  C   UNL     1     -10.575   6.631  70.226  1.00  0.00    -0.265 C  
HETATM    7  C   UNL     1     -11.361   9.031  70.765  1.00  0.00    -0.329 A  
HETATM    8  C   UNL     1     -10.564   6.623  68.666  1.00  0.00    -0.274 C  
HETATM    9  C   UNL     1     -12.219   9.926  71.408  1.00  0.00    -0.499 A  
HETATM   10  C   UNL     1      -9.200   6.492  70.897  1.00  0.00    -0.155 A  
HETATM   11  C   UNL     1      -8.793   7.287  71.980  1.00  0.00    -0.138 A  
HETATM   12  F   UNL     1      -5.590   5.801  72.829  1.00  0.00    -0.023 F  
HETATM   13  C   UNL     1      -8.342   5.451  70.494  1.00  0.00    -0.111 A  
HETATM   14  C   UNL     1      -7.569   7.064  72.623  1.00  0.00    -0.089 A  
HETATM   15  C   UNL     1      -6.746   6.030  72.194  1.00  0.00    -0.068 A  
HETATM   16  C   UNL     1      -7.120   5.221  71.133  1.00  0.00    -0.061 A  
ENDROOT
BRANCH   8  17
HETATM   17  C   UNL     1     -10.223   7.886  67.863  1.00  0.00    -0.263 C  
BRANCH  17  18
HETATM   18  C   UNL     1      -8.753   8.286  67.699  1.00  0.00    -0.133 C  
BRANCH  18  19
HETATM   19  N   UNL     1      -8.345   9.625  68.128  1.00  0.00    -0.117 NA 
HETATM   20  C   UNL     1      -7.438  11.200  66.268  1.00  0.00    -0.064 C  
HETATM   21  C   UNL     1      -7.189  10.235  67.453  1.00  0.00    -0.092 C  
HETATM   22  C   UNL     1      -8.740  12.028  66.333  1.00  0.00    -0.088 C  
HETATM   23  C   UNL     1      -9.846  11.075  66.786  1.00  0.00    -0.229 C  
HETATM   24  C   UNL     1      -9.500  10.529  68.166  1.00  0.00    -0.151 C  
BRANCH  22  25
HETATM   25  N   UNL     1      -8.715  13.269  67.121  1.00  0.00    -0.214 N  
HETATM   26  C   UNL     1      -7.586  13.996  67.572  1.00  0.00    -0.180 C  
HETATM   27  O   UNL     1      -6.402  13.781  67.377  1.00  0.00    -0.315 OA 
HETATM   28  N   UNL     1      -8.072  15.075  68.326  1.00  0.00    -0.128 NA 
HETATM   29  C   UNL     1      -9.453  15.022  68.366  1.00  0.00    -0.201 A  
HETATM   30  C   UNL     1     -10.328  15.867  69.021  1.00  0.00    -0.231 A  
HETATM   31  C   UNL     1     -11.683  15.558  68.940  1.00  0.00    -0.385 A  
HETATM   32  C   UNL     1     -12.126  14.438  68.211  1.00  0.00    -0.260 A  
HETATM   33  C   UNL     1     -11.216  13.615  67.529  1.00  0.00    -0.316 A  
HETATM   34  C   UNL     1      -9.871  13.916  67.631  1.00  0.00    -0.236 A  
ENDBRANCH  22  25
ENDBRANCH  18  19
ENDBRANCH  17  18
ENDBRANCH   8  17
TORSDOF 4
ENDMDL
MODEL      149
REMARK 921   NORMALIZED FREE ENERGY PREDICTED BY IDOCK:   -5.17 KCAL/MOL
REMARK 922        TOTAL FREE ENERGY PREDICTED BY IDOCK:   -7.16 KCAL/MOL
REMARK 923 INTER-LIGAND FREE ENERGY PREDICTED BY IDOCK:   -7.57 KCAL/MOL
REMARK 924 INTRA-LIGAND FREE ENERGY PREDICTED BY IDOCK:    0.41 KCAL/MOL
REMARK 927      BINDING AFFINITY PREDICTED BY RF-SCORE:    0.00 PKD
ROOT
HETATM    1  F   UNL     1     -10.021   4.522  71.466  1.00  0.00    -0.221 F  
HETATM    2  C   UNL     1     -10.031   5.814  71.111  1.00  0.00    -0.192 A  
HETATM    3  C   UNL     1      -9.142   6.699  71.703  1.00  0.00    -0.142 A  
HETATM    4  C   UNL     1      -9.165   8.051  71.343  1.00  0.00    -0.180 A  
HETATM    5  C   UNL     1     -10.078   8.532  70.382  1.00  0.00    -0.208 A  
HETATM    6  C   UNL     1     -10.132  10.037  70.060  1.00  0.00    -0.289 C  
HETATM    7  C   UNL     1     -10.963   7.605  69.804  1.00  0.00    -0.178 A  
HETATM    8  C   UNL     1      -9.729  10.410  68.600  1.00  0.00    -0.178 C  
HETATM    9  C   UNL     1     -10.940   6.255  70.163  1.00  0.00    -0.411 A  
HETATM   10  C   UNL     1     -11.323  10.816  70.638  1.00  0.00    -0.202 A  
HETATM   11  C   UNL     1     -12.365  10.203  71.352  1.00  0.00    -0.515 A  
HETATM   12  F   UNL     1     -14.315  13.073  72.424  1.00  0.00    -0.491 F  
HETATM   13  C   UNL     1     -11.328  12.222  70.553  1.00  0.00     0.749 A  
HETATM   14  C   UNL     1     -13.382  10.963  71.943  1.00  0.00    -0.429 A  
HETATM   15  C   UNL     1     -13.356  12.348  71.834  1.00  0.00    -0.349 A  
HETATM   16  C   UNL     1     -12.340  12.986  71.142  1.00  0.00    -0.270 A  
ENDROOT
BRANCH   8  17
HETATM   17  C   UNL     1     -10.483   9.837  67.393  1.00  0.00    -0.319 C  
BRANCH  17  18
HETATM   18  C   UNL     1     -11.399  10.762  66.583  1.00  0.00     0.247 C  
BRANCH  18  19
HETATM   19  N   UNL     1     -10.821  11.973  65.998  1.00  0.00    -0.278 NA 
HETATM   20  C   UNL     1     -12.437  13.988  65.696  1.00  0.00    -0.531 C  
HETATM   21  C   UNL     1     -11.674  12.775  65.108  1.00  0.00    -0.360 C  
HETATM   22  C   UNL     1     -11.742  14.721  66.864  1.00  0.00    -0.302 C  
HETATM   23  C   UNL     1     -11.191  13.642  67.796  1.00  0.00    -0.310 C  
HETATM   24  C   UNL     1     -10.182  12.792  67.033  1.00  0.00    -0.241 C  
BRANCH  22  25
HETATM   25  N   UNL     1     -10.733  15.734  66.523  1.00  0.00    -0.308 N  
HETATM   26  C   UNL     1      -9.866  15.763  65.403  1.00  0.00    -0.177 C  
HETATM   27  O   UNL     1      -9.792  14.988  64.466  1.00  0.00     0.126 OA 
HETATM   28  N   UNL     1      -9.054  16.898  65.548  1.00  0.00    -0.212 NA 
HETATM   29  C   UNL     1      -9.381  17.550  66.721  1.00  0.00    -0.265 A  
HETATM   30  C   UNL     1      -8.810  18.687  67.263  1.00  0.00    -0.283 A  
HETATM   31  C   UNL     1      -9.298  19.113  68.494  1.00  0.00    -0.426 A  
HETATM   32  C   UNL     1     -10.334  18.412  69.142  1.00  0.00     0.034 A  
HETATM   33  C   UNL     1     -10.917  17.279  68.554  1.00  0.00    -0.146 A  
HETATM   34  C   UNL     1     -10.413  16.850  67.340  1.00  0.00    -0.310 A  
ENDBRANCH  22  25
ENDBRANCH  18  19
ENDBRANCH  17  18
ENDBRANCH   8  17
TORSDOF 4
ENDMDL
MODEL      150
REMARK 921   NORMALIZED FREE ENERGY PREDICTED BY IDOCK:   -5.17 KCAL/MOL
REMARK 922        TOTAL FREE ENERGY PREDICTED BY IDOCK:   -7.16 KCAL/MOL
REMARK 923 INTER-LIGAND FREE ENERGY PREDICTED BY IDOCK:   -7.16 KCAL/MOL
REMARK 924 INTRA-LIGAND FREE ENERGY PREDICTED BY IDOCK:   -0.00 KCAL/MOL
REMARK 927      BINDING AFFINITY PREDICTED BY RF-SCORE:    0.00 PKD
ROOT
HETATM    1  F   UNL     1     -11.057  16.224  64.080  1.00  0.00    -0.393 F  
HETATM    2  C   UNL     1     -11.157  15.201  64.938  1.00  0.00    -0.414 A  
HETATM    3  C   UNL     1     -12.224  14.320  64.840  1.00  0.00    -0.449 A  
HETATM    4  C   UNL     1     -12.334  13.260  65.749  1.00  0.00    -0.505 A  
HETATM    5  C   UNL     1     -11.375  13.071  66.765  1.00  0.00    -0.365 A  
HETATM    6  C   UNL     1     -11.563  11.942  67.795  1.00  0.00    -0.393 C  
HETATM    7  C   UNL     1     -10.308  13.984  66.832  1.00  0.00    -0.269 A  
HETATM    8  C   UNL     1     -10.472  10.827  67.753  1.00  0.00    -0.243 C  
HETATM    9  C   UNL     1     -10.197  15.041  65.925  1.00  0.00    -0.335 A  
HETATM   10  C   UNL     1     -12.018  12.369  69.199  1.00  0.00    -0.291 A  
HETATM   11  C   UNL     1     -12.182  13.712  69.576  1.00  0.00    -0.316 A  
HETATM   12  F   UNL     1     -13.564  13.381  72.917  1.00  0.00    -0.591 F  
HETATM   13  C   UNL     1     -12.401  11.380  70.125  1.00  0.00    -0.344 A  
HETATM   14  C   UNL     1     -12.690  14.053  70.835  1.00  0.00    -0.420 A  
HETATM   15  C   UNL     1     -13.052  13.050  71.725  1.00  0.00    -0.373 A  
HETATM   16  C   UNL     1     -12.911  11.715  71.384  1.00  0.00    -0.461 A  
ENDROOT
BRANCH   8  17
HETATM   17  C   UNL     1      -8.988  11.154  67.961  1.00  0.00    -0.149 C  
BRANCH  17  18
HETATM   18  C   UNL     1      -7.955  10.031  67.822  1.00  0.00    -0.105 C  
BRANCH  18  19
HETATM   19  N   UNL     1      -7.884   9.304  66.553  1.00  0.00    -0.100 NA 
HETATM   20  C   UNL     1      -5.552   9.219  65.405  1.00  0.00    -0.048 C  
HETATM   21  C   UNL     1      -6.974   9.821  65.520  1.00  0.00    -0.099 C  
HETATM   22  C   UNL     1      -5.417   7.729  65.788  1.00  0.00    -0.029 C  
HETATM   23  C   UNL     1      -6.231   7.527  67.067  1.00  0.00    -0.052 C  
HETATM   24  C   UNL     1      -7.689   7.870  66.789  1.00  0.00    -0.099 C  
BRANCH  22  25
HETATM   25  N   UNL     1      -5.742   6.732  64.757  1.00  0.00    -0.031 N  
HETATM   26  C   UNL     1      -6.006   6.950  63.383  1.00  0.00    -0.039 C  
HETATM   27  O   UNL     1      -5.984   7.990  62.749  1.00  0.00    -0.074 OA 
HETATM   28  N   UNL     1      -6.314   5.700  62.826  1.00  0.00    -0.021 NA 
HETATM   29  C   UNL     1      -6.265   4.733  63.812  1.00  0.00    -0.022 A  
HETATM   30  C   UNL     1      -6.529   3.380  63.706  1.00  0.00    -0.030 A  
HETATM   31  C   UNL     1      -6.455   2.629  64.875  1.00  0.00    -0.031 A  
HETATM   32  C   UNL     1      -6.114   3.233  66.100  1.00  0.00    -0.024 A  
HETATM   33  C   UNL     1      -5.819   4.603  66.173  1.00  0.00    -0.022 A  
HETATM   34  C   UNL     1      -5.915   5.346  65.012  1.00  0.00    -0.022 A  
ENDBRANCH  22  25
ENDBRANCH  18  19
ENDBRANCH  17  18
ENDBRANCH   8  17
TORSDOF 4
ENDMDL
MODEL      151
REMARK 921   NORMALIZED FREE ENERGY PREDICTED BY IDOCK:   -5.13 KCAL/MOL
REMARK 922        TOTAL FREE ENERGY PREDICTED BY IDOCK:   -7.12 KCAL/MOL
REMARK 923 INTER-LIGAND FREE ENERGY PREDICTED BY IDOCK:   -7.71 KCAL/MOL
REMARK 924 INTRA-LIGAND FREE ENERGY PREDICTED BY IDOCK:    0.59 KCAL/MOL
REMARK 927      BINDING AFFINITY PREDICTED BY RF-SCORE:    0.00 PKD
ROOT
HETATM    1  F   UNL     1     -10.604  19.721  68.690  1.00  0.00    -0.505 F  
HETATM    2  C   UNL     1     -10.247  18.561  68.123  1.00  0.00    -0.378 A  
HETATM    3  C   UNL     1      -9.677  18.557  66.859  1.00  0.00    -0.334 A  
HETATM    4  C   UNL     1      -9.321  17.342  66.262  1.00  0.00    -0.248 A  
HETATM    5  C   UNL     1      -9.530  16.116  66.927  1.00  0.00    -0.245 A  
HETATM    6  C   UNL     1      -9.198  14.792  66.215  1.00  0.00    -0.278 C  
HETATM    7  C   UNL     1     -10.110  16.160  68.206  1.00  0.00    -0.232 A  
HETATM    8  C   UNL     1      -8.053  13.962  66.874  1.00  0.00     0.112 C  
HETATM    9  C   UNL     1     -10.466  17.373  68.803  1.00  0.00    -0.333 A  
HETATM   10  C   UNL     1     -10.393  13.975  65.700  1.00  0.00    -0.342 A  
HETATM   11  C   UNL     1     -11.729  14.349  65.923  1.00  0.00    -0.371 A  
HETATM   12  F   UNL     1     -13.527  11.863  63.980  1.00  0.00    -0.453 F  
HETATM   13  C   UNL     1     -10.157  12.864  64.869  1.00  0.00    -0.229 A  
HETATM   14  C   UNL     1     -12.786  13.628  65.355  1.00  0.00    -0.500 A  
HETATM   15  C   UNL     1     -12.514  12.533  64.545  1.00  0.00    -0.459 A  
HETATM   16  C   UNL     1     -11.209  12.141  64.297  1.00  0.00    -0.409 A  
ENDROOT
BRANCH   8  17
HETATM   17  C   UNL     1      -8.148  13.485  68.329  1.00  0.00    -0.155 C  
BRANCH  17  18
HETATM   18  C   UNL     1      -7.379  12.227  68.748  1.00  0.00    -0.083 C  
BRANCH  18  19
HETATM   19  N   UNL     1      -8.012  10.924  68.543  1.00  0.00    -0.125 NA 
HETATM   20  C   UNL     1      -6.415   8.937  68.029  1.00  0.00    -0.057 C  
HETATM   21  C   UNL     1      -7.411  10.021  67.550  1.00  0.00    -0.090 C  
HETATM   22  C   UNL     1      -6.663   8.371  69.444  1.00  0.00    -0.045 C  
HETATM   23  C   UNL     1      -6.986   9.562  70.346  1.00  0.00    -0.112 C  
HETATM   24  C   UNL     1      -8.241  10.254  69.828  1.00  0.00    -0.094 C  
BRANCH  22  25
HETATM   25  N   UNL     1      -7.647   7.287  69.577  1.00  0.00    -0.097 N  
HETATM   26  C   UNL     1      -7.678   6.246  70.537  1.00  0.00    -0.101 C  
HETATM   27  O   UNL     1      -6.929   6.041  71.476  1.00  0.00    -0.071 OA 
HETATM   28  N   UNL     1      -8.777   5.433  70.219  1.00  0.00    -0.125 NA 
HETATM   29  C   UNL     1      -9.405   5.930  69.093  1.00  0.00    -0.120 A  
HETATM   30  C   UNL     1     -10.504   5.421  68.424  1.00  0.00    -0.191 A  
HETATM   31  C   UNL     1     -10.910   6.094  67.276  1.00  0.00    -0.438 A  
HETATM   32  C   UNL     1     -10.229   7.245  66.834  1.00  0.00    -0.340 A  
HETATM   33  C   UNL     1      -9.137   7.757  67.550  1.00  0.00    -0.136 A  
HETATM   34  C   UNL     1      -8.726   7.072  68.678  1.00  0.00    -0.123 A  
ENDBRANCH  22  25
ENDBRANCH  18  19
ENDBRANCH  17  18
ENDBRANCH   8  17
TORSDOF 4
ENDMDL
MODEL      152
REMARK 921   NORMALIZED FREE ENERGY PREDICTED BY IDOCK:   -5.13 KCAL/MOL
REMARK 922        TOTAL FREE ENERGY PREDICTED BY IDOCK:   -7.11 KCAL/MOL
REMARK 923 INTER-LIGAND FREE ENERGY PREDICTED BY IDOCK:   -5.94 KCAL/MOL
REMARK 924 INTRA-LIGAND FREE ENERGY PREDICTED BY IDOCK:   -1.17 KCAL/MOL
REMARK 927      BINDING AFFINITY PREDICTED BY RF-SCORE:    0.00 PKD
ROOT
HETATM    1  F   UNL     1     -11.199   6.745  72.395  1.00  0.00    -0.247 F  
HETATM    2  C   UNL     1     -10.688   7.629  71.528  1.00  0.00    -0.221 A  
HETATM    3  C   UNL     1      -9.582   8.386  71.886  1.00  0.00    -0.324 A  
HETATM    4  C   UNL     1      -9.060   9.321  70.984  1.00  0.00    -0.253 A  
HETATM    5  C   UNL     1      -9.641   9.508  69.713  1.00  0.00    -0.235 A  
HETATM    6  C   UNL     1      -9.092  10.596  68.772  1.00  0.00    -0.170 C  
HETATM    7  C   UNL     1     -10.760   8.723  69.387  1.00  0.00    -0.180 A  
HETATM    8  C   UNL     1      -8.460  10.061  67.449  1.00  0.00    -0.121 C  
HETATM    9  C   UNL     1     -11.281   7.789  70.286  1.00  0.00    -0.215 A  
HETATM   10  C   UNL     1      -9.941  11.868  68.632  1.00  0.00    -0.163 A  
HETATM   11  C   UNL     1     -11.193  12.025  69.249  1.00  0.00    -0.291 A  
HETATM   12  F   UNL     1     -11.989  15.475  68.442  1.00  0.00    -0.357 F  
HETATM   13  C   UNL     1      -9.406  12.978  67.951  1.00  0.00    -0.212 A  
HETATM   14  C   UNL     1     -11.890  13.237  69.173  1.00  0.00    -0.378 A  
HETATM   15  C   UNL     1     -11.332  14.309  68.488  1.00  0.00    -0.282 A  
HETATM   16  C   UNL     1     -10.096  14.191  67.874  1.00  0.00    -0.235 A  
ENDROOT
BRANCH   8  17
HETATM   17  C   UNL     1      -9.273   9.217  66.460  1.00  0.00    -0.221 C  
BRANCH  17  18
HETATM   18  C   UNL     1      -8.540   8.209  65.568  1.00  0.00    -0.149 C  
BRANCH  18  19
HETATM   19  N   UNL     1      -8.750   6.781  65.816  1.00  0.00    -0.141 NA 
HETATM   20  C   UNL     1      -6.626   5.385  66.367  1.00  0.00    -0.056 C  
HETATM   21  C   UNL     1      -7.707   5.849  65.360  1.00  0.00    -0.093 C  
HETATM   22  C   UNL     1      -7.075   5.282  67.840  1.00  0.00    -0.067 C  
HETATM   23  C   UNL     1      -7.907   6.530  68.136  1.00  0.00    -0.106 C  
HETATM   24  C   UNL     1      -9.121   6.549  67.215  1.00  0.00    -0.117 C  
BRANCH  22  25
HETATM   25  N   UNL     1      -7.753   4.047  68.257  1.00  0.00    -0.066 N  
HETATM   26  C   UNL     1      -8.000   2.883  67.488  1.00  0.00    -0.075 C  
HETATM   27  O   UNL     1      -7.675   2.633  66.341  1.00  0.00    -0.074 OA 
HETATM   28  N   UNL     1      -8.722   2.001  68.307  1.00  0.00    -0.077 NA 
HETATM   29  C   UNL     1      -8.940   2.591  69.538  1.00  0.00    -0.106 A  
HETATM   30  C   UNL     1      -9.632   2.089  70.624  1.00  0.00    -0.141 A  
HETATM   31  C   UNL     1      -9.746   2.916  71.737  1.00  0.00    -0.224 A  
HETATM   32  C   UNL     1      -9.169   4.200  71.744  1.00  0.00    -0.181 A  
HETATM   33  C   UNL     1      -8.444   4.673  70.639  1.00  0.00    -0.108 A  
HETATM   34  C   UNL     1      -8.353   3.854  69.530  1.00  0.00    -0.056 A  
ENDBRANCH  22  25
ENDBRANCH  18  19
ENDBRANCH  17  18
ENDBRANCH   8  17
TORSDOF 4
ENDMDL
MODEL      153
REMARK 921   NORMALIZED FREE ENERGY PREDICTED BY IDOCK:   -5.12 KCAL/MOL
REMARK 922        TOTAL FREE ENERGY PREDICTED BY IDOCK:   -7.10 KCAL/MOL
REMARK 923 INTER-LIGAND FREE ENERGY PREDICTED BY IDOCK:   -6.80 KCAL/MOL
REMARK 924 INTRA-LIGAND FREE ENERGY PREDICTED BY IDOCK:   -0.30 KCAL/MOL
REMARK 927      BINDING AFFINITY PREDICTED BY RF-SCORE:    0.00 PKD
ROOT
HETATM    1  F   UNL     1     -12.725  14.626  73.329  1.00  0.00    -0.484 F  
HETATM    2  C   UNL     1     -12.582  14.120  72.098  1.00  0.00    -0.240 A  
HETATM    3  C   UNL     1     -13.173  12.906  71.778  1.00  0.00    -0.479 A  
HETATM    4  C   UNL     1     -13.007  12.370  70.496  1.00  0.00     0.248 A  
HETATM    5  C   UNL     1     -12.250  13.046  69.517  1.00  0.00    -0.198 A  
HETATM    6  C   UNL     1     -12.024  12.397  68.139  1.00  0.00    -0.272 C  
HETATM    7  C   UNL     1     -11.668  14.273  69.878  1.00  0.00    -0.373 A  
HETATM    8  C   UNL     1     -12.657  13.167  66.939  1.00  0.00     0.331 C  
HETATM    9  C   UNL     1     -11.832  14.809  71.158  1.00  0.00    -0.387 A  
HETATM   10  C   UNL     1     -10.628  11.808  67.884  1.00  0.00    -0.231 A  
HETATM   11  C   UNL     1      -9.573  11.913  68.804  1.00  0.00    -0.024 A  
HETATM   12  F   UNL     1      -7.004   9.895  67.218  1.00  0.00    -0.079 F  
HETATM   13  C   UNL     1     -10.415  11.028  66.732  1.00  0.00    -0.300 A  
HETATM   14  C   UNL     1      -8.345  11.280  68.572  1.00  0.00    -0.155 A  
HETATM   15  C   UNL     1      -8.169  10.522  67.421  1.00  0.00    -0.118 A  
HETATM   16  C   UNL     1      -9.192  10.391  66.496  1.00  0.00    -0.184 A  
ENDROOT
BRANCH   8  17
HETATM   17  C   UNL     1     -12.276  14.621  66.633  1.00  0.00    -0.141 C  
BRANCH  17  18
HETATM   18  C   UNL     1     -11.377  14.912  65.426  1.00  0.00    -0.346 C  
BRANCH  18  19
HETATM   19  N   UNL     1     -10.253  15.833  65.602  1.00  0.00    -0.355 NA 
HETATM   20  C   UNL     1     -10.109  17.046  67.898  1.00  0.00    -0.306 C  
HETATM   21  C   UNL     1     -10.484  17.050  66.396  1.00  0.00    -0.252 C  
HETATM   22  C   UNL     1      -8.908  16.160  68.292  1.00  0.00    -0.188 C  
HETATM   23  C   UNL     1      -9.071  14.838  67.543  1.00  0.00    -0.191 C  
HETATM   24  C   UNL     1      -9.057  15.108  66.044  1.00  0.00    -0.161 C  
BRANCH  22  25
HETATM   25  N   UNL     1      -7.563  16.732  68.129  1.00  0.00    -0.172 N  
HETATM   26  C   UNL     1      -6.366  16.064  67.773  1.00  0.00    -0.145 C  
HETATM   27  O   UNL     1      -6.193  14.892  67.486  1.00  0.00    -0.290 OA 
HETATM   28  N   UNL     1      -5.342  17.024  67.799  1.00  0.00    -0.113 NA 
HETATM   29  C   UNL     1      -5.867  18.245  68.175  1.00  0.00    -0.173 A  
HETATM   30  C   UNL     1      -5.208  19.447  68.357  1.00  0.00    -0.196 A  
HETATM   31  C   UNL     1      -5.973  20.526  68.791  1.00  0.00    -0.372 A  
HETATM   32  C   UNL     1      -7.355  20.386  69.020  1.00  0.00     0.179 A  
HETATM   33  C   UNL     1      -8.004  19.162  68.796  1.00  0.00    -0.382 A  
HETATM   34  C   UNL     1      -7.235  18.090  68.385  1.00  0.00    -0.254 A  
ENDBRANCH  22  25
ENDBRANCH  18  19
ENDBRANCH  17  18
ENDBRANCH   8  17
TORSDOF 4
ENDMDL
MODEL      154
REMARK 921   NORMALIZED FREE ENERGY PREDICTED BY IDOCK:   -5.12 KCAL/MOL
REMARK 922        TOTAL FREE ENERGY PREDICTED BY IDOCK:   -7.10 KCAL/MOL
REMARK 923 INTER-LIGAND FREE ENERGY PREDICTED BY IDOCK:   -6.64 KCAL/MOL
REMARK 924 INTRA-LIGAND FREE ENERGY PREDICTED BY IDOCK:   -0.46 KCAL/MOL
REMARK 927      BINDING AFFINITY PREDICTED BY RF-SCORE:    0.00 PKD
ROOT
HETATM    1  F   UNL     1     -12.471  11.819  67.406  1.00  0.00     0.078 F  
HETATM    2  C   UNL     1     -11.602  12.787  67.724  1.00  0.00    -0.353 A  
HETATM    3  C   UNL     1     -11.687  13.411  68.960  1.00  0.00    -0.368 A  
HETATM    4  C   UNL     1     -10.788  14.435  69.283  1.00  0.00    -0.261 A  
HETATM    5  C   UNL     1      -9.793  14.843  68.371  1.00  0.00    -0.216 A  
HETATM    6  C   UNL     1      -8.867  16.022  68.725  1.00  0.00    -0.227 C  
HETATM    7  C   UNL     1      -9.739  14.187  67.129  1.00  0.00    -0.248 A  
HETATM    8  C   UNL     1      -7.359  15.650  68.872  1.00  0.00    -0.153 C  
HETATM    9  C   UNL     1     -10.635  13.166  66.806  1.00  0.00    -0.267 A  
HETATM   10  C   UNL     1      -9.153  17.352  68.012  1.00  0.00    -0.259 A  
HETATM   11  C   UNL     1     -10.144  17.495  67.026  1.00  0.00    -0.323 A  
HETATM   12  F   UNL     1     -10.048  21.069  66.393  1.00  0.00    -0.248 F  
HETATM   13  C   UNL     1      -8.479  18.514  68.432  1.00  0.00    -0.352 A  
HETATM   14  C   UNL     1     -10.436  18.746  66.470  1.00  0.00    -0.484 A  
HETATM   15  C   UNL     1      -9.746  19.870  66.907  1.00  0.00    -0.407 A  
HETATM   16  C   UNL     1      -8.768  19.767  67.882  1.00  0.00    -0.370 A  
ENDROOT
BRANCH   8  17
HETATM   17  C   UNL     1      -6.577  15.014  67.715  1.00  0.00    -0.189 C  
BRANCH  17  18
HETATM   18  C   UNL     1      -5.940  13.635  67.921  1.00  0.00    -0.145 C  
BRANCH  18  19
HETATM   19  N   UNL     1      -6.714  12.450  67.549  1.00  0.00    -0.132 NA 
HETATM   20  C   UNL     1      -5.475  10.169  67.709  1.00  0.00    -0.041 C  
HETATM   21  C   UNL     1      -6.004  11.356  66.868  1.00  0.00    -0.122 C  
HETATM   22  C   UNL     1      -6.302   9.806  68.961  1.00  0.00    -0.041 C  
HETATM   23  C   UNL     1      -6.667  11.123  69.646  1.00  0.00    -0.134 C  
HETATM   24  C   UNL     1      -7.501  11.968  68.690  1.00  0.00    -0.113 C  
BRANCH  22  25
HETATM   25  N   UNL     1      -7.469   8.933  68.771  1.00  0.00    -0.082 N  
HETATM   26  C   UNL     1      -8.529   8.681  69.677  1.00  0.00    -0.129 C  
HETATM   27  O   UNL     1      -8.728   9.154  70.782  1.00  0.00    -0.205 OA 
HETATM   28  N   UNL     1      -9.372   7.741  69.063  1.00  0.00    -0.150 NA 
HETATM   29  C   UNL     1      -8.856   7.399  67.827  1.00  0.00    -0.128 A  
HETATM   30  C   UNL     1      -9.349   6.491  66.910  1.00  0.00    -0.166 A  
HETATM   31  C   UNL     1      -8.603   6.296  65.751  1.00  0.00    -0.153 A  
HETATM   32  C   UNL     1      -7.408   7.008  65.535  1.00  0.00    -0.079 A  
HETATM   33  C   UNL     1      -6.947   7.948  66.469  1.00  0.00    -0.071 A  
HETATM   34  C   UNL     1      -7.683   8.121  67.626  1.00  0.00    -0.102 A  
ENDBRANCH  22  25
ENDBRANCH  18  19
ENDBRANCH  17  18
ENDBRANCH   8  17
TORSDOF 4
ENDMDL
MODEL      155
REMARK 921   NORMALIZED FREE ENERGY PREDICTED BY IDOCK:   -5.10 KCAL/MOL
REMARK 922        TOTAL FREE ENERGY PREDICTED BY IDOCK:   -7.08 KCAL/MOL
REMARK 923 INTER-LIGAND FREE ENERGY PREDICTED BY IDOCK:   -7.37 KCAL/MOL
REMARK 924 INTRA-LIGAND FREE ENERGY PREDICTED BY IDOCK:    0.29 KCAL/MOL
REMARK 927      BINDING AFFINITY PREDICTED BY RF-SCORE:    0.00 PKD
ROOT
HETATM    1  F   UNL     1      -5.515  10.565  63.552  1.00  0.00    -0.116 F  
HETATM    2  C   UNL     1      -6.115  10.315  64.724  1.00  0.00    -0.128 A  
HETATM    3  C   UNL     1      -5.363  10.274  65.889  1.00  0.00    -0.057 A  
HETATM    4  C   UNL     1      -5.990   9.996  67.109  1.00  0.00    -0.051 A  
HETATM    5  C   UNL     1      -7.378   9.758  67.176  1.00  0.00    -0.087 A  
HETATM    6  C   UNL     1      -8.027   9.381  68.521  1.00  0.00    -0.093 C  
HETATM    7  C   UNL     1      -8.106   9.809  65.975  1.00  0.00    -0.114 A  
HETATM    8  C   UNL     1      -9.054  10.421  69.068  1.00  0.00    -0.193 C  
HETATM    9  C   UNL     1      -7.481  10.087  64.756  1.00  0.00    -0.143 A  
HETATM   10  C   UNL     1      -8.421   7.907  68.699  1.00  0.00    -0.128 A  
HETATM   11  C   UNL     1      -8.285   6.950  67.680  1.00  0.00    -0.117 A  
HETATM   12  F   UNL     1      -9.214   3.894  69.407  1.00  0.00    -0.147 F  
HETATM   13  C   UNL     1      -8.830   7.456  69.968  1.00  0.00    -0.141 A  
HETATM   14  C   UNL     1      -8.566   5.599  67.915  1.00  0.00    -0.101 A  
HETATM   15  C   UNL     1      -8.973   5.191  69.179  1.00  0.00    -0.100 A  
HETATM   16  C   UNL     1      -9.111   6.107  70.209  1.00  0.00    -0.158 A  
ENDROOT
BRANCH   8  17
HETATM   17  C   UNL     1     -10.294  10.820  68.258  1.00  0.00    -0.195 C  
BRANCH  17  18
HETATM   18  C   UNL     1     -11.436  11.558  68.966  1.00  0.00    -0.291 C  
BRANCH  18  19
HETATM   19  N   UNL     1     -11.644  12.974  68.660  1.00  0.00    -0.296 NA 
HETATM   20  C   UNL     1      -9.537  14.495  68.760  1.00  0.00    -0.193 C  
HETATM   21  C   UNL     1     -10.840  13.958  69.401  1.00  0.00    -0.070 C  
HETATM   22  C   UNL     1      -9.531  14.589  67.219  1.00  0.00    -0.217 C  
HETATM   23  C   UNL     1     -10.164  13.301  66.695  1.00  0.00    -0.265 C  
HETATM   24  C   UNL     1     -11.594  13.202  67.212  1.00  0.00    -0.355 C  
BRANCH  22  25
HETATM   25  N   UNL     1     -10.124  15.790  66.612  1.00  0.00    -0.269 N  
HETATM   26  C   UNL     1     -10.737  15.915  65.342  1.00  0.00    -0.399 C  
HETATM   27  O   UNL     1     -10.942  15.062  64.497  1.00  0.00    -0.321 OA 
HETATM   28  N   UNL     1     -11.098  17.264  65.197  1.00  0.00    -0.461 NA 
HETATM   29  C   UNL     1     -10.713  17.966  66.323  1.00  0.00    -0.116 A  
HETATM   30  C   UNL     1     -10.846  19.317  66.583  1.00  0.00    -0.421 A  
HETATM   31  C   UNL     1     -10.324  19.783  67.786  1.00  0.00    -0.573 A  
HETATM   32  C   UNL     1      -9.699  18.903  68.690  1.00  0.00    -0.454 A  
HETATM   33  C   UNL     1      -9.606  17.530  68.415  1.00  0.00    -0.303 A  
HETATM   34  C   UNL     1     -10.109  17.078  67.209  1.00  0.00    -0.295 A  
ENDBRANCH  22  25
ENDBRANCH  18  19
ENDBRANCH  17  18
ENDBRANCH   8  17
TORSDOF 4
ENDMDL
MODEL      156
REMARK 921   NORMALIZED FREE ENERGY PREDICTED BY IDOCK:   -5.10 KCAL/MOL
REMARK 922        TOTAL FREE ENERGY PREDICTED BY IDOCK:   -7.08 KCAL/MOL
REMARK 923 INTER-LIGAND FREE ENERGY PREDICTED BY IDOCK:   -6.39 KCAL/MOL
REMARK 924 INTRA-LIGAND FREE ENERGY PREDICTED BY IDOCK:   -0.69 KCAL/MOL
REMARK 927      BINDING AFFINITY PREDICTED BY RF-SCORE:    0.00 PKD
ROOT
HETATM    1  F   UNL     1      -5.190  12.847  71.296  1.00  0.00    -0.132 F  
HETATM    2  C   UNL     1      -5.721  11.885  70.529  1.00  0.00    -0.156 A  
HETATM    3  C   UNL     1      -5.146  10.623  70.509  1.00  0.00    -0.063 A  
HETATM    4  C   UNL     1      -5.693   9.625  69.693  1.00  0.00    -0.033 A  
HETATM    5  C   UNL     1      -6.824   9.880  68.891  1.00  0.00    -0.057 A  
HETATM    6  C   UNL     1      -7.358   8.786  67.948  1.00  0.00    -0.088 C  
HETATM    7  C   UNL     1      -7.378  11.171  68.938  1.00  0.00    -0.110 A  
HETATM    8  C   UNL     1      -8.790   8.270  68.288  1.00  0.00    -0.140 C  
HETATM    9  C   UNL     1      -6.833  12.168  69.752  1.00  0.00     0.197 A  
HETATM   10  C   UNL     1      -7.058   8.968  66.453  1.00  0.00    -0.080 A  
HETATM   11  C   UNL     1      -6.408  10.100  65.934  1.00  0.00    -0.098 A  
HETATM   12  F   UNL     1      -6.017   9.193  62.440  1.00  0.00    -0.090 F  
HETATM   13  C   UNL     1      -7.339   7.913  65.564  1.00  0.00    -0.076 A  
HETATM   14  C   UNL     1      -6.070  10.182  64.578  1.00  0.00    -0.133 A  
HETATM   15  C   UNL     1      -6.368   9.123  63.730  1.00  0.00    -0.089 A  
HETATM   16  C   UNL     1      -7.002   7.988  64.209  1.00  0.00    -0.072 A  
ENDROOT
BRANCH   8  17
HETATM   17  C   UNL     1      -9.994   9.220  68.326  1.00  0.00    -0.196 C  
BRANCH  17  18
HETATM   18  C   UNL     1     -10.632   9.662  67.005  1.00  0.00    -0.197 C  
BRANCH  18  19
HETATM   19  N   UNL     1     -10.224  10.944  66.430  1.00  0.00    -0.231 NA 
HETATM   20  C   UNL     1     -12.101  12.349  65.304  1.00  0.00    -0.451 C  
HETATM   21  C   UNL     1     -10.895  11.384  65.197  1.00  0.00    -0.238 C  
HETATM   22  C   UNL     1     -12.069  13.341  66.487  1.00  0.00    -0.375 C  
HETATM   23  C   UNL     1     -11.614  12.551  67.713  1.00  0.00    -0.401 C  
HETATM   24  C   UNL     1     -10.219  11.992  67.457  1.00  0.00    -0.198 C  
BRANCH  22  25
HETATM   25  N   UNL     1     -11.305  14.584  66.308  1.00  0.00    -0.347 N  
HETATM   26  C   UNL     1     -10.581  15.009  65.167  1.00  0.00    -0.418 C  
HETATM   27  O   UNL     1     -10.464  14.467  64.082  1.00  0.00     0.148 OA 
HETATM   28  N   UNL     1      -9.981  16.233  65.500  1.00  0.00    -0.530 NA 
HETATM   29  C   UNL     1     -10.297  16.560  66.805  1.00  0.00    -0.296 A  
HETATM   30  C   UNL     1      -9.892  17.658  67.541  1.00  0.00    -0.299 A  
HETATM   31  C   UNL     1     -10.319  17.723  68.864  1.00  0.00    -0.300 A  
HETATM   32  C   UNL     1     -11.134  16.713  69.410  1.00  0.00    -0.176 A  
HETATM   33  C   UNL     1     -11.557  15.626  68.631  1.00  0.00    -0.391 A  
HETATM   34  C   UNL     1     -11.112  15.557  67.324  1.00  0.00    -0.271 A  
ENDBRANCH  22  25
ENDBRANCH  18  19
ENDBRANCH  17  18
ENDBRANCH   8  17
TORSDOF 4
ENDMDL
MODEL      157
REMARK 921   NORMALIZED FREE ENERGY PREDICTED BY IDOCK:   -5.07 KCAL/MOL
REMARK 922        TOTAL FREE ENERGY PREDICTED BY IDOCK:   -7.05 KCAL/MOL
REMARK 923 INTER-LIGAND FREE ENERGY PREDICTED BY IDOCK:   -7.65 KCAL/MOL
REMARK 924 INTRA-LIGAND FREE ENERGY PREDICTED BY IDOCK:    0.61 KCAL/MOL
REMARK 927      BINDING AFFINITY PREDICTED BY RF-SCORE:    0.00 PKD
ROOT
HETATM    1  F   UNL     1     -12.502  13.605  62.971  1.00  0.00    -0.530 F  
HETATM    2  C   UNL     1     -12.007  12.938  64.022  1.00  0.00    -0.451 A  
HETATM    3  C   UNL     1     -12.433  13.256  65.304  1.00  0.00    -0.543 A  
HETATM    4  C   UNL     1     -11.901  12.569  66.402  1.00  0.00    -0.445 A  
HETATM    5  C   UNL     1     -10.937  11.554  66.227  1.00  0.00    -0.328 A  
HETATM    6  C   UNL     1     -10.316  10.868  67.458  1.00  0.00    -0.237 C  
HETATM    7  C   UNL     1     -10.531  11.261  64.914  1.00  0.00    -0.375 A  
HETATM    8  C   UNL     1     -10.633   9.346  67.591  1.00  0.00    -0.333 C  
HETATM    9  C   UNL     1     -11.061  11.946  63.818  1.00  0.00    -0.510 A  
HETATM   10  C   UNL     1      -8.878  11.277  67.813  1.00  0.00    -0.141 A  
HETATM   11  C   UNL     1      -8.118  12.162  67.031  1.00  0.00    -0.154 A  
HETATM   12  F   UNL     1      -5.127  12.554  69.052  1.00  0.00    -0.059 F  
HETATM   13  C   UNL     1      -8.324  10.843  69.033  1.00  0.00    -0.118 A  
HETATM   14  C   UNL     1      -6.847  12.581  67.442  1.00  0.00    -0.145 A  
HETATM   15  C   UNL     1      -6.331  12.128  68.649  1.00  0.00    -0.063 A  
HETATM   16  C   UNL     1      -7.056  11.261  69.449  1.00  0.00    -0.090 A  
ENDROOT
BRANCH   8  17
HETATM   17  C   UNL     1     -10.249   8.351  66.488  1.00  0.00    -0.277 C  
BRANCH  17  18
HETATM   18  C   UNL     1      -9.967   6.894  66.871  1.00  0.00    -0.200 C  
BRANCH  18  19
HETATM   19  N   UNL     1     -10.375   6.432  68.198  1.00  0.00    -0.171 NA 
HETATM   20  C   UNL     1      -8.834   4.668  69.327  1.00  0.00    -0.124 C  
HETATM   21  C   UNL     1     -10.119   5.025  68.540  1.00  0.00    -0.114 C  
HETATM   22  C   UNL     1      -8.325   5.741  70.312  1.00  0.00    -0.117 C  
HETATM   23  C   UNL     1      -8.430   7.086  69.593  1.00  0.00    -0.134 C  
HETATM   24  C   UNL     1      -9.888   7.348  69.236  1.00  0.00    -0.168 C  
BRANCH  22  25
HETATM   25  N   UNL     1      -8.933   5.775  71.650  1.00  0.00    -0.136 N  
HETATM   26  C   UNL     1      -8.921   6.834  72.590  1.00  0.00    -0.129 C  
HETATM   27  O   UNL     1      -8.446   7.951  72.487  1.00  0.00    -0.119 OA 
HETATM   28  N   UNL     1      -9.587   6.369  73.735  1.00  0.00    -0.160 NA 
HETATM   29  C   UNL     1      -9.988   5.062  73.534  1.00  0.00    -0.157 A  
HETATM   30  C   UNL     1     -10.645   4.218  74.410  1.00  0.00    -0.271 A  
HETATM   31  C   UNL     1     -10.890   2.920  73.971  1.00  0.00    -0.269 A  
HETATM   32  C   UNL     1     -10.490   2.505  72.686  1.00  0.00    -0.203 A  
HETATM   33  C   UNL     1      -9.853   3.393  71.806  1.00  0.00    -0.229 A  
HETATM   34  C   UNL     1      -9.595   4.674  72.256  1.00  0.00    -0.152 A  
ENDBRANCH  22  25
ENDBRANCH  18  19
ENDBRANCH  17  18
ENDBRANCH   8  17
TORSDOF 4
ENDMDL
MODEL      158
REMARK 921   NORMALIZED FREE ENERGY PREDICTED BY IDOCK:   -5.07 KCAL/MOL
REMARK 922        TOTAL FREE ENERGY PREDICTED BY IDOCK:   -7.04 KCAL/MOL
REMARK 923 INTER-LIGAND FREE ENERGY PREDICTED BY IDOCK:   -6.93 KCAL/MOL
REMARK 924 INTRA-LIGAND FREE ENERGY PREDICTED BY IDOCK:   -0.11 KCAL/MOL
REMARK 927      BINDING AFFINITY PREDICTED BY RF-SCORE:    0.00 PKD
ROOT
HETATM    1  F   UNL     1      -7.274   1.470  73.460  1.00  0.00    -0.024 F  
HETATM    2  C   UNL     1      -7.904   2.459  72.812  1.00  0.00    -0.053 A  
HETATM    3  C   UNL     1      -9.289   2.528  72.838  1.00  0.00    -0.126 A  
HETATM    4  C   UNL     1      -9.945   3.553  72.145  1.00  0.00    -0.234 A  
HETATM    5  C   UNL     1      -9.220   4.521  71.421  1.00  0.00    -0.189 A  
HETATM    6  C   UNL     1      -9.971   5.591  70.608  1.00  0.00    -0.270 C  
HETATM    7  C   UNL     1      -7.818   4.418  71.418  1.00  0.00    -0.081 A  
HETATM    8  C   UNL     1      -9.760   7.057  71.100  1.00  0.00    -0.173 C  
HETATM    9  C   UNL     1      -7.163   3.395  72.109  1.00  0.00    -0.046 A  
HETATM   10  C   UNL     1      -9.990   5.402  69.083  1.00  0.00    -0.267 A  
HETATM   11  C   UNL     1      -9.300   4.367  68.432  1.00  0.00    -0.203 A  
HETATM   12  F   UNL     1     -10.382   4.805  64.993  1.00  0.00    -0.134 F  
HETATM   13  C   UNL     1     -10.822   6.225  68.301  1.00  0.00    -0.397 A  
HETATM   14  C   UNL     1      -9.421   4.174  67.050  1.00  0.00    -0.215 A  
HETATM   15  C   UNL     1     -10.247   5.010  66.310  1.00  0.00    -0.273 A  
HETATM   16  C   UNL     1     -10.948   6.036  66.921  1.00  0.00    -0.350 A  
ENDROOT
BRANCH   8  17
HETATM   17  C   UNL     1      -8.362   7.683  71.166  1.00  0.00    -0.111 C  
BRANCH  17  18
HETATM   18  C   UNL     1      -7.877   8.541  69.991  1.00  0.00    -0.102 C  
BRANCH  18  19
HETATM   19  N   UNL     1      -8.297   9.942  69.934  1.00  0.00    -0.186 NA 
HETATM   20  C   UNL     1      -7.815  11.196  67.708  1.00  0.00    -0.114 C  
HETATM   21  C   UNL     1      -7.450  10.878  69.178  1.00  0.00    -0.130 C  
HETATM   22  C   UNL     1      -9.320  11.164  67.363  1.00  0.00    -0.164 C  
HETATM   23  C   UNL     1      -9.901   9.923  68.042  1.00  0.00    -0.170 C  
HETATM   24  C   UNL     1      -9.708  10.043  69.548  1.00  0.00    -0.233 C  
BRANCH  22  25
HETATM   25  N   UNL     1     -10.106  12.374  67.645  1.00  0.00    -0.196 N  
HETATM   26  C   UNL     1     -11.489  12.471  67.934  1.00  0.00    -0.315 C  
HETATM   27  O   UNL     1     -12.316  11.585  68.052  1.00  0.00    -0.445 OA 
HETATM   28  N   UNL     1     -11.778  13.837  68.077  1.00  0.00    -0.336 NA 
HETATM   29  C   UNL     1     -10.629  14.575  67.867  1.00  0.00    -0.243 A  
HETATM   30  C   UNL     1     -10.472  15.949  67.881  1.00  0.00    -0.288 A  
HETATM   31  C   UNL     1      -9.205  16.442  67.587  1.00  0.00    -0.199 A  
HETATM   32  C   UNL     1      -8.138  15.568  67.301  1.00  0.00    -0.226 A  
HETATM   33  C   UNL     1      -8.318  14.177  67.326  1.00  0.00    -0.212 A  
HETATM   34  C   UNL     1      -9.585  13.694  67.598  1.00  0.00    -0.221 A  
ENDBRANCH  22  25
ENDBRANCH  18  19
ENDBRANCH  17  18
ENDBRANCH   8  17
TORSDOF 4
ENDMDL
MODEL      159
REMARK 921   NORMALIZED FREE ENERGY PREDICTED BY IDOCK:   -5.06 KCAL/MOL
REMARK 922        TOTAL FREE ENERGY PREDICTED BY IDOCK:   -7.03 KCAL/MOL
REMARK 923 INTER-LIGAND FREE ENERGY PREDICTED BY IDOCK:   -6.96 KCAL/MOL
REMARK 924 INTRA-LIGAND FREE ENERGY PREDICTED BY IDOCK:   -0.07 KCAL/MOL
REMARK 927      BINDING AFFINITY PREDICTED BY RF-SCORE:    0.00 PKD
ROOT
HETATM    1  F   UNL     1     -13.809   6.235  72.514  1.00  0.00    -0.103 F  
HETATM    2  C   UNL     1     -12.954   6.787  71.643  1.00  0.00    -0.236 A  
HETATM    3  C   UNL     1     -12.206   5.977  70.801  1.00  0.00     0.681 A  
HETATM    4  C   UNL     1     -11.301   6.556  69.904  1.00  0.00    -0.469 A  
HETATM    5  C   UNL     1     -11.137   7.955  69.839  1.00  0.00    -0.123 A  
HETATM    6  C   UNL     1     -10.080   8.560  68.896  1.00  0.00    -0.213 C  
HETATM    7  C   UNL     1     -11.912   8.743  70.708  1.00  0.00    -0.161 A  
HETATM    8  C   UNL     1     -10.656   9.443  67.746  1.00  0.00    -0.317 C  
HETATM    9  C   UNL     1     -12.815   8.165  71.603  1.00  0.00    -0.347 A  
HETATM   10  C   UNL     1      -8.798   9.089  69.557  1.00  0.00    -0.146 A  
HETATM   11  C   UNL     1      -8.607   9.110  70.948  1.00  0.00    -0.259 A  
HETATM   12  F   UNL     1      -5.166  10.241  71.204  1.00  0.00    -0.054 F  
HETATM   13  C   UNL     1      -7.714   9.468  68.743  1.00  0.00    -0.080 A  
HETATM   14  C   UNL     1      -7.387   9.512  71.504  1.00  0.00     0.430 A  
HETATM   15  C   UNL     1      -6.340   9.884  70.669  1.00  0.00    -0.104 A  
HETATM   16  C   UNL     1      -6.492   9.868  69.293  1.00  0.00    -0.048 A  
ENDROOT
BRANCH   8  17
HETATM   17  C   UNL     1     -11.512  10.681  68.042  1.00  0.00    -0.289 C  
BRANCH  17  18
HETATM   18  C   UNL     1     -11.533  11.828  67.025  1.00  0.00    -0.298 C  
BRANCH  18  19
HETATM   19  N   UNL     1     -11.575  13.202  67.528  1.00  0.00    -0.331 NA 
HETATM   20  C   UNL     1      -9.392  14.095  68.622  1.00  0.00    -0.152 C  
HETATM   21  C   UNL     1     -10.817  13.505  68.751  1.00  0.00    -0.253 C  
HETATM   22  C   UNL     1      -9.142  14.993  67.391  1.00  0.00    -0.186 C  
HETATM   23  C   UNL     1      -9.790  14.295  66.196  1.00  0.00    -0.335 C  
HETATM   24  C   UNL     1     -11.286  14.155  66.451  1.00  0.00    -0.328 C  
BRANCH  22  25
HETATM   25  N   UNL     1      -9.535  16.406  67.493  1.00  0.00    -0.223 N  
HETATM   26  C   UNL     1     -10.718  16.946  68.056  1.00  0.00    -0.364 C  
HETATM   27  O   UNL     1     -11.640  16.373  68.609  1.00  0.00    -0.311 OA 
HETATM   28  N   UNL     1     -10.658  18.335  67.869  1.00  0.00    -0.398 NA 
HETATM   29  C   UNL     1      -9.494  18.660  67.198  1.00  0.00    -0.295 A  
HETATM   30  C   UNL     1      -9.056  19.904  66.786  1.00  0.00    -0.460 A  
HETATM   31  C   UNL     1      -7.858  19.948  66.078  1.00  0.00    -0.335 A  
HETATM   32  C   UNL     1      -7.133  18.771  65.812  1.00  0.00    -0.265 A  
HETATM   33  C   UNL     1      -7.586  17.524  66.271  1.00  0.00    -0.343 A  
HETATM   34  C   UNL     1      -8.786  17.486  66.955  1.00  0.00    -0.240 A  
ENDBRANCH  22  25
ENDBRANCH  18  19
ENDBRANCH  17  18
ENDBRANCH   8  17
TORSDOF 4
ENDMDL
MODEL      160
REMARK 921   NORMALIZED FREE ENERGY PREDICTED BY IDOCK:   -5.05 KCAL/MOL
REMARK 922        TOTAL FREE ENERGY PREDICTED BY IDOCK:   -7.01 KCAL/MOL
REMARK 923 INTER-LIGAND FREE ENERGY PREDICTED BY IDOCK:   -6.57 KCAL/MOL
REMARK 924 INTRA-LIGAND FREE ENERGY PREDICTED BY IDOCK:   -0.44 KCAL/MOL
REMARK 927      BINDING AFFINITY PREDICTED BY RF-SCORE:    0.00 PKD
ROOT
HETATM    1  F   UNL     1     -11.505  12.269  66.775  1.00  0.00    -0.325 F  
HETATM    2  C   UNL     1     -11.362  11.471  67.841  1.00  0.00    -0.303 A  
HETATM    3  C   UNL     1     -11.652  11.956  69.108  1.00  0.00    -0.373 A  
HETATM    4  C   UNL     1     -11.485  11.126  70.223  1.00  0.00    -0.329 A  
HETATM    5  C   UNL     1     -11.028   9.799  70.081  1.00  0.00    -0.339 A  
HETATM    6  C   UNL     1     -10.783   8.935  71.331  1.00  0.00    -0.382 C  
HETATM    7  C   UNL     1     -10.745   9.345  68.781  1.00  0.00    -0.200 A  
HETATM    8  C   UNL     1     -11.709   7.685  71.456  1.00  0.00    -0.310 C  
HETATM    9  C   UNL     1     -10.911  10.173  67.668  1.00  0.00    -0.331 A  
HETATM   10  C   UNL     1      -9.316   8.713  71.730  1.00  0.00    -0.343 A  
HETATM   11  C   UNL     1      -8.235   9.190  70.970  1.00  0.00    -0.186 A  
HETATM   12  F   UNL     1      -5.409   8.329  73.082  1.00  0.00    -0.042 F  
HETATM   13  C   UNL     1      -9.027   8.105  72.966  1.00  0.00    -0.335 A  
HETATM   14  C   UNL     1      -6.917   9.047  71.419  1.00  0.00    -0.073 A  
HETATM   15  C   UNL     1      -6.670   8.438  72.643  1.00  0.00    -0.088 A  
HETATM   16  C   UNL     1      -7.712   7.963  73.421  1.00  0.00    -0.194 A  
ENDROOT
BRANCH   8  17
HETATM   17  C   UNL     1     -11.744   6.605  70.368  1.00  0.00    -0.446 C  
BRANCH  17  18
HETATM   18  C   UNL     1     -10.437   5.906  69.974  1.00  0.00    -0.266 C  
BRANCH  18  19
HETATM   19  N   UNL     1      -9.867   6.190  68.657  1.00  0.00    -0.134 NA 
HETATM   20  C   UNL     1      -7.425   5.387  68.263  1.00  0.00    -0.073 C  
HETATM   21  C   UNL     1      -8.434   6.515  68.589  1.00  0.00    -0.121 C  
HETATM   22  C   UNL     1      -7.942   4.264  67.338  1.00  0.00    -0.096 C  
HETATM   23  C   UNL     1      -9.351   3.913  67.816  1.00  0.00    -0.230 C  
HETATM   24  C   UNL     1     -10.240   5.146  67.697  1.00  0.00    -0.141 C  
BRANCH  22  25
HETATM   25  N   UNL     1      -7.888   4.503  65.888  1.00  0.00    -0.094 N  
HETATM   26  C   UNL     1      -7.324   5.607  65.204  1.00  0.00    -0.075 C  
HETATM   27  O   UNL     1      -6.732   6.572  65.654  1.00  0.00    -0.046 OA 
HETATM   28  N   UNL     1      -7.565   5.404  63.837  1.00  0.00    -0.068 NA 
HETATM   29  C   UNL     1      -8.270   4.227  63.665  1.00  0.00    -0.096 A  
HETATM   30  C   UNL     1      -8.739   3.668  62.491  1.00  0.00    -0.082 A  
HETATM   31  C   UNL     1      -9.470   2.489  62.602  1.00  0.00    -0.089 A  
HETATM   32  C   UNL     1      -9.704   1.900  63.859  1.00  0.00    -0.130 A  
HETATM   33  C   UNL     1      -9.189   2.473  65.032  1.00  0.00    -0.128 A  
HETATM   34  C   UNL     1      -8.481   3.655  64.916  1.00  0.00    -0.104 A  
ENDBRANCH  22  25
ENDBRANCH  18  19
ENDBRANCH  17  18
ENDBRANCH   8  17
TORSDOF 4
ENDMDL
MODEL      161
REMARK 921   NORMALIZED FREE ENERGY PREDICTED BY IDOCK:   -5.05 KCAL/MOL
REMARK 922        TOTAL FREE ENERGY PREDICTED BY IDOCK:   -7.01 KCAL/MOL
REMARK 923 INTER-LIGAND FREE ENERGY PREDICTED BY IDOCK:   -6.35 KCAL/MOL
REMARK 924 INTRA-LIGAND FREE ENERGY PREDICTED BY IDOCK:   -0.66 KCAL/MOL
REMARK 927      BINDING AFFINITY PREDICTED BY RF-SCORE:    0.00 PKD
ROOT
HETATM    1  F   UNL     1     -12.522  12.964  62.822  1.00  0.00    -0.389 F  
HETATM    2  C   UNL     1     -12.139  13.537  63.971  1.00  0.00    -0.441 A  
HETATM    3  C   UNL     1     -11.593  14.812  63.958  1.00  0.00     0.076 A  
HETATM    4  C   UNL     1     -11.178  15.401  65.158  1.00  0.00    -0.354 A  
HETATM    5  C   UNL     1     -11.309  14.720  66.386  1.00  0.00    -0.339 A  
HETATM    6  C   UNL     1     -10.775  15.363  67.680  1.00  0.00    -0.292 C  
HETATM    7  C   UNL     1     -11.867  13.430  66.359  1.00  0.00    -0.441 A  
HETATM    8  C   UNL     1     -11.867  15.702  68.742  1.00  0.00    -0.336 C  
HETATM    9  C   UNL     1     -12.281  12.842  65.161  1.00  0.00    -0.530 A  
HETATM   10  C   UNL     1      -9.466  14.786  68.238  1.00  0.00    -0.207 A  
HETATM   11  C   UNL     1      -8.812  13.681  67.670  1.00  0.00    -0.194 A  
HETATM   12  F   UNL     1      -5.768  13.525  69.644  1.00  0.00    -0.084 F  
HETATM   13  C   UNL     1      -8.820  15.453  69.297  1.00  0.00    -0.258 A  
HETATM   14  C   UNL     1      -7.572  13.246  68.153  1.00  0.00    -0.141 A  
HETATM   15  C   UNL     1      -6.967  13.926  69.203  1.00  0.00    -0.093 A  
HETATM   16  C   UNL     1      -7.580  15.025  69.782  1.00  0.00    -0.072 A  
ENDROOT
BRANCH   8  17
HETATM   17  C   UNL     1     -12.780  14.615  69.323  1.00  0.00     0.273 C  
BRANCH  17  18
HETATM   18  C   UNL     1     -12.715  14.317  70.825  1.00  0.00    -0.350 C  
BRANCH  18  19
HETATM   19  N   UNL     1     -12.040  13.094  71.262  1.00  0.00     0.033 NA 
HETATM   20  C   UNL     1     -13.464  10.919  71.229  1.00  0.00     0.055 C  
HETATM   21  C   UNL     1     -12.834  12.103  72.003  1.00  0.00    -0.151 C  
HETATM   22  C   UNL     1     -12.675  10.420  69.999  1.00  0.00    -0.007 C  
HETATM   23  C   UNL     1     -12.206  11.662  69.242  1.00  0.00    -0.228 C  
HETATM   24  C   UNL     1     -11.301  12.487  70.150  1.00  0.00     0.253 C  
BRANCH  22  25
HETATM   25  N   UNL     1     -11.582   9.465  70.237  1.00  0.00    -0.193 N  
HETATM   26  C   UNL     1     -11.251   8.797  71.441  1.00  0.00    -0.292 C  
HETATM   27  O   UNL     1     -11.812   8.833  72.522  1.00  0.00    -0.334 OA 
HETATM   28  N   UNL     1     -10.102   8.036  71.180  1.00  0.00    -0.187 NA 
HETATM   29  C   UNL     1      -9.711   8.229  69.868  1.00  0.00    -0.180 A  
HETATM   30  C   UNL     1      -8.619   7.697  69.207  1.00  0.00    -0.136 A  
HETATM   31  C   UNL     1      -8.425   8.096  67.888  1.00  0.00    -0.132 A  
HETATM   32  C   UNL     1      -9.315   8.992  67.266  1.00  0.00    -0.172 A  
HETATM   33  C   UNL     1     -10.433   9.491  67.951  1.00  0.00    -0.293 A  
HETATM   34  C   UNL     1     -10.608   9.107  69.267  1.00  0.00    -0.216 A  
ENDBRANCH  22  25
ENDBRANCH  18  19
ENDBRANCH  17  18
ENDBRANCH   8  17
TORSDOF 4
ENDMDL
MODEL      162
REMARK 921   NORMALIZED FREE ENERGY PREDICTED BY IDOCK:   -5.04 KCAL/MOL
REMARK 922        TOTAL FREE ENERGY PREDICTED BY IDOCK:   -7.01 KCAL/MOL
REMARK 923 INTER-LIGAND FREE ENERGY PREDICTED BY IDOCK:   -7.06 KCAL/MOL
REMARK 924 INTRA-LIGAND FREE ENERGY PREDICTED BY IDOCK:    0.05 KCAL/MOL
REMARK 927      BINDING AFFINITY PREDICTED BY RF-SCORE:    0.00 PKD
ROOT
HETATM    1  F   UNL     1      -6.160   5.036  64.719  1.00  0.00    -0.023 F  
HETATM    2  C   UNL     1      -6.944   6.008  65.205  1.00  0.00    -0.060 A  
HETATM    3  C   UNL     1      -8.257   5.726  65.552  1.00  0.00    -0.132 A  
HETATM    4  C   UNL     1      -9.079   6.747  66.045  1.00  0.00    -0.103 A  
HETATM    5  C   UNL     1      -8.593   8.061  66.198  1.00  0.00    -0.163 A  
HETATM    6  C   UNL     1      -9.541   9.179  66.670  1.00  0.00    -0.263 C  
HETATM    7  C   UNL     1      -7.257   8.308  65.835  1.00  0.00    -0.072 A  
HETATM    8  C   UNL     1      -9.176   9.808  68.051  1.00  0.00    -0.131 C  
HETATM    9  C   UNL     1      -6.436   7.290  65.344  1.00  0.00    -0.044 A  
HETATM   10  C   UNL     1     -10.016  10.170  65.597  1.00  0.00    -0.348 A  
HETATM   11  C   UNL     1      -9.564  10.134  64.268  1.00  0.00    -0.354 A  
HETATM   12  F   UNL     1     -11.620  12.695  62.718  1.00  0.00    -0.331 F  
HETATM   13  C   UNL     1     -11.035  11.088  65.916  1.00  0.00    -0.115 A  
HETATM   14  C   UNL     1     -10.094  10.996  63.300  1.00  0.00    -0.400 A  
HETATM   15  C   UNL     1     -11.095  11.893  63.653  1.00  0.00    -0.440 A  
HETATM   16  C   UNL     1     -11.570  11.950  64.953  1.00  0.00    -0.290 A  
ENDROOT
BRANCH   8  17
HETATM   17  C   UNL     1      -7.814  10.473  68.290  1.00  0.00    -0.111 C  
BRANCH  17  18
HETATM   18  C   UNL     1      -7.500  11.795  67.581  1.00  0.00    -0.123 C  
BRANCH  18  19
HETATM   19  N   UNL     1      -7.826  13.046  68.267  1.00  0.00    -0.136 NA 
HETATM   20  C   UNL     1      -9.327  14.718  66.958  1.00  0.00    -0.245 C  
HETATM   21  C   UNL     1      -7.931  14.265  67.451  1.00  0.00    -0.192 C  
HETATM   22  C   UNL     1     -10.513  14.383  67.888  1.00  0.00    -0.239 C  
HETATM   23  C   UNL     1     -10.303  12.948  68.371  1.00  0.00    -0.249 C  
HETATM   24  C   UNL     1      -8.991  12.868  69.141  1.00  0.00     0.732 C  
BRANCH  22  25
HETATM   25  N   UNL     1     -10.788  15.310  68.995  1.00  0.00    -0.233 N  
HETATM   26  C   UNL     1     -10.299  16.627  69.175  1.00  0.00    -0.326 C  
HETATM   27  O   UNL     1      -9.586  17.291  68.445  1.00  0.00    -0.264 OA 
HETATM   28  N   UNL     1     -10.800  17.081  70.405  1.00  0.00     0.231 NA 
HETATM   29  C   UNL     1     -11.559  16.085  70.989  1.00  0.00    -0.431 A  
HETATM   30  C   UNL     1     -12.206  16.098  72.210  1.00  0.00    -0.577 A  
HETATM   31  C   UNL     1     -12.867  14.933  72.587  1.00  0.00    -0.483 A  
HETATM   32  C   UNL     1     -12.876  13.804  71.745  1.00  0.00    -0.415 A  
HETATM   33  C   UNL     1     -12.237  13.829  70.496  1.00  0.00    -0.440 A  
HETATM   34  C   UNL     1     -11.565  14.982  70.138  1.00  0.00    -0.287 A  
ENDBRANCH  22  25
ENDBRANCH  18  19
ENDBRANCH  17  18
ENDBRANCH   8  17
TORSDOF 4
ENDMDL
MODEL      163
REMARK 921   NORMALIZED FREE ENERGY PREDICTED BY IDOCK:   -5.04 KCAL/MOL
REMARK 922        TOTAL FREE ENERGY PREDICTED BY IDOCK:   -7.00 KCAL/MOL
REMARK 923 INTER-LIGAND FREE ENERGY PREDICTED BY IDOCK:   -6.99 KCAL/MOL
REMARK 924 INTRA-LIGAND FREE ENERGY PREDICTED BY IDOCK:   -0.01 KCAL/MOL
REMARK 927      BINDING AFFINITY PREDICTED BY RF-SCORE:    0.00 PKD
ROOT
HETATM    1  F   UNL     1     -12.950  14.643  70.057  1.00  0.00    -0.321 F  
HETATM    2  C   UNL     1     -11.916  14.010  69.488  1.00  0.00    -0.339 A  
HETATM    3  C   UNL     1     -10.901  14.744  68.892  1.00  0.00    -0.259 A  
HETATM    4  C   UNL     1      -9.830  14.079  68.282  1.00  0.00    -0.233 A  
HETATM    5  C   UNL     1      -9.764  12.670  68.265  1.00  0.00    -0.216 A  
HETATM    6  C   UNL     1      -8.613  11.967  67.522  1.00  0.00    -0.160 C  
HETATM    7  C   UNL     1     -10.811  11.962  68.878  1.00  0.00    -0.261 A  
HETATM    8  C   UNL     1      -7.655  11.138  68.432  1.00  0.00    -0.110 C  
HETATM    9  C   UNL     1     -11.880  12.624  69.487  1.00  0.00    -0.376 A  
HETATM   10  C   UNL     1      -8.965  11.322  66.173  1.00  0.00    -0.210 A  
HETATM   11  C   UNL     1     -10.272  11.288  65.658  1.00  0.00    -0.304 A  
HETATM   12  F   UNL     1      -9.736   9.841  62.371  1.00  0.00    -0.267 F  
HETATM   13  C   UNL     1      -7.928  10.841  65.352  1.00  0.00    -0.027 A  
HETATM   14  C   UNL     1     -10.534  10.775  64.382  1.00  0.00    -0.344 A  
HETATM   15  C   UNL     1      -9.485  10.304  63.602  1.00  0.00    -0.299 A  
HETATM   16  C   UNL     1      -8.183  10.330  64.075  1.00  0.00    -0.151 A  
ENDROOT
BRANCH   8  17
HETATM   17  C   UNL     1      -8.177   9.986  69.300  1.00  0.00    -0.147 C  
BRANCH  17  18
HETATM   18  C   UNL     1      -7.745   8.553  68.968  1.00  0.00    -0.096 C  
BRANCH  18  19
HETATM   19  N   UNL     1      -8.014   7.501  69.950  1.00  0.00    -0.120 NA 
HETATM   20  C   UNL     1     -10.495   6.758  70.190  1.00  0.00    -0.240 C  
HETATM   21  C   UNL     1      -9.279   7.571  70.697  1.00  0.00    -0.159 C  
HETATM   22  C   UNL     1     -10.167   5.430  69.473  1.00  0.00    -0.266 C  
HETATM   23  C   UNL     1      -8.993   5.713  68.536  1.00  0.00    -0.115 C  
HETATM   24  C   UNL     1      -7.798   6.176  69.359  1.00  0.00    -0.100 C  
BRANCH  22  25
HETATM   25  N   UNL     1      -9.938   4.246  70.313  1.00  0.00    -0.191 N  
HETATM   26  C   UNL     1      -9.546   2.947  69.906  1.00  0.00    -0.037 C  
HETATM   27  O   UNL     1      -9.275   2.538  68.791  1.00  0.00    -0.137 OA 
HETATM   28  N   UNL     1      -9.511   2.153  71.062  1.00  0.00    -0.135 NA 
HETATM   29  C   UNL     1      -9.885   2.913  72.154  1.00  0.00    -0.169 A  
HETATM   30  C   UNL     1     -10.016   2.521  73.473  1.00  0.00    -0.162 A  
HETATM   31  C   UNL     1     -10.460   3.482  74.376  1.00  0.00    -0.258 A  
HETATM   32  C   UNL     1     -10.748   4.793  73.951  1.00  0.00    -0.362 A  
HETATM   33  C   UNL     1     -10.576   5.172  72.611  1.00  0.00    -0.280 A  
HETATM   34  C   UNL     1     -10.154   4.207  71.716  1.00  0.00    -0.142 A  
ENDBRANCH  22  25
ENDBRANCH  18  19
ENDBRANCH  17  18
ENDBRANCH   8  17
TORSDOF 4
ENDMDL
MODEL      164
REMARK 921   NORMALIZED FREE ENERGY PREDICTED BY IDOCK:   -5.01 KCAL/MOL
REMARK 922        TOTAL FREE ENERGY PREDICTED BY IDOCK:   -6.96 KCAL/MOL
REMARK 923 INTER-LIGAND FREE ENERGY PREDICTED BY IDOCK:   -7.28 KCAL/MOL
REMARK 924 INTRA-LIGAND FREE ENERGY PREDICTED BY IDOCK:    0.32 KCAL/MOL
REMARK 927      BINDING AFFINITY PREDICTED BY RF-SCORE:    0.00 PKD
ROOT
HETATM    1  F   UNL     1     -12.592  13.456  62.850  1.00  0.00    -0.446 F  
HETATM    2  C   UNL     1     -12.086  12.872  63.944  1.00  0.00    -0.480 A  
HETATM    3  C   UNL     1     -12.501  13.285  65.201  1.00  0.00    -0.525 A  
HETATM    4  C   UNL     1     -11.958  12.685  66.343  1.00  0.00    -0.425 A  
HETATM    5  C   UNL     1     -10.994  11.661  66.238  1.00  0.00    -0.338 A  
HETATM    6  C   UNL     1     -10.359  11.072  67.511  1.00  0.00    -0.233 C  
HETATM    7  C   UNL     1     -10.598  11.270  64.947  1.00  0.00    -0.364 A  
HETATM    8  C   UNL     1     -10.672   9.564  67.762  1.00  0.00    -0.302 C  
HETATM    9  C   UNL     1     -11.140  11.869  63.807  1.00  0.00    -0.510 A  
HETATM   10  C   UNL     1      -8.919  11.509  67.821  1.00  0.00    -0.160 A  
HETATM   11  C   UNL     1      -8.169  12.333  66.967  1.00  0.00    -0.155 A  
HETATM   12  F   UNL     1      -5.160  12.883  68.924  1.00  0.00    -0.063 F  
HETATM   13  C   UNL     1      -8.353  11.170  69.064  1.00  0.00    -0.054 A  
HETATM   14  C   UNL     1      -6.895  12.785  67.332  1.00  0.00    -0.137 A  
HETATM   15  C   UNL     1      -6.366  12.426  68.566  1.00  0.00    -0.064 A  
HETATM   16  C   UNL     1      -7.083  11.620  69.436  1.00  0.00    -0.007 A  
ENDROOT
BRANCH   8  17
HETATM   17  C   UNL     1     -10.295   8.489  66.735  1.00  0.00    -0.346 C  
BRANCH  17  18
HETATM   18  C   UNL     1     -10.657   7.028  67.024  1.00  0.00    -0.341 C  
BRANCH  18  19
HETATM   19  N   UNL     1      -9.846   6.290  67.995  1.00  0.00    -0.121 NA 
HETATM   20  C   UNL     1      -9.194   7.573  70.160  1.00  0.00    -0.154 C  
HETATM   21  C   UNL     1      -8.834   7.042  68.751  1.00  0.00    -0.129 C  
HETATM   22  C   UNL     1     -10.193   6.718  70.969  1.00  0.00    -0.197 C  
HETATM   23  C   UNL     1     -11.304   6.305  70.003  1.00  0.00    -0.486 C  
HETATM   24  C   UNL     1     -10.700   5.482  68.872  1.00  0.00    -0.137 C  
BRANCH  22  25
HETATM   25  N   UNL     1      -9.654   5.575  71.720  1.00  0.00    -0.149 N  
HETATM   26  C   UNL     1     -10.227   4.909  72.831  1.00  0.00    -0.173 C  
HETATM   27  O   UNL     1     -11.298   5.105  73.379  1.00  0.00    -0.313 OA 
HETATM   28  N   UNL     1      -9.313   3.921  73.228  1.00  0.00    -0.108 NA 
HETATM   29  C   UNL     1      -8.198   3.972  72.413  1.00  0.00    -0.098 A  
HETATM   30  C   UNL     1      -7.051   3.203  72.474  1.00  0.00    -0.039 A  
HETATM   31  C   UNL     1      -6.047   3.495  71.555  1.00  0.00    -0.014 A  
HETATM   32  C   UNL     1      -6.212   4.523  70.607  1.00  0.00    -0.022 A  
HETATM   33  C   UNL     1      -7.401   5.267  70.548  1.00  0.00    -0.070 A  
HETATM   34  C   UNL     1      -8.385   4.985  71.477  1.00  0.00    -0.119 A  
ENDBRANCH  22  25
ENDBRANCH  18  19
ENDBRANCH  17  18
ENDBRANCH   8  17
TORSDOF 4
ENDMDL
MODEL      165
REMARK 921   NORMALIZED FREE ENERGY PREDICTED BY IDOCK:   -4.99 KCAL/MOL
REMARK 922        TOTAL FREE ENERGY PREDICTED BY IDOCK:   -6.94 KCAL/MOL
REMARK 923 INTER-LIGAND FREE ENERGY PREDICTED BY IDOCK:   -7.17 KCAL/MOL
REMARK 924 INTRA-LIGAND FREE ENERGY PREDICTED BY IDOCK:    0.23 KCAL/MOL
REMARK 927      BINDING AFFINITY PREDICTED BY RF-SCORE:    0.00 PKD
ROOT
HETATM    1  F   UNL     1     -13.438  15.609  72.344  1.00  0.00    -0.441 F  
HETATM    2  C   UNL     1     -12.631  15.154  71.376  1.00  0.00    -0.354 A  
HETATM    3  C   UNL     1     -11.661  15.988  70.838  1.00  0.00    -0.453 A  
HETATM    4  C   UNL     1     -10.830  15.515  69.815  1.00  0.00    -0.301 A  
HETATM    5  C   UNL     1     -10.960  14.201  69.321  1.00  0.00    -0.252 A  
HETATM    6  C   UNL     1     -10.083  13.733  68.145  1.00  0.00    -0.245 C  
HETATM    7  C   UNL     1     -11.954  13.386  69.892  1.00  0.00    -0.408 A  
HETATM    8  C   UNL     1      -9.087  12.582  68.487  1.00  0.00    -0.062 C  
HETATM    9  C   UNL     1     -12.783  13.857  70.913  1.00  0.00    -0.410 A  
HETATM   10  C   UNL     1     -10.776  13.625  66.778  1.00  0.00    -0.272 A  
HETATM   11  C   UNL     1     -12.150  13.852  66.596  1.00  0.00    -0.485 A  
HETATM   12  F   UNL     1     -12.467  13.617  62.986  1.00  0.00    -0.530 F  
HETATM   13  C   UNL     1      -9.994  13.399  65.630  1.00  0.00    -0.249 A  
HETATM   14  C   UNL     1     -12.723  13.835  65.319  1.00  0.00    -0.481 A  
HETATM   15  C   UNL     1     -11.920  13.604  64.209  1.00  0.00    -0.445 A  
HETATM   16  C   UNL     1     -10.560  13.384  64.351  1.00  0.00    -0.423 A  
ENDROOT
BRANCH   8  17
HETATM   17  C   UNL     1      -9.581  11.233  69.024  1.00  0.00    -0.048 C  
BRANCH  17  18
HETATM   18  C   UNL     1      -9.751  10.064  68.048  1.00  0.00    -0.139 C  
BRANCH  18  19
HETATM   19  N   UNL     1      -9.232   8.751  68.437  1.00  0.00    -0.138 NA 
HETATM   20  C   UNL     1      -6.644   8.502  68.468  1.00  0.00    -0.059 C  
HETATM   21  C   UNL     1      -8.008   8.277  67.773  1.00  0.00    -0.122 C  
HETATM   22  C   UNL     1      -6.663   8.491  70.012  1.00  0.00    -0.042 C  
HETATM   23  C   UNL     1      -7.882   9.305  70.444  1.00  0.00    -0.158 C  
HETATM   24  C   UNL     1      -9.142   8.644  69.897  1.00  0.00    -0.151 C  
BRANCH  22  25
HETATM   25  N   UNL     1      -6.599   7.184  70.681  1.00  0.00    -0.047 N  
HETATM   26  C   UNL     1      -6.980   5.920  70.169  1.00  0.00    -0.069 C  
HETATM   27  O   UNL     1      -7.402   5.631  69.063  1.00  0.00    -0.078 OA 
HETATM   28  N   UNL     1      -6.781   4.987  71.199  1.00  0.00    -0.038 NA 
HETATM   29  C   UNL     1      -6.311   5.638  72.323  1.00  0.00    -0.048 A  
HETATM   30  C   UNL     1      -6.014   5.108  73.565  1.00  0.00    -0.031 A  
HETATM   31  C   UNL     1      -5.600   6.000  74.549  1.00  0.00    -0.050 A  
HETATM   32  C   UNL     1      -5.483   7.376  74.274  1.00  0.00    -0.058 A  
HETATM   33  C   UNL     1      -5.761   7.883  72.995  1.00  0.00    -0.046 A  
HETATM   34  C   UNL     1      -6.192   6.994  72.028  1.00  0.00    -0.041 A  
ENDBRANCH  22  25
ENDBRANCH  18  19
ENDBRANCH  17  18
ENDBRANCH   8  17
TORSDOF 4
ENDMDL
MODEL      166
REMARK 921   NORMALIZED FREE ENERGY PREDICTED BY IDOCK:   -4.97 KCAL/MOL
REMARK 922        TOTAL FREE ENERGY PREDICTED BY IDOCK:   -6.92 KCAL/MOL
REMARK 923 INTER-LIGAND FREE ENERGY PREDICTED BY IDOCK:   -5.72 KCAL/MOL
REMARK 924 INTRA-LIGAND FREE ENERGY PREDICTED BY IDOCK:   -1.19 KCAL/MOL
REMARK 927      BINDING AFFINITY PREDICTED BY RF-SCORE:    0.00 PKD
ROOT
HETATM    1  F   UNL     1      -9.784  14.903  66.405  1.00  0.00    -0.239 F  
HETATM    2  C   UNL     1      -9.960  13.600  66.660  1.00  0.00    -0.283 A  
HETATM    3  C   UNL     1     -11.159  12.987  66.327  1.00  0.00    -0.314 A  
HETATM    4  C   UNL     1     -11.346  11.629  66.611  1.00  0.00    -0.338 A  
HETATM    5  C   UNL     1     -10.332  10.869  67.230  1.00  0.00    -0.255 A  
HETATM    6  C   UNL     1     -10.594   9.397  67.597  1.00  0.00    -0.333 C  
HETATM    7  C   UNL     1      -9.132  11.525  67.552  1.00  0.00    -0.166 A  
HETATM    8  C   UNL     1      -9.707   8.363  66.837  1.00  0.00    -0.292 C  
HETATM    9  C   UNL     1      -8.944  12.880  67.269  1.00  0.00    -0.208 A  
HETATM   10  C   UNL     1     -10.832   9.096  69.085  1.00  0.00    -0.131 A  
HETATM   11  C   UNL     1     -10.739  10.075  70.087  1.00  0.00    -0.361 A  
HETATM   12  F   UNL     1     -11.813   8.230  73.025  1.00  0.00    -0.452 F  
HETATM   13  C   UNL     1     -11.273   7.814  69.463  1.00  0.00     0.097 A  
HETATM   14  C   UNL     1     -11.056   9.779  71.419  1.00  0.00    -0.317 A  
HETATM   15  C   UNL     1     -11.484   8.501  71.756  1.00  0.00    -0.310 A  
HETATM   16  C   UNL     1     -11.593   7.513  70.791  1.00  0.00    -0.300 A  
ENDROOT
BRANCH   8  17
HETATM   17  C   UNL     1      -8.176   8.407  66.925  1.00  0.00    -0.103 C  
BRANCH  17  18
HETATM   18  C   UNL     1      -7.385   7.106  66.753  1.00  0.00    -0.084 C  
BRANCH  18  19
HETATM   19  N   UNL     1      -6.768   6.506  67.937  1.00  0.00    -0.065 NA 
HETATM   20  C   UNL     1      -7.666   7.317  70.238  1.00  0.00    -0.094 C  
HETATM   21  C   UNL     1      -6.593   7.358  69.122  1.00  0.00    -0.040 C  
HETATM   22  C   UNL     1      -8.381   5.963  70.437  1.00  0.00    -0.123 C  
HETATM   23  C   UNL     1      -8.710   5.429  69.043  1.00  0.00    -0.103 C  
HETATM   24  C   UNL     1      -7.414   5.231  68.266  1.00  0.00    -0.076 C  
BRANCH  22  25
HETATM   25  N   UNL     1      -7.710   4.959  71.275  1.00  0.00    -0.085 N  
HETATM   26  C   UNL     1      -6.325   4.817  71.530  1.00  0.00    -0.022 C  
HETATM   27  O   UNL     1      -5.396   5.509  71.151  1.00  0.00    -0.008 OA 
HETATM   28  N   UNL     1      -6.175   3.684  72.344  1.00  0.00    -0.013 NA 
HETATM   29  C   UNL     1      -7.415   3.120  72.579  1.00  0.00    -0.052 A  
HETATM   30  C   UNL     1      -7.721   1.981  73.300  1.00  0.00    -0.042 A  
HETATM   31  C   UNL     1      -9.059   1.601  73.341  1.00  0.00    -0.065 A  
HETATM   32  C   UNL     1     -10.045   2.358  72.680  1.00  0.00    -0.224 A  
HETATM   33  C   UNL     1      -9.710   3.528  71.982  1.00  0.00    -0.232 A  
HETATM   34  C   UNL     1      -8.377   3.889  71.929  1.00  0.00    -0.090 A  
ENDBRANCH  22  25
ENDBRANCH  18  19
ENDBRANCH  17  18
ENDBRANCH   8  17
TORSDOF 4
ENDMDL
MODEL      167
REMARK 921   NORMALIZED FREE ENERGY PREDICTED BY IDOCK:   -4.96 KCAL/MOL
REMARK 922        TOTAL FREE ENERGY PREDICTED BY IDOCK:   -6.91 KCAL/MOL
REMARK 923 INTER-LIGAND FREE ENERGY PREDICTED BY IDOCK:   -7.19 KCAL/MOL
REMARK 924 INTRA-LIGAND FREE ENERGY PREDICTED BY IDOCK:    0.28 KCAL/MOL
REMARK 927      BINDING AFFINITY PREDICTED BY RF-SCORE:    0.00 PKD
ROOT
HETATM    1  F   UNL     1      -9.122   8.823  62.413  1.00  0.00    -0.208 F  
HETATM    2  C   UNL     1      -8.652   8.967  63.658  1.00  0.00    -0.087 A  
HETATM    3  C   UNL     1      -7.980   7.917  64.268  1.00  0.00    -0.130 A  
HETATM    4  C   UNL     1      -7.505   8.064  65.577  1.00  0.00    -0.081 A  
HETATM    5  C   UNL     1      -7.694   9.267  66.288  1.00  0.00    -0.096 A  
HETATM    6  C   UNL     1      -7.227   9.373  67.751  1.00  0.00    -0.083 C  
HETATM    7  C   UNL     1      -8.379  10.308  65.637  1.00  0.00    -0.159 A  
HETATM    8  C   UNL     1      -6.092  10.414  68.003  1.00  0.00    -0.047 C  
HETATM    9  C   UNL     1      -8.854  10.161  64.331  1.00  0.00    -0.234 A  
HETATM   10  C   UNL     1      -8.325   9.320  68.825  1.00  0.00    -0.117 A  
HETATM   11  C   UNL     1      -9.694   9.262  68.517  1.00  0.00    -0.162 A  
HETATM   12  F   UNL     1     -11.176   8.854  71.807  1.00  0.00    -0.337 F  
HETATM   13  C   UNL     1      -7.955   9.210  70.178  1.00  0.00    -0.124 A  
HETATM   14  C   UNL     1     -10.656   9.119  69.523  1.00  0.00    -0.233 A  
HETATM   15  C   UNL     1     -10.254   9.019  70.849  1.00  0.00    -0.257 A  
HETATM   16  C   UNL     1      -8.912   9.065  71.188  1.00  0.00    -0.303 A  
ENDROOT
BRANCH   8  17
HETATM   17  C   UNL     1      -6.277  11.897  67.658  1.00  0.00    -0.083 C  
BRANCH  17  18
HETATM   18  C   UNL     1      -7.666  12.527  67.815  1.00  0.00    -0.142 C  
BRANCH  18  19
HETATM   19  N   UNL     1      -7.854  13.912  67.382  1.00  0.00    -0.177 NA 
HETATM   20  C   UNL     1      -9.359  15.396  68.897  1.00  0.00    -0.218 C  
HETATM   21  C   UNL     1      -9.165  14.532  67.627  1.00  0.00    -0.195 C  
HETATM   22  C   UNL     1      -8.111  16.157  69.393  1.00  0.00    -0.097 C  
HETATM   23  C   UNL     1      -6.936  15.183  69.306  1.00  0.00    -0.161 C  
HETATM   24  C   UNL     1      -6.750  14.755  67.855  1.00  0.00    -0.163 C  
BRANCH  22  25
HETATM   25  N   UNL     1      -7.811  17.451  68.762  1.00  0.00    -0.267 N  
HETATM   26  C   UNL     1      -6.609  18.197  68.826  1.00  0.00    -0.237 C  
HETATM   27  O   UNL     1      -5.558  17.921  69.376  1.00  0.00    -0.191 OA 
HETATM   28  N   UNL     1      -6.829  19.383  68.108  1.00  0.00    -0.259 NA 
HETATM   29  C   UNL     1      -8.124  19.395  67.626  1.00  0.00    -0.282 A  
HETATM   30  C   UNL     1      -8.764  20.380  66.898  1.00  0.00    -0.345 A  
HETATM   31  C   UNL     1     -10.100  20.161  66.576  1.00  0.00    -0.577 A  
HETATM   32  C   UNL     1     -10.753  18.978  66.973  1.00  0.00    -0.516 A  
HETATM   33  C   UNL     1     -10.070  17.980  67.684  1.00  0.00    -0.352 A  
HETATM   34  C   UNL     1      -8.749  18.214  68.018  1.00  0.00    -0.269 A  
ENDBRANCH  22  25
ENDBRANCH  18  19
ENDBRANCH  17  18
ENDBRANCH   8  17
TORSDOF 4
ENDMDL
MODEL      168
REMARK 921   NORMALIZED FREE ENERGY PREDICTED BY IDOCK:   -4.94 KCAL/MOL
REMARK 922        TOTAL FREE ENERGY PREDICTED BY IDOCK:   -6.88 KCAL/MOL
REMARK 923 INTER-LIGAND FREE ENERGY PREDICTED BY IDOCK:   -6.80 KCAL/MOL
REMARK 924 INTRA-LIGAND FREE ENERGY PREDICTED BY IDOCK:   -0.08 KCAL/MOL
REMARK 927      BINDING AFFINITY PREDICTED BY RF-SCORE:    0.00 PKD
ROOT
HETATM    1  F   UNL     1     -13.598  15.355  72.848  1.00  0.00    -0.482 F  
HETATM    2  C   UNL     1     -12.849  14.890  71.839  1.00  0.00    -0.328 A  
HETATM    3  C   UNL     1     -11.755  15.622  71.399  1.00  0.00    -0.491 A  
HETATM    4  C   UNL     1     -10.984  15.142  70.333  1.00  0.00    -0.268 A  
HETATM    5  C   UNL     1     -11.299  13.923  69.698  1.00  0.00    -0.259 A  
HETATM    6  C   UNL     1     -10.478  13.459  68.481  1.00  0.00    -0.260 C  
HETATM    7  C   UNL     1     -12.414  13.211  70.172  1.00  0.00    -0.192 A  
HETATM    8  C   UNL     1      -9.672  12.141  68.698  1.00  0.00    -0.090 C  
HETATM    9  C   UNL     1     -13.184  13.689  71.236  1.00  0.00    -0.308 A  
HETATM   10  C   UNL     1     -11.152  13.603  67.108  1.00  0.00    -0.311 A  
HETATM   11  C   UNL     1     -12.473  14.052  66.947  1.00  0.00    -0.187 A  
HETATM   12  F   UNL     1     -12.751  14.258  63.332  1.00  0.00    -0.242 F  
HETATM   13  C   UNL     1     -10.390  13.388  65.944  1.00  0.00    -0.290 A  
HETATM   14  C   UNL     1     -13.017  14.259  65.674  1.00  0.00    -0.210 A  
HETATM   15  C   UNL     1     -12.236  14.032  64.548  1.00  0.00    -0.434 A  
HETATM   16  C   UNL     1     -10.927  13.595  64.670  1.00  0.00    -0.403 A  
ENDROOT
BRANCH   8  17
HETATM   17  C   UNL     1     -10.372  10.831  69.082  1.00  0.00    -0.238 C  
BRANCH  17  18
HETATM   18  C   UNL     1     -10.558   9.748  68.014  1.00  0.00    -0.243 C  
BRANCH  18  19
HETATM   19  N   UNL     1      -9.420   8.884  67.695  1.00  0.00    -0.136 NA 
HETATM   20  C   UNL     1      -7.754   8.413  69.635  1.00  0.00    -0.095 C  
HETATM   21  C   UNL     1      -8.134   9.180  68.345  1.00  0.00    -0.104 C  
HETATM   22  C   UNL     1      -8.289   6.969  69.746  1.00  0.00    -0.132 C  
HETATM   23  C   UNL     1      -9.744   7.001  69.278  1.00  0.00    -0.158 C  
HETATM   24  C   UNL     1      -9.792   7.471  67.830  1.00  0.00    -0.155 C  
BRANCH  22  25
HETATM   25  N   UNL     1      -7.513   5.908  69.087  1.00  0.00    -0.083 N  
HETATM   26  C   UNL     1      -6.279   6.023  68.402  1.00  0.00    -0.029 C  
HETATM   27  O   UNL     1      -5.575   7.004  68.242  1.00  0.00    -0.019 OA 
HETATM   28  N   UNL     1      -5.970   4.748  67.905  1.00  0.00    -0.022 NA 
HETATM   29  C   UNL     1      -6.978   3.865  68.246  1.00  0.00    -0.051 A  
HETATM   30  C   UNL     1      -7.090   2.524  67.932  1.00  0.00    -0.048 A  
HETATM   31  C   UNL     1      -8.242   1.870  68.361  1.00  0.00    -0.072 A  
HETATM   32  C   UNL     1      -9.233   2.556  69.089  1.00  0.00    -0.199 A  
HETATM   33  C   UNL     1      -9.077   3.911  69.421  1.00  0.00    -0.196 A  
HETATM   34  C   UNL     1      -7.941   4.558  68.974  1.00  0.00    -0.070 A  
ENDBRANCH  22  25
ENDBRANCH  18  19
ENDBRANCH  17  18
ENDBRANCH   8  17
TORSDOF 4
ENDMDL
MODEL      169
REMARK 921   NORMALIZED FREE ENERGY PREDICTED BY IDOCK:   -4.92 KCAL/MOL
REMARK 922        TOTAL FREE ENERGY PREDICTED BY IDOCK:   -6.85 KCAL/MOL
REMARK 923 INTER-LIGAND FREE ENERGY PREDICTED BY IDOCK:   -6.65 KCAL/MOL
REMARK 924 INTRA-LIGAND FREE ENERGY PREDICTED BY IDOCK:   -0.21 KCAL/MOL
REMARK 927      BINDING AFFINITY PREDICTED BY RF-SCORE:    0.00 PKD
ROOT
HETATM    1  F   UNL     1      -9.596   4.207  69.023  1.00  0.00    -0.204 F  
HETATM    2  C   UNL     1      -9.665   5.348  68.324  1.00  0.00    -0.135 A  
HETATM    3  C   UNL     1     -10.507   5.434  67.225  1.00  0.00    -0.274 A  
HETATM    4  C   UNL     1     -10.564   6.621  66.486  1.00  0.00    -0.096 A  
HETATM    5  C   UNL     1      -9.780   7.738  66.842  1.00  0.00    -0.282 A  
HETATM    6  C   UNL     1      -9.808   9.004  65.967  1.00  0.00    -0.312 C  
HETATM    7  C   UNL     1      -8.939   7.613  67.961  1.00  0.00    -0.126 A  
HETATM    8  C   UNL     1     -10.383  10.274  66.668  1.00  0.00    -0.283 C  
HETATM    9  C   UNL     1      -8.882   6.428  68.699  1.00  0.00    -0.120 A  
HETATM   10  C   UNL     1      -8.583   9.242  65.071  1.00  0.00    -0.200 A  
HETATM   11  C   UNL     1      -7.449   8.413  65.089  1.00  0.00    -0.084 A  
HETATM   12  F   UNL     1      -5.475   9.801  62.375  1.00  0.00    -0.086 F  
HETATM   13  C   UNL     1      -8.628  10.265  64.104  1.00  0.00    -0.198 A  
HETATM   14  C   UNL     1      -6.394   8.611  64.189  1.00  0.00    -0.071 A  
HETATM   15  C   UNL     1      -6.473   9.633  63.252  1.00  0.00    -0.110 A  
HETATM   16  C   UNL     1      -7.579  10.465  63.202  1.00  0.00    -0.092 A  
ENDROOT
BRANCH   8  17
HETATM   17  C   UNL     1      -9.754  10.831  67.951  1.00  0.00    -0.181 C  
BRANCH  17  18
HETATM   18  C   UNL     1     -10.490  11.936  68.718  1.00  0.00    -0.184 C  
BRANCH  18  19
HETATM   19  N   UNL     1     -10.647  13.242  68.076  1.00  0.00    -0.234 NA 
HETATM   20  C   UNL     1     -10.559  15.313  69.644  1.00  0.00    -0.285 C  
HETATM   21  C   UNL     1     -11.370  14.285  68.818  1.00  0.00    -0.275 C  
HETATM   22  C   UNL     1      -9.163  15.673  69.093  1.00  0.00    -0.254 C  
HETATM   23  C   UNL     1      -8.510  14.363  68.655  1.00  0.00    -0.156 C  
HETATM   24  C   UNL     1      -9.359  13.723  67.563  1.00  0.00    -0.222 C  
BRANCH  22  25
HETATM   25  N   UNL     1      -9.093  16.708  68.050  1.00  0.00    -0.215 N  
HETATM   26  C   UNL     1     -10.117  17.132  67.170  1.00  0.00    -0.295 C  
HETATM   27  O   UNL     1     -11.279  16.770  67.106  1.00  0.00     0.037 OA 
HETATM   28  N   UNL     1      -9.551  18.101  66.326  1.00  0.00    -0.440 NA 
HETATM   29  C   UNL     1      -8.218  18.269  66.648  1.00  0.00    -0.262 A  
HETATM   30  C   UNL     1      -7.285  19.096  66.052  1.00  0.00    -0.298 A  
HETATM   31  C   UNL     1      -5.984  19.037  66.543  1.00  0.00    -0.181 A  
HETATM   32  C   UNL     1      -5.652  18.176  67.606  1.00  0.00    -0.150 A  
HETATM   33  C   UNL     1      -6.627  17.370  68.214  1.00  0.00    -0.174 A  
HETATM   34  C   UNL     1      -7.912  17.419  67.708  1.00  0.00    -0.205 A  
ENDBRANCH  22  25
ENDBRANCH  18  19
ENDBRANCH  17  18
ENDBRANCH   8  17
TORSDOF 4
ENDMDL
MODEL      170
REMARK 921   NORMALIZED FREE ENERGY PREDICTED BY IDOCK:   -4.87 KCAL/MOL
REMARK 922        TOTAL FREE ENERGY PREDICTED BY IDOCK:   -6.79 KCAL/MOL
REMARK 923 INTER-LIGAND FREE ENERGY PREDICTED BY IDOCK:   -8.14 KCAL/MOL
REMARK 924 INTRA-LIGAND FREE ENERGY PREDICTED BY IDOCK:    1.34 KCAL/MOL
REMARK 927      BINDING AFFINITY PREDICTED BY RF-SCORE:    0.00 PKD
ROOT
HETATM    1  F   UNL     1     -11.377   1.469  74.194  1.00  0.00    -0.187 F  
HETATM    2  C   UNL     1     -10.962   2.469  73.405  1.00  0.00    -0.193 A  
HETATM    3  C   UNL     1     -10.098   2.204  72.353  1.00  0.00    -0.227 A  
HETATM    4  C   UNL     1      -9.652   3.254  71.541  1.00  0.00    -0.234 A  
HETATM    5  C   UNL     1     -10.070   4.580  71.772  1.00  0.00    -0.254 A  
HETATM    6  C   UNL     1      -9.504   5.724  70.909  1.00  0.00    -0.196 C  
HETATM    7  C   UNL     1     -10.946   4.809  72.847  1.00  0.00    -0.312 A  
HETATM    8  C   UNL     1     -10.558   6.462  70.027  1.00  0.00    -0.291 C  
HETATM    9  C   UNL     1     -11.391   3.762  73.658  1.00  0.00    -0.231 A  
HETATM   10  C   UNL     1      -8.451   6.624  71.574  1.00  0.00    -0.120 A  
HETATM   11  C   UNL     1      -8.066   6.488  72.918  1.00  0.00    -0.105 A  
HETATM   12  F   UNL     1      -5.365   8.902  73.161  1.00  0.00    -0.060 F  
HETATM   13  C   UNL     1      -7.751   7.556  70.785  1.00  0.00    -0.083 A  
HETATM   14  C   UNL     1      -7.035   7.266  73.457  1.00  0.00    -0.072 A  
HETATM   15  C   UNL     1      -6.370   8.180  72.649  1.00  0.00    -0.079 A  
HETATM   16  C   UNL     1      -6.718   8.334  71.318  1.00  0.00    -0.050 A  
ENDROOT
BRANCH   8  17
HETATM   17  C   UNL     1     -11.777   7.155  70.650  1.00  0.00    -0.348 C  
BRANCH  17  18
HETATM   18  C   UNL     1     -11.589   7.971  71.933  1.00  0.00    -0.298 C  
BRANCH  18  19
HETATM   19  N   UNL     1     -11.251   9.390  71.812  1.00  0.00    -0.360 NA 
HETATM   20  C   UNL     1     -10.931  10.293  69.394  1.00  0.00    -0.289 C  
HETATM   21  C   UNL     1     -10.336   9.783  70.730  1.00  0.00    -0.228 C  
HETATM   22  C   UNL     1     -12.273  11.049  69.498  1.00  0.00    -0.282 C  
HETATM   23  C   UNL     1     -13.149  10.261  70.472  1.00  0.00    -0.198 C  
HETATM   24  C   UNL     1     -12.464  10.214  71.832  1.00  0.00    -0.282 C  
BRANCH  22  25
HETATM   25  N   UNL     1     -12.220  12.480  69.827  1.00  0.00    -0.190 N  
HETATM   26  C   UNL     1     -12.614  13.116  71.030  1.00  0.00    -0.312 C  
HETATM   27  O   UNL     1     -13.040  12.623  72.059  1.00  0.00    -0.411 OA 
HETATM   28  N   UNL     1     -12.422  14.494  70.843  1.00  0.00    -0.320 NA 
HETATM   29  C   UNL     1     -11.944  14.722  69.566  1.00  0.00    -0.311 A  
HETATM   30  C   UNL     1     -11.650  15.928  68.959  1.00  0.00    -0.392 A  
HETATM   31  C   UNL     1     -11.226  15.881  67.635  1.00  0.00    -0.219 A  
HETATM   32  C   UNL     1     -11.098  14.651  66.961  1.00  0.00    -0.333 A  
HETATM   33  C   UNL     1     -11.372  13.439  67.612  1.00  0.00    -0.321 A  
HETATM   34  C   UNL     1     -11.813  13.495  68.921  1.00  0.00    -0.345 A  
ENDBRANCH  22  25
ENDBRANCH  18  19
ENDBRANCH  17  18
ENDBRANCH   8  17
TORSDOF 4
ENDMDL
MODEL      171
REMARK 921   NORMALIZED FREE ENERGY PREDICTED BY IDOCK:   -4.85 KCAL/MOL
REMARK 922        TOTAL FREE ENERGY PREDICTED BY IDOCK:   -6.77 KCAL/MOL
REMARK 923 INTER-LIGAND FREE ENERGY PREDICTED BY IDOCK:   -7.21 KCAL/MOL
REMARK 924 INTRA-LIGAND FREE ENERGY PREDICTED BY IDOCK:    0.43 KCAL/MOL
REMARK 927      BINDING AFFINITY PREDICTED BY RF-SCORE:    0.00 PKD
ROOT
HETATM    1  F   UNL     1     -12.695  12.167  62.872  1.00  0.00    -0.521 F  
HETATM    2  C   UNL     1     -12.286  12.744  64.010  1.00  0.00    -0.411 A  
HETATM    3  C   UNL     1     -12.027  14.106  64.038  1.00  0.00    -0.359 A  
HETATM    4  C   UNL     1     -11.583  14.703  65.224  1.00  0.00    -0.354 A  
HETATM    5  C   UNL     1     -11.397  13.941  66.396  1.00  0.00    -0.335 A  
HETATM    6  C   UNL     1     -10.837  14.611  67.665  1.00  0.00    -0.284 C  
HETATM    7  C   UNL     1     -11.671  12.564  66.328  1.00  0.00    -0.462 A  
HETATM    8  C   UNL     1     -11.818  14.642  68.877  1.00  0.00    -0.344 C  
HETATM    9  C   UNL     1     -12.113  11.968  65.145  1.00  0.00    -0.165 A  
HETATM   10  C   UNL     1      -9.371  14.305  68.008  1.00  0.00    -0.200 A  
HETATM   11  C   UNL     1      -8.585  13.403  67.272  1.00  0.00    -0.216 A  
HETATM   12  F   UNL     1      -5.333  13.807  68.837  1.00  0.00    -0.069 F  
HETATM   13  C   UNL     1      -8.740  15.035  69.032  1.00  0.00    -0.203 A  
HETATM   14  C   UNL     1      -7.227  13.224  67.560  1.00  0.00    -0.157 A  
HETATM   15  C   UNL     1      -6.639  13.960  68.582  1.00  0.00    -0.095 A  
HETATM   16  C   UNL     1      -7.383  14.863  69.323  1.00  0.00    -0.175 A  
ENDROOT
BRANCH   8  17
HETATM   17  C   UNL     1     -12.394  13.351  69.472  1.00  0.00    -0.155 C  
BRANCH  17  18
HETATM   18  C   UNL     1     -11.754  12.011  69.093  1.00  0.00    -0.330 C  
BRANCH  18  19
HETATM   19  N   UNL     1     -11.041  11.264  70.130  1.00  0.00    -0.068 NA 
HETATM   20  C   UNL     1     -12.136   9.035  70.903  1.00  0.00    -0.247 C  
HETATM   21  C   UNL     1     -11.845  10.539  71.126  1.00  0.00    -0.295 C  
HETATM   22  C   UNL     1     -11.042   8.239  70.159  1.00  0.00    -0.189 C  
HETATM   23  C   UNL     1     -10.581   9.108  68.990  1.00  0.00    -0.219 C  
HETATM   24  C   UNL     1     -10.007  10.411  69.533  1.00  0.00    -0.202 C  
BRANCH  22  25
HETATM   25  N   UNL     1      -9.916   7.731  70.955  1.00  0.00    -0.178 N  
HETATM   26  C   UNL     1      -9.701   7.861  72.349  1.00  0.00    -0.213 C  
HETATM   27  O   UNL     1     -10.409   8.380  73.193  1.00  0.00    -0.094 OA 
HETATM   28  N   UNL     1      -8.464   7.257  72.627  1.00  0.00    -0.106 NA 
HETATM   29  C   UNL     1      -7.911   6.781  71.454  1.00  0.00    -0.109 A  
HETATM   30  C   UNL     1      -6.695   6.150  71.268  1.00  0.00    -0.055 A  
HETATM   31  C   UNL     1      -6.352   5.813  69.962  1.00  0.00    -0.031 A  
HETATM   32  C   UNL     1      -7.220   6.099  68.891  1.00  0.00    -0.084 A  
HETATM   33  C   UNL     1      -8.463   6.712  69.112  1.00  0.00    -0.124 A  
HETATM   34  C   UNL     1      -8.788   7.063  70.409  1.00  0.00    -0.155 A  
ENDBRANCH  22  25
ENDBRANCH  18  19
ENDBRANCH  17  18
ENDBRANCH   8  17
TORSDOF 4
ENDMDL
MODEL      172
REMARK 921   NORMALIZED FREE ENERGY PREDICTED BY IDOCK:   -4.82 KCAL/MOL
REMARK 922        TOTAL FREE ENERGY PREDICTED BY IDOCK:   -6.74 KCAL/MOL
REMARK 923 INTER-LIGAND FREE ENERGY PREDICTED BY IDOCK:   -7.22 KCAL/MOL
REMARK 924 INTRA-LIGAND FREE ENERGY PREDICTED BY IDOCK:    0.48 KCAL/MOL
REMARK 927      BINDING AFFINITY PREDICTED BY RF-SCORE:    0.00 PKD
ROOT
HETATM    1  F   UNL     1     -13.572  11.917  72.227  1.00  0.00    -0.567 F  
HETATM    2  C   UNL     1     -12.758  12.318  71.242  1.00  0.00    -0.251 A  
HETATM    3  C   UNL     1     -12.595  13.672  70.990  1.00  0.00    -0.441 A  
HETATM    4  C   UNL     1     -11.757  14.088  69.948  1.00  0.00    -0.368 A  
HETATM    5  C   UNL     1     -11.070  13.151  69.149  1.00  0.00    -0.248 A  
HETATM    6  C   UNL     1     -10.215  13.635  67.964  1.00  0.00    -0.248 C  
HETATM    7  C   UNL     1     -11.260  11.788  69.436  1.00  0.00    -0.300 A  
HETATM    8  C   UNL     1      -8.687  13.345  68.096  1.00  0.00    -0.179 C  
HETATM    9  C   UNL     1     -12.097  11.372  70.475  1.00  0.00    -0.487 A  
HETATM   10  C   UNL     1     -10.808  13.425  66.563  1.00  0.00    -0.286 A  
HETATM   11  C   UNL     1     -12.024  12.757  66.339  1.00  0.00    -0.443 A  
HETATM   12  F   UNL     1     -12.466  13.207  62.763  1.00  0.00    -0.437 F  
HETATM   13  C   UNL     1     -10.177  14.020  65.455  1.00  0.00    -0.368 A  
HETATM   14  C   UNL     1     -12.576  12.671  65.055  1.00  0.00    -0.504 A  
HETATM   15  C   UNL     1     -11.921  13.267  63.984  1.00  0.00    -0.465 A  
HETATM   16  C   UNL     1     -10.724  13.940  64.171  1.00  0.00     0.046 A  
ENDROOT
BRANCH   8  17
HETATM   17  C   UNL     1      -8.158  11.914  68.261  1.00  0.00    -0.154 C  
BRANCH  17  18
HETATM   18  C   UNL     1      -8.762  10.796  67.405  1.00  0.00    -0.126 C  
BRANCH  18  19
HETATM   19  N   UNL     1      -8.025   9.538  67.283  1.00  0.00    -0.106 NA 
HETATM   20  C   UNL     1      -7.702   8.178  69.476  1.00  0.00    -0.102 C  
HETATM   21  C   UNL     1      -7.152   9.147  68.401  1.00  0.00    -0.073 C  
HETATM   22  C   UNL     1      -8.734   7.140  68.986  1.00  0.00    -0.132 C  
HETATM   23  C   UNL     1      -9.700   7.881  68.062  1.00  0.00    -0.182 C  
HETATM   24  C   UNL     1      -8.923   8.450  66.881  1.00  0.00    -0.145 C  
BRANCH  22  25
HETATM   25  N   UNL     1      -8.217   5.905  68.378  1.00  0.00    -0.108 N  
HETATM   26  C   UNL     1      -8.674   5.247  67.210  1.00  0.00    -0.107 C  
HETATM   27  O   UNL     1      -9.558   5.573  66.438  1.00  0.00    -0.149 OA 
HETATM   28  N   UNL     1      -7.899   4.086  67.069  1.00  0.00    -0.095 NA 
HETATM   29  C   UNL     1      -7.000   4.004  68.115  1.00  0.00    -0.051 A  
HETATM   30  C   UNL     1      -6.074   3.011  68.380  1.00  0.00    -0.025 A  
HETATM   31  C   UNL     1      -5.318   3.147  69.540  1.00  0.00    -0.012 A  
HETATM   32  C   UNL     1      -5.491   4.257  70.389  1.00  0.00    -0.012 A  
HETATM   33  C   UNL     1      -6.415   5.266  70.079  1.00  0.00    -0.034 A  
HETATM   34  C   UNL     1      -7.178   5.114  68.936  1.00  0.00    -0.061 A  
ENDBRANCH  22  25
ENDBRANCH  18  19
ENDBRANCH  17  18
ENDBRANCH   8  17
TORSDOF 4
ENDMDL
MODEL      173
REMARK 921   NORMALIZED FREE ENERGY PREDICTED BY IDOCK:   -4.81 KCAL/MOL
REMARK 922        TOTAL FREE ENERGY PREDICTED BY IDOCK:   -6.73 KCAL/MOL
REMARK 923 INTER-LIGAND FREE ENERGY PREDICTED BY IDOCK:   -6.31 KCAL/MOL
REMARK 924 INTRA-LIGAND FREE ENERGY PREDICTED BY IDOCK:   -0.42 KCAL/MOL
REMARK 927      BINDING AFFINITY PREDICTED BY RF-SCORE:    0.00 PKD
ROOT
HETATM    1  F   UNL     1     -12.358  15.983  69.672  1.00  0.00    -0.324 F  
HETATM    2  C   UNL     1     -11.559  14.999  69.239  1.00  0.00    -0.315 A  
HETATM    3  C   UNL     1     -10.259  15.287  68.850  1.00  0.00    -0.232 A  
HETATM    4  C   UNL     1      -9.431  14.259  68.381  1.00  0.00    -0.213 A  
HETATM    5  C   UNL     1      -9.897  12.931  68.299  1.00  0.00    -0.228 A  
HETATM    6  C   UNL     1      -8.990  11.836  67.709  1.00  0.00    -0.173 C  
HETATM    7  C   UNL     1     -11.220  12.679  68.702  1.00  0.00    -0.323 A  
HETATM    8  C   UNL     1      -8.578  10.715  68.713  1.00  0.00    -0.150 C  
HETATM    9  C   UNL     1     -12.046  13.704  69.170  1.00  0.00    -0.361 A  
HETATM   10  C   UNL     1      -9.330  11.359  66.289  1.00  0.00    -0.228 A  
HETATM   11  C   UNL     1     -10.449  11.818  65.575  1.00  0.00    -0.311 A  
HETATM   12  F   UNL     1      -9.961  10.242  62.340  1.00  0.00    -0.262 F  
HETATM   13  C   UNL     1      -8.429  10.512  65.616  1.00  0.00    -0.179 A  
HETATM   14  C   UNL     1     -10.670  11.430  64.248  1.00  0.00    -0.420 A  
HETATM   15  C   UNL     1      -9.761  10.588  63.618  1.00  0.00    -0.318 A  
HETATM   16  C   UNL     1      -8.643  10.123  64.290  1.00  0.00    -0.200 A  
ENDROOT
BRANCH   8  17
HETATM   17  C   UNL     1      -9.630   9.855  69.426  1.00  0.00    -0.229 C  
BRANCH  17  18
HETATM   18  C   UNL     1      -9.213   8.495  69.995  1.00  0.00    -0.155 C  
BRANCH  18  19
HETATM   19  N   UNL     1      -9.519   7.293  69.218  1.00  0.00    -0.153 NA 
HETATM   20  C   UNL     1      -8.376   7.106  66.890  1.00  0.00    -0.118 C  
HETATM   21  C   UNL     1      -9.617   7.431  67.757  1.00  0.00    -0.140 C  
HETATM   22  C   UNL     1      -7.437   6.009  67.438  1.00  0.00    -0.081 C  
HETATM   23  C   UNL     1      -7.274   6.275  68.934  1.00  0.00    -0.084 C  
HETATM   24  C   UNL     1      -8.638   6.187  69.608  1.00  0.00    -0.128 C  
BRANCH  22  25
HETATM   25  N   UNL     1      -7.793   4.611  67.155  1.00  0.00    -0.094 N  
HETATM   26  C   UNL     1      -7.427   3.452  67.882  1.00  0.00    -0.058 C  
HETATM   27  O   UNL     1      -6.780   3.358  68.910  1.00  0.00    -0.042 OA 
HETATM   28  N   UNL     1      -7.963   2.354  67.191  1.00  0.00    -0.070 NA 
HETATM   29  C   UNL     1      -8.624   2.799  66.062  1.00  0.00    -0.117 A  
HETATM   30  C   UNL     1      -9.265   2.056  65.089  1.00  0.00    -0.083 A  
HETATM   31  C   UNL     1      -9.815   2.756  64.020  1.00  0.00    -0.152 A  
HETATM   32  C   UNL     1      -9.722   4.160  63.952  1.00  0.00    -0.126 A  
HETATM   33  C   UNL     1      -9.093   4.892  64.970  1.00  0.00    -0.133 A  
HETATM   34  C   UNL     1      -8.532   4.188  66.019  1.00  0.00    -0.109 A  
ENDBRANCH  22  25
ENDBRANCH  18  19
ENDBRANCH  17  18
ENDBRANCH   8  17
TORSDOF 4
ENDMDL
MODEL      174
REMARK 921   NORMALIZED FREE ENERGY PREDICTED BY IDOCK:   -4.81 KCAL/MOL
REMARK 922        TOTAL FREE ENERGY PREDICTED BY IDOCK:   -6.72 KCAL/MOL
REMARK 923 INTER-LIGAND FREE ENERGY PREDICTED BY IDOCK:   -6.38 KCAL/MOL
REMARK 924 INTRA-LIGAND FREE ENERGY PREDICTED BY IDOCK:   -0.35 KCAL/MOL
REMARK 927      BINDING AFFINITY PREDICTED BY RF-SCORE:    0.00 PKD
ROOT
HETATM    1  F   UNL     1     -12.479  11.476  69.796  1.00  0.00    -0.299 F  
HETATM    2  C   UNL     1     -11.534  10.637  69.353  1.00  0.00    -0.286 A  
HETATM    3  C   UNL     1     -11.520  10.256  68.019  1.00  0.00    -0.081 A  
HETATM    4  C   UNL     1     -10.542   9.364  67.562  1.00  0.00    -0.333 A  
HETATM    5  C   UNL     1      -9.564   8.847  68.437  1.00  0.00    -0.157 A  
HETATM    6  C   UNL     1      -8.547   7.811  67.923  1.00  0.00    -0.122 C  
HETATM    7  C   UNL     1      -9.611   9.256  69.781  1.00  0.00    -0.203 A  
HETATM    8  C   UNL     1      -7.062   8.289  67.936  1.00  0.00    -0.083 C  
HETATM    9  C   UNL     1     -10.587  10.146  70.237  1.00  0.00    -0.324 A  
HETATM   10  C   UNL     1      -8.777   6.356  68.357  1.00  0.00    -0.113 A  
HETATM   11  C   UNL     1      -9.801   5.972  69.240  1.00  0.00    -0.191 A  
HETATM   12  F   UNL     1      -9.498   2.354  69.197  1.00  0.00    -0.191 F  
HETATM   13  C   UNL     1      -8.009   5.335  67.766  1.00  0.00    -0.099 A  
HETATM   14  C   UNL     1     -10.034   4.624  69.534  1.00  0.00    -0.266 A  
HETATM   15  C   UNL     1      -9.253   3.644  68.935  1.00  0.00    -0.160 A  
HETATM   16  C   UNL     1      -8.240   3.986  68.054  1.00  0.00    -0.095 A  
ENDROOT
BRANCH   8  17
HETATM   17  C   UNL     1      -6.378   8.736  69.234  1.00  0.00    -0.042 C  
BRANCH  17  18
HETATM   18  C   UNL     1      -5.689  10.104  69.276  1.00  0.00    -0.037 C  
BRANCH  18  19
HETATM   19  N   UNL     1      -6.490  11.274  69.641  1.00  0.00    -0.119 NA 
HETATM   20  C   UNL     1      -5.624  13.572  68.785  1.00  0.00    -0.075 C  
HETATM   21  C   UNL     1      -5.776  12.530  69.919  1.00  0.00    -0.124 C  
HETATM   22  C   UNL     1      -6.774  13.624  67.757  1.00  0.00    -0.170 C  
HETATM   23  C   UNL     1      -7.129  12.176  67.419  1.00  0.00    -0.146 C  
HETATM   24  C   UNL     1      -7.588  11.466  68.688  1.00  0.00    -0.130 C  
BRANCH  22  25
HETATM   25  N   UNL     1      -7.959  14.423  68.104  1.00  0.00    -0.126 N  
HETATM   26  C   UNL     1      -8.069  15.445  69.078  1.00  0.00    -0.213 C  
HETATM   27  O   UNL     1      -7.211  15.912  69.806  1.00  0.00    -0.154 OA 
HETATM   28  N   UNL     1      -9.407  15.868  69.073  1.00  0.00    -0.228 NA 
HETATM   29  C   UNL     1     -10.119  15.129  68.147  1.00  0.00    -0.222 A  
HETATM   30  C   UNL     1     -11.466  15.197  67.842  1.00  0.00    -0.344 A  
HETATM   31  C   UNL     1     -11.944  14.297  66.895  1.00  0.00    -0.467 A  
HETATM   32  C   UNL     1     -11.080  13.374  66.275  1.00  0.00    -0.305 A  
HETATM   33  C   UNL     1      -9.711  13.349  66.580  1.00  0.00    -0.275 A  
HETATM   34  C   UNL     1      -9.247  14.231  67.538  1.00  0.00    -0.197 A  
ENDBRANCH  22  25
ENDBRANCH  18  19
ENDBRANCH  17  18
ENDBRANCH   8  17
TORSDOF 4
ENDMDL
MODEL      175
REMARK 921   NORMALIZED FREE ENERGY PREDICTED BY IDOCK:   -4.79 KCAL/MOL
REMARK 922        TOTAL FREE ENERGY PREDICTED BY IDOCK:   -6.70 KCAL/MOL
REMARK 923 INTER-LIGAND FREE ENERGY PREDICTED BY IDOCK:   -6.42 KCAL/MOL
REMARK 924 INTRA-LIGAND FREE ENERGY PREDICTED BY IDOCK:   -0.28 KCAL/MOL
REMARK 927      BINDING AFFINITY PREDICTED BY RF-SCORE:    0.00 PKD
ROOT
HETATM    1  F   UNL     1     -12.475  12.524  63.206  1.00  0.00    -0.561 F  
HETATM    2  C   UNL     1     -11.496  11.802  63.767  1.00  0.00    -0.420 A  
HETATM    3  C   UNL     1     -10.625  11.080  62.964  1.00  0.00     0.034 A  
HETATM    4  C   UNL     1      -9.613  10.312  63.553  1.00  0.00    -0.321 A  
HETATM    5  C   UNL     1      -9.461  10.261  64.954  1.00  0.00    -0.337 A  
HETATM    6  C   UNL     1      -8.387   9.350  65.576  1.00  0.00    -0.139 C  
HETATM    7  C   UNL     1     -10.362  11.006  65.734  1.00  0.00    -0.316 A  
HETATM    8  C   UNL     1      -7.257  10.100  66.348  1.00  0.00    -0.108 C  
HETATM    9  C   UNL     1     -11.372  11.773  65.147  1.00  0.00    -0.281 A  
HETATM   10  C   UNL     1      -8.887   8.054  66.232  1.00  0.00    -0.191 A  
HETATM   11  C   UNL     1     -10.249   7.731  66.347  1.00  0.00    -0.053 A  
HETATM   12  F   UNL     1     -10.100   4.378  67.731  1.00  0.00    -0.201 F  
HETATM   13  C   UNL     1      -7.950   7.086  66.638  1.00  0.00    -0.108 A  
HETATM   14  C   UNL     1     -10.659   6.497  66.866  1.00  0.00    -0.376 A  
HETATM   15  C   UNL     1      -9.705   5.568  67.262  1.00  0.00    -0.139 A  
HETATM   16  C   UNL     1      -8.353   5.850  67.155  1.00  0.00    -0.105 A  
ENDROOT
BRANCH   8  17
HETATM   17  C   UNL     1      -7.575  11.015  67.538  1.00  0.00    -0.106 C  
BRANCH  17  18
HETATM   18  C   UNL     1      -6.635  12.186  67.844  1.00  0.00    -0.085 C  
BRANCH  18  19
HETATM   19  N   UNL     1      -7.221  13.448  68.297  1.00  0.00    -0.099 NA 
HETATM   20  C   UNL     1      -9.236  14.340  66.916  1.00  0.00    -0.268 C  
HETATM   21  C   UNL     1      -7.730  14.371  67.271  1.00  0.00    -0.137 C  
HETATM   22  C   UNL     1     -10.193  13.962  68.067  1.00  0.00    -0.246 C  
HETATM   23  C   UNL     1      -9.558  12.780  68.800  1.00  0.00     0.089 C  
HETATM   24  C   UNL     1      -8.206  13.209  69.358  1.00  0.00     0.962 C  
BRANCH  22  25
HETATM   25  N   UNL     1     -10.604  15.033  68.987  1.00  0.00    -0.237 N  
HETATM   26  C   UNL     1     -10.183  16.386  68.997  1.00  0.00    -0.269 C  
HETATM   27  O   UNL     1      -9.431  16.965  68.233  1.00  0.00    -0.236 OA 
HETATM   28  N   UNL     1     -10.811  16.998  70.092  1.00  0.00     0.091 NA 
HETATM   29  C   UNL     1     -11.583  16.065  70.760  1.00  0.00    -0.400 A  
HETATM   30  C   UNL     1     -12.340  16.234  71.904  1.00  0.00    -0.295 A  
HETATM   31  C   UNL     1     -12.988  15.108  72.403  1.00  0.00    -0.452 A  
HETATM   32  C   UNL     1     -12.877  13.864  71.753  1.00  0.00    -0.421 A  
HETATM   33  C   UNL     1     -12.128  13.729  70.574  1.00  0.00    -0.416 A  
HETATM   34  C   UNL     1     -11.469  14.846  70.097  1.00  0.00    -0.279 A  
ENDBRANCH  22  25
ENDBRANCH  18  19
ENDBRANCH  17  18
ENDBRANCH   8  17
TORSDOF 4
ENDMDL
MODEL      176
REMARK 921   NORMALIZED FREE ENERGY PREDICTED BY IDOCK:   -4.79 KCAL/MOL
REMARK 922        TOTAL FREE ENERGY PREDICTED BY IDOCK:   -6.70 KCAL/MOL
REMARK 923 INTER-LIGAND FREE ENERGY PREDICTED BY IDOCK:   -7.00 KCAL/MOL
REMARK 924 INTRA-LIGAND FREE ENERGY PREDICTED BY IDOCK:    0.30 KCAL/MOL
REMARK 927      BINDING AFFINITY PREDICTED BY RF-SCORE:    0.00 PKD
ROOT
HETATM    1  F   UNL     1      -7.290   6.752  72.128  1.00  0.00    -0.082 F  
HETATM    2  C   UNL     1      -8.126   7.342  71.264  1.00  0.00    -0.102 A  
HETATM    3  C   UNL     1      -9.001   6.570  70.514  1.00  0.00    -0.152 A  
HETATM    4  C   UNL     1      -9.862   7.188  69.599  1.00  0.00    -0.162 A  
HETATM    5  C   UNL     1      -9.858   8.588  69.428  1.00  0.00    -0.185 A  
HETATM    6  C   UNL     1     -10.762   9.232  68.362  1.00  0.00    -0.192 C  
HETATM    7  C   UNL     1      -8.958   9.336  70.206  1.00  0.00    -0.261 A  
HETATM    8  C   UNL     1     -11.873  10.172  68.925  1.00  0.00     0.164 C  
HETATM    9  C   UNL     1      -8.098   8.720  71.119  1.00  0.00    -0.192 A  
HETATM   10  C   UNL     1     -10.067   9.722  67.083  1.00  0.00    -0.267 A  
HETATM   11  C   UNL     1      -8.675   9.675  66.902  1.00  0.00    -0.139 A  
HETATM   12  F   UNL     1      -8.338  10.776  63.458  1.00  0.00    -0.164 F  
HETATM   13  C   UNL     1     -10.853  10.135  65.990  1.00  0.00     0.150 A  
HETATM   14  C   UNL     1      -8.091  10.044  65.684  1.00  0.00    -0.138 A  
HETATM   15  C   UNL     1      -8.898  10.451  64.630  1.00  0.00    -0.198 A  
HETATM   16  C   UNL     1     -10.275  10.503  64.771  1.00  0.00    -0.373 A  
ENDROOT
BRANCH   8  17
HETATM   17  C   UNL     1     -11.524  11.399  69.777  1.00  0.00    -0.376 C  
BRANCH  17  18
HETATM   18  C   UNL     1     -11.728  12.797  69.183  1.00  0.00    -0.322 C  
BRANCH  18  19
HETATM   19  N   UNL     1     -10.546  13.620  68.921  1.00  0.00    -0.227 NA 
HETATM   20  C   UNL     1     -10.651  15.145  66.817  1.00  0.00    -0.298 C  
HETATM   21  C   UNL     1     -10.172  13.850  67.517  1.00  0.00    -0.245 C  
HETATM   22  C   UNL     1     -10.802  16.386  67.723  1.00  0.00    -0.306 C  
HETATM   23  C   UNL     1     -11.486  15.915  69.007  1.00  0.00    -0.380 C  
HETATM   24  C   UNL     1     -10.608  14.870  69.685  1.00  0.00    -0.197 C  
BRANCH  22  25
HETATM   25  N   UNL     1      -9.593  17.178  67.994  1.00  0.00    -0.260 N  
HETATM   26  C   UNL     1      -9.502  18.557  68.304  1.00  0.00    -0.335 C  
HETATM   27  O   UNL     1     -10.393  19.374  68.453  1.00  0.00    -0.412 OA 
HETATM   28  N   UNL     1      -8.136  18.857  68.424  1.00  0.00    -0.328 NA 
HETATM   29  C   UNL     1      -7.392  17.718  68.180  1.00  0.00    -0.238 A  
HETATM   30  C   UNL     1      -6.018  17.574  68.164  1.00  0.00    -0.157 A  
HETATM   31  C   UNL     1      -5.519  16.316  67.839  1.00  0.00    -0.132 A  
HETATM   32  C   UNL     1      -6.389  15.246  67.553  1.00  0.00    -0.129 A  
HETATM   33  C   UNL     1      -7.781  15.413  67.609  1.00  0.00    -0.180 A  
HETATM   34  C   UNL     1      -8.269  16.670  67.912  1.00  0.00    -0.180 A  
ENDBRANCH  22  25
ENDBRANCH  18  19
ENDBRANCH  17  18
ENDBRANCH   8  17
TORSDOF 4
ENDMDL
MODEL      177
REMARK 921   NORMALIZED FREE ENERGY PREDICTED BY IDOCK:   -4.79 KCAL/MOL
REMARK 922        TOTAL FREE ENERGY PREDICTED BY IDOCK:   -6.69 KCAL/MOL
REMARK 923 INTER-LIGAND FREE ENERGY PREDICTED BY IDOCK:   -7.45 KCAL/MOL
REMARK 924 INTRA-LIGAND FREE ENERGY PREDICTED BY IDOCK:    0.75 KCAL/MOL
REMARK 927      BINDING AFFINITY PREDICTED BY RF-SCORE:    0.00 PKD
ROOT
HETATM    1  F   UNL     1      -8.290  11.343  62.944  1.00  0.00    -0.088 F  
HETATM    2  C   UNL     1      -8.278  10.426  63.920  1.00  0.00    -0.115 A  
HETATM    3  C   UNL     1      -7.072  10.025  64.476  1.00  0.00    -0.139 A  
HETATM    4  C   UNL     1      -7.062   9.053  65.484  1.00  0.00    -0.081 A  
HETATM    5  C   UNL     1      -8.261   8.474  65.947  1.00  0.00    -0.125 A  
HETATM    6  C   UNL     1      -8.213   7.354  67.003  1.00  0.00    -0.121 C  
HETATM    7  C   UNL     1      -9.463   8.906  65.359  1.00  0.00    -0.086 A  
HETATM    8  C   UNL     1      -8.872   7.714  68.371  1.00  0.00    -0.130 C  
HETATM    9  C   UNL     1      -9.474   9.875  64.354  1.00  0.00    -0.304 A  
HETATM   10  C   UNL     1      -8.476   5.928  66.498  1.00  0.00    -0.113 A  
HETATM   11  C   UNL     1      -8.826   5.639  65.168  1.00  0.00    -0.055 A  
HETATM   12  F   UNL     1      -8.844   2.008  65.180  1.00  0.00    -0.100 F  
HETATM   13  C   UNL     1      -8.251   4.841  67.364  1.00  0.00    -0.105 A  
HETATM   14  C   UNL     1      -8.964   4.317  64.728  1.00  0.00    -0.145 A  
HETATM   15  C   UNL     1      -8.738   3.270  65.613  1.00  0.00    -0.124 A  
HETATM   16  C   UNL     1      -8.385   3.519  66.929  1.00  0.00    -0.100 A  
ENDROOT
BRANCH   8  17
HETATM   17  C   UNL     1     -10.346   8.126  68.463  1.00  0.00    -0.230 C  
BRANCH  17  18
HETATM   18  C   UNL     1     -10.838   8.846  69.723  1.00  0.00    -0.200 C  
BRANCH  18  19
HETATM   19  N   UNL     1     -10.365  10.209  69.973  1.00  0.00    -0.265 NA 
HETATM   20  C   UNL     1     -10.351  11.815  67.928  1.00  0.00    -0.209 C  
HETATM   21  C   UNL     1      -9.604  10.875  68.905  1.00  0.00    -0.181 C  
HETATM   22  C   UNL     1     -11.563  12.572  68.512  1.00  0.00    -0.321 C  
HETATM   23  C   UNL     1     -12.348  11.565  69.352  1.00  0.00    -0.157 C  
HETATM   24  C   UNL     1     -11.457  11.050  70.476  1.00  0.00    -0.145 C  
BRANCH  22  25
HETATM   25  N   UNL     1     -11.294  13.819  69.243  1.00  0.00    -0.268 N  
HETATM   26  C   UNL     1     -10.346  14.825  68.936  1.00  0.00    -0.243 C  
HETATM   27  O   UNL     1      -9.581  14.902  67.991  1.00  0.00    -0.202 OA 
HETATM   28  N   UNL     1     -10.431  15.788  69.954  1.00  0.00    -0.307 NA 
HETATM   29  C   UNL     1     -11.381  15.396  70.878  1.00  0.00    -0.359 A  
HETATM   30  C   UNL     1     -11.760  16.030  72.046  1.00  0.00    -0.588 A  
HETATM   31  C   UNL     1     -12.716  15.391  72.830  1.00  0.00    -0.532 A  
HETATM   32  C   UNL     1     -13.271  14.160  72.431  1.00  0.00    -0.566 A  
HETATM   33  C   UNL     1     -12.891  13.554  71.224  1.00  0.00    -0.420 A  
HETATM   34  C   UNL     1     -11.926  14.184  70.461  1.00  0.00    -0.323 A  
ENDBRANCH  22  25
ENDBRANCH  18  19
ENDBRANCH  17  18
ENDBRANCH   8  17
TORSDOF 4
ENDMDL
MODEL      178
REMARK 921   NORMALIZED FREE ENERGY PREDICTED BY IDOCK:   -4.75 KCAL/MOL
REMARK 922        TOTAL FREE ENERGY PREDICTED BY IDOCK:   -6.65 KCAL/MOL
REMARK 923 INTER-LIGAND FREE ENERGY PREDICTED BY IDOCK:   -6.09 KCAL/MOL
REMARK 924 INTRA-LIGAND FREE ENERGY PREDICTED BY IDOCK:   -0.56 KCAL/MOL
REMARK 927      BINDING AFFINITY PREDICTED BY RF-SCORE:    0.00 PKD
ROOT
HETATM    1  F   UNL     1     -14.100   8.736  72.895  1.00  0.00    -0.433 F  
HETATM    2  C   UNL     1     -13.064   8.366  72.130  1.00  0.00    -0.328 A  
HETATM    3  C   UNL     1     -12.221   7.349  72.554  1.00  0.00    -0.048 A  
HETATM    4  C   UNL     1     -11.130   6.976  71.760  1.00  0.00    -0.270 A  
HETATM    5  C   UNL     1     -10.872   7.617  70.531  1.00  0.00    -0.249 A  
HETATM    6  C   UNL     1      -9.622   7.238  69.716  1.00  0.00    -0.162 C  
HETATM    7  C   UNL     1     -11.748   8.643  70.135  1.00  0.00     0.178 A  
HETATM    8  C   UNL     1      -9.917   6.590  68.328  1.00  0.00    -0.145 C  
HETATM    9  C   UNL     1     -12.838   9.015  70.927  1.00  0.00     0.010 A  
HETATM   10  C   UNL     1      -8.459   8.240  69.744  1.00  0.00    -0.128 A  
HETATM   11  C   UNL     1      -8.532   9.480  70.400  1.00  0.00    -0.238 A  
HETATM   12  F   UNL     1      -5.139  10.719  70.023  1.00  0.00    -0.040 F  
HETATM   13  C   UNL     1      -7.219   7.868  69.190  1.00  0.00    -0.081 A  
HETATM   14  C   UNL     1      -7.417  10.323  70.481  1.00  0.00     0.326 A  
HETATM   15  C   UNL     1      -6.211   9.923  69.919  1.00  0.00    -0.055 A  
HETATM   16  C   UNL     1      -6.101   8.704  69.271  1.00  0.00    -0.042 A  
ENDROOT
BRANCH   8  17
HETATM   17  C   UNL     1     -10.736   7.327  67.260  1.00  0.00    -0.391 C  
BRANCH  17  18
HETATM   18  C   UNL     1     -10.072   8.455  66.464  1.00  0.00    -0.247 C  
BRANCH  18  19
HETATM   19  N   UNL     1     -10.753   9.749  66.392  1.00  0.00    -0.025 NA 
HETATM   20  C   UNL     1     -10.535  11.281  68.481  1.00  0.00    -0.218 C  
HETATM   21  C   UNL     1     -11.348  10.277  67.628  1.00  0.00    -0.008 C  
HETATM   22  C   UNL     1      -9.578  12.209  67.702  1.00  0.00    -0.190 C  
HETATM   23  C   UNL     1      -8.868  11.340  66.664  1.00  0.00    -0.175 C  
HETATM   24  C   UNL     1      -9.906  10.741  65.722  1.00  0.00    -0.240 C  
BRANCH  22  25
HETATM   25  N   UNL     1     -10.148  13.429  67.112  1.00  0.00    -0.238 N  
HETATM   26  C   UNL     1     -11.457  13.627  66.608  1.00  0.00    -0.343 C  
HETATM   27  O   UNL     1     -12.400  12.856  66.587  1.00  0.00    -0.422 OA 
HETATM   28  N   UNL     1     -11.504  14.937  66.106  1.00  0.00    -0.316 NA 
HETATM   29  C   UNL     1     -10.269  15.536  66.268  1.00  0.00    -0.294 A  
HETATM   30  C   UNL     1      -9.870  16.803  65.887  1.00  0.00    -0.276 A  
HETATM   31  C   UNL     1      -8.542  17.145  66.126  1.00  0.00    -0.222 A  
HETATM   32  C   UNL     1      -7.662  16.234  66.739  1.00  0.00    -0.295 A  
HETATM   33  C   UNL     1      -8.103  14.965  67.146  1.00  0.00    -0.239 A  
HETATM   34  C   UNL     1      -9.417  14.625  66.886  1.00  0.00    -0.246 A  
ENDBRANCH  22  25
ENDBRANCH  18  19
ENDBRANCH  17  18
ENDBRANCH   8  17
TORSDOF 4
ENDMDL
MODEL      179
REMARK 921   NORMALIZED FREE ENERGY PREDICTED BY IDOCK:   -4.71 KCAL/MOL
REMARK 922        TOTAL FREE ENERGY PREDICTED BY IDOCK:   -6.60 KCAL/MOL
REMARK 923 INTER-LIGAND FREE ENERGY PREDICTED BY IDOCK:   -6.84 KCAL/MOL
REMARK 924 INTRA-LIGAND FREE ENERGY PREDICTED BY IDOCK:    0.24 KCAL/MOL
REMARK 927      BINDING AFFINITY PREDICTED BY RF-SCORE:    0.00 PKD
ROOT
HETATM    1  F   UNL     1     -12.783  15.372  70.243  1.00  0.00    -0.389 F  
HETATM    2  C   UNL     1     -11.936  14.487  69.701  1.00  0.00    -0.328 A  
HETATM    3  C   UNL     1     -10.667  14.893  69.317  1.00  0.00    -0.253 A  
HETATM    4  C   UNL     1      -9.789  13.970  68.735  1.00  0.00    -0.141 A  
HETATM    5  C   UNL     1     -10.173  12.628  68.535  1.00  0.00    -0.207 A  
HETATM    6  C   UNL     1      -9.215  11.654  67.826  1.00  0.00    -0.178 C  
HETATM    7  C   UNL     1     -11.467  12.254  68.938  1.00  0.00    -0.355 A  
HETATM    8  C   UNL     1      -8.709  10.472  68.709  1.00  0.00    -0.154 C  
HETATM    9  C   UNL     1     -12.343  13.175  69.518  1.00  0.00    -0.087 A  
HETATM   10  C   UNL     1      -9.561  11.293  66.373  1.00  0.00    -0.223 A  
HETATM   11  C   UNL     1     -10.724  11.745  65.728  1.00  0.00    -0.328 A  
HETATM   12  F   UNL     1     -10.221  10.516  62.348  1.00  0.00    -0.133 F  
HETATM   13  C   UNL     1      -8.627  10.573  65.605  1.00  0.00    -0.182 A  
HETATM   14  C   UNL     1     -10.954  11.470  64.375  1.00  0.00    -0.390 A  
HETATM   15  C   UNL     1     -10.011  10.752  63.649  1.00  0.00    -0.345 A  
HETATM   16  C   UNL     1      -8.849  10.298  64.252  1.00  0.00    -0.234 A  
ENDROOT
BRANCH   8  17
HETATM   17  C   UNL     1      -9.687   9.483  69.356  1.00  0.00    -0.190 C  
BRANCH  17  18
HETATM   18  C   UNL     1      -9.800   9.446  70.884  1.00  0.00    -0.268 C  
BRANCH  18  19
HETATM   19  N   UNL     1      -9.836   8.141  71.547  1.00  0.00    -0.170 NA 
HETATM   20  C   UNL     1     -11.639   6.470  70.700  1.00  0.00    -0.442 C  
HETATM   21  C   UNL     1     -11.150   7.509  71.738  1.00  0.00    -0.241 C  
HETATM   22  C   UNL     1     -10.539   5.629  70.016  1.00  0.00    -0.318 C  
HETATM   23  C   UNL     1      -9.406   6.591  69.658  1.00  0.00    -0.144 C  
HETATM   24  C   UNL     1      -8.868   7.225  70.935  1.00  0.00    -0.149 C  
BRANCH  22  25
HETATM   25  N   UNL     1     -10.056   4.438  70.731  1.00  0.00    -0.178 N  
HETATM   26  C   UNL     1     -10.364   4.024  72.049  1.00  0.00    -0.051 C  
HETATM   27  O   UNL     1     -11.118   4.532  72.860  1.00  0.00    -0.208 OA 
HETATM   28  N   UNL     1      -9.620   2.860  72.294  1.00  0.00    -0.125 NA 
HETATM   29  C   UNL     1      -8.857   2.560  71.181  1.00  0.00    -0.072 A  
HETATM   30  C   UNL     1      -7.961   1.522  71.005  1.00  0.00    -0.041 A  
HETATM   31  C   UNL     1      -7.280   1.476  69.792  1.00  0.00    -0.036 A  
HETATM   32  C   UNL     1      -7.512   2.444  68.796  1.00  0.00    -0.047 A  
HETATM   33  C   UNL     1      -8.451   3.469  68.990  1.00  0.00    -0.099 A  
HETATM   34  C   UNL     1      -9.108   3.520  70.204  1.00  0.00    -0.131 A  
ENDBRANCH  22  25
ENDBRANCH  18  19
ENDBRANCH  17  18
ENDBRANCH   8  17
TORSDOF 4
ENDMDL
MODEL      180
REMARK 921   NORMALIZED FREE ENERGY PREDICTED BY IDOCK:   -4.70 KCAL/MOL
REMARK 922        TOTAL FREE ENERGY PREDICTED BY IDOCK:   -6.59 KCAL/MOL
REMARK 923 INTER-LIGAND FREE ENERGY PREDICTED BY IDOCK:   -6.45 KCAL/MOL
REMARK 924 INTRA-LIGAND FREE ENERGY PREDICTED BY IDOCK:   -0.14 KCAL/MOL
REMARK 927      BINDING AFFINITY PREDICTED BY RF-SCORE:    0.00 PKD
ROOT
HETATM    1  F   UNL     1     -12.528  12.965  62.810  1.00  0.00    -0.389 F  
HETATM    2  C   UNL     1     -12.157  13.533  63.966  1.00  0.00    -0.441 A  
HETATM    3  C   UNL     1     -11.667  14.831  63.971  1.00  0.00    -0.012 A  
HETATM    4  C   UNL     1     -11.265  15.415  65.178  1.00  0.00    -0.354 A  
HETATM    5  C   UNL     1     -11.351  14.706  66.394  1.00  0.00    -0.348 A  
HETATM    6  C   UNL     1     -10.831  15.347  67.693  1.00  0.00    -0.304 C  
HETATM    7  C   UNL     1     -11.852  13.393  66.348  1.00  0.00    -0.441 A  
HETATM    8  C   UNL     1     -11.923  15.618  68.774  1.00  0.00    -0.247 C  
HETATM    9  C   UNL     1     -12.254  12.809  65.144  1.00  0.00    -0.530 A  
HETATM   10  C   UNL     1      -9.491  14.818  68.227  1.00  0.00    -0.207 A  
HETATM   11  C   UNL     1      -8.796  13.753  67.630  1.00  0.00    -0.189 A  
HETATM   12  F   UNL     1      -5.725  13.695  69.567  1.00  0.00    -0.082 F  
HETATM   13  C   UNL     1      -8.862  15.492  69.291  1.00  0.00    -0.256 A  
HETATM   14  C   UNL     1      -7.532  13.365  68.091  1.00  0.00    -0.133 A  
HETATM   15  C   UNL     1      -6.945  14.051  69.147  1.00  0.00    -0.103 A  
HETATM   16  C   UNL     1      -7.599  15.111  69.754  1.00  0.00    -0.094 A  
ENDROOT
BRANCH   8  17
HETATM   17  C   UNL     1     -12.782  14.481  69.344  1.00  0.00     0.206 C  
BRANCH  17  18
HETATM   18  C   UNL     1     -12.652  14.128  70.829  1.00  0.00    -0.362 C  
BRANCH  18  19
HETATM   19  N   UNL     1     -11.911  12.919  71.194  1.00  0.00     0.184 NA 
HETATM   20  C   UNL     1     -13.239  10.685  71.102  1.00  0.00    -0.314 C  
HETATM   21  C   UNL     1     -12.641  11.862  71.911  1.00  0.00     0.053 C  
HETATM   22  C   UNL     1     -12.463  10.276  69.831  1.00  0.00     0.025 C  
HETATM   23  C   UNL     1     -12.070  11.569  69.118  1.00  0.00    -0.329 C  
HETATM   24  C   UNL     1     -11.178  12.394  70.038  1.00  0.00     0.267 C  
BRANCH  22  25
HETATM   25  N   UNL     1     -11.324   9.362  69.999  1.00  0.00    -0.192 N  
HETATM   26  C   UNL     1     -10.256   9.122  69.100  1.00  0.00    -0.207 C  
HETATM   27  O   UNL     1     -10.024   9.641  68.021  1.00  0.00    -0.150 OA 
HETATM   28  N   UNL     1      -9.450   8.132  69.682  1.00  0.00    -0.159 NA 
HETATM   29  C   UNL     1      -9.996   7.747  70.891  1.00  0.00    -0.183 A  
HETATM   30  C   UNL     1      -9.544   6.783  71.773  1.00  0.00    -0.157 A  
HETATM   31  C   UNL     1     -10.315   6.555  72.909  1.00  0.00    -0.232 A  
HETATM   32  C   UNL     1     -11.495   7.290  73.139  1.00  0.00    -0.062 A  
HETATM   33  C   UNL     1     -11.913   8.285  72.243  1.00  0.00    -0.448 A  
HETATM   34  C   UNL     1     -11.153   8.491  71.107  1.00  0.00    -0.260 A  
ENDBRANCH  22  25
ENDBRANCH  18  19
ENDBRANCH  17  18
ENDBRANCH   8  17
TORSDOF 4
ENDMDL
MODEL      181
REMARK 921   NORMALIZED FREE ENERGY PREDICTED BY IDOCK:   -4.66 KCAL/MOL
REMARK 922        TOTAL FREE ENERGY PREDICTED BY IDOCK:   -6.54 KCAL/MOL
REMARK 923 INTER-LIGAND FREE ENERGY PREDICTED BY IDOCK:   -6.60 KCAL/MOL
REMARK 924 INTRA-LIGAND FREE ENERGY PREDICTED BY IDOCK:    0.06 KCAL/MOL
REMARK 927      BINDING AFFINITY PREDICTED BY RF-SCORE:    0.00 PKD
ROOT
HETATM    1  F   UNL     1     -12.968  14.534  69.999  1.00  0.00    -0.334 F  
HETATM    2  C   UNL     1     -11.904  13.898  69.492  1.00  0.00    -0.329 A  
HETATM    3  C   UNL     1     -10.881  14.625  68.901  1.00  0.00    -0.257 A  
HETATM    4  C   UNL     1      -9.778  13.956  68.358  1.00  0.00    -0.226 A  
HETATM    5  C   UNL     1      -9.686  12.550  68.403  1.00  0.00    -0.189 A  
HETATM    6  C   UNL     1      -8.498  11.837  67.731  1.00  0.00    -0.147 C  
HETATM    7  C   UNL     1     -10.742  11.847  69.010  1.00  0.00    -0.197 A  
HETATM    8  C   UNL     1      -7.558  11.066  68.708  1.00  0.00    -0.127 C  
HETATM    9  C   UNL     1     -11.843  12.514  69.553  1.00  0.00    -0.375 A  
HETATM   10  C   UNL     1      -8.791  11.130  66.399  1.00  0.00    -0.182 A  
HETATM   11  C   UNL     1     -10.078  11.049  65.842  1.00  0.00    -0.301 A  
HETATM   12  F   UNL     1      -9.400   9.475  62.641  1.00  0.00    -0.280 F  
HETATM   13  C   UNL     1      -7.717  10.634  65.636  1.00  0.00    -0.109 A  
HETATM   14  C   UNL     1     -10.285  10.478  64.581  1.00  0.00    -0.364 A  
HETATM   15  C   UNL     1      -9.201   9.994  63.858  1.00  0.00    -0.272 A  
HETATM   16  C   UNL     1      -7.918  10.065  64.375  1.00  0.00    -0.152 A  
ENDROOT
BRANCH   8  17
HETATM   17  C   UNL     1      -8.089   9.942  69.607  1.00  0.00    -0.171 C  
BRANCH  17  18
HETATM   18  C   UNL     1      -7.092   8.969  70.245  1.00  0.00    -0.055 C  
BRANCH  18  19
HETATM   19  N   UNL     1      -7.373   7.534  70.167  1.00  0.00    -0.076 NA 
HETATM   20  C   UNL     1      -9.882   6.851  70.202  1.00  0.00    -0.185 C  
HETATM   21  C   UNL     1      -8.524   7.022  70.926  1.00  0.00    -0.134 C  
HETATM   22  C   UNL     1      -9.807   6.496  68.701  1.00  0.00    -0.139 C  
HETATM   23  C   UNL     1      -8.724   7.385  68.091  1.00  0.00    -0.122 C  
HETATM   24  C   UNL     1      -7.393   7.087  68.770  1.00  0.00    -0.093 C  
BRANCH  22  25
HETATM   25  N   UNL     1      -9.630   5.080  68.349  1.00  0.00    -0.137 N  
HETATM   26  C   UNL     1      -9.542   4.504  67.058  1.00  0.00    -0.190 C  
HETATM   27  O   UNL     1      -9.553   5.050  65.968  1.00  0.00    -0.153 OA 
HETATM   28  N   UNL     1      -9.431   3.117  67.238  1.00  0.00    -0.178 NA 
HETATM   29  C   UNL     1      -9.467   2.825  68.588  1.00  0.00    -0.123 A  
HETATM   30  C   UNL     1      -9.419   1.588  69.204  1.00  0.00    -0.157 A  
HETATM   31  C   UNL     1      -9.523   1.569  70.591  1.00  0.00    -0.171 A  
HETATM   32  C   UNL     1      -9.660   2.766  71.321  1.00  0.00    -0.227 A  
HETATM   33  C   UNL     1      -9.673   4.010  70.673  1.00  0.00    -0.266 A  
HETATM   34  C   UNL     1      -9.590   4.019  69.293  1.00  0.00    -0.177 A  
ENDBRANCH  22  25
ENDBRANCH  18  19
ENDBRANCH  17  18
ENDBRANCH   8  17
TORSDOF 4
ENDMDL
MODEL      182
REMARK 921   NORMALIZED FREE ENERGY PREDICTED BY IDOCK:   -4.64 KCAL/MOL
REMARK 922        TOTAL FREE ENERGY PREDICTED BY IDOCK:   -6.52 KCAL/MOL
REMARK 923 INTER-LIGAND FREE ENERGY PREDICTED BY IDOCK:   -6.54 KCAL/MOL
REMARK 924 INTRA-LIGAND FREE ENERGY PREDICTED BY IDOCK:    0.02 KCAL/MOL
REMARK 927      BINDING AFFINITY PREDICTED BY RF-SCORE:    0.00 PKD
ROOT
HETATM    1  F   UNL     1      -8.599  11.322  62.968  1.00  0.00    -0.165 F  
HETATM    2  C   UNL     1      -8.494  10.416  63.949  1.00  0.00    -0.161 A  
HETATM    3  C   UNL     1      -7.241   9.968  64.344  1.00  0.00    -0.134 A  
HETATM    4  C   UNL     1      -7.136   9.009  65.358  1.00  0.00    -0.081 A  
HETATM    5  C   UNL     1      -8.284   8.489  65.990  1.00  0.00    -0.118 A  
HETATM    6  C   UNL     1      -8.140   7.381  67.049  1.00  0.00    -0.113 C  
HETATM    7  C   UNL     1      -9.535   8.967  65.563  1.00  0.00    -0.162 A  
HETATM    8  C   UNL     1      -8.591   7.785  68.487  1.00  0.00    -0.128 C  
HETATM    9  C   UNL     1      -9.641   9.924  64.551  1.00  0.00    -0.290 A  
HETATM   10  C   UNL     1      -8.530   5.961  66.609  1.00  0.00    -0.111 A  
HETATM   11  C   UNL     1      -9.069   5.673  65.345  1.00  0.00    -0.027 A  
HETATM   12  F   UNL     1      -9.240   2.046  65.423  1.00  0.00    -0.128 F  
HETATM   13  C   UNL     1      -8.236   4.876  67.456  1.00  0.00    -0.105 A  
HETATM   14  C   UNL     1      -9.322   4.353  64.950  1.00  0.00    -0.163 A  
HETATM   15  C   UNL     1      -9.023   3.308  65.815  1.00  0.00    -0.145 A  
HETATM   16  C   UNL     1      -8.484   3.556  67.066  1.00  0.00    -0.107 A  
ENDROOT
BRANCH   8  17
HETATM   17  C   UNL     1     -10.021   8.263  68.771  1.00  0.00    -0.193 C  
BRANCH  17  18
HETATM   18  C   UNL     1     -10.269   9.193  69.964  1.00  0.00    -0.204 C  
BRANCH  18  19
HETATM   19  N   UNL     1      -9.987  10.620  69.802  1.00  0.00    -0.063 NA 
HETATM   20  C   UNL     1     -10.516  11.641  67.470  1.00  0.00    -0.228 C  
HETATM   21  C   UNL     1      -9.499  11.076  68.492  1.00  0.00    -0.188 C  
HETATM   22  C   UNL     1     -11.737  12.373  68.066  1.00  0.00    -0.356 C  
HETATM   23  C   UNL     1     -12.227  11.529  69.242  1.00  0.00    -0.245 C  
HETATM   24  C   UNL     1     -11.115  11.427  70.280  1.00  0.00     0.291 C  
BRANCH  22  25
HETATM   25  N   UNL     1     -11.568  13.789  68.427  1.00  0.00    -0.312 N  
HETATM   26  C   UNL     1     -12.125  14.483  69.529  1.00  0.00    -0.306 C  
HETATM   27  O   UNL     1     -12.826  14.061  70.432  1.00  0.00    -0.297 OA 
HETATM   28  N   UNL     1     -11.717  15.821  69.414  1.00  0.00    -0.368 NA 
HETATM   29  C   UNL     1     -10.948  15.970  68.275  1.00  0.00    -0.335 A  
HETATM   30  C   UNL     1     -10.372  17.121  67.770  1.00  0.00    -0.347 A  
HETATM   31  C   UNL     1      -9.681  17.005  66.567  1.00  0.00    -0.296 A  
HETATM   32  C   UNL     1      -9.574  15.762  65.914  1.00  0.00    -0.382 A  
HETATM   33  C   UNL     1     -10.141  14.604  66.466  1.00  0.00    -0.286 A  
HETATM   34  C   UNL     1     -10.843  14.731  67.650  1.00  0.00    -0.285 A  
ENDBRANCH  22  25
ENDBRANCH  18  19
ENDBRANCH  17  18
ENDBRANCH   8  17
TORSDOF 4
ENDMDL
MODEL      183
REMARK 921   NORMALIZED FREE ENERGY PREDICTED BY IDOCK:   -4.62 KCAL/MOL
REMARK 922        TOTAL FREE ENERGY PREDICTED BY IDOCK:   -6.49 KCAL/MOL
REMARK 923 INTER-LIGAND FREE ENERGY PREDICTED BY IDOCK:   -6.44 KCAL/MOL
REMARK 924 INTRA-LIGAND FREE ENERGY PREDICTED BY IDOCK:   -0.05 KCAL/MOL
REMARK 927      BINDING AFFINITY PREDICTED BY RF-SCORE:    0.00 PKD
ROOT
HETATM    1  F   UNL     1      -6.275   2.248  68.246  1.00  0.00    -0.023 F  
HETATM    2  C   UNL     1      -6.581   3.533  68.468  1.00  0.00    -0.041 A  
HETATM    3  C   UNL     1      -5.950   4.225  69.491  1.00  0.00    -0.022 A  
HETATM    4  C   UNL     1      -6.284   5.563  69.733  1.00  0.00    -0.026 A  
HETATM    5  C   UNL     1      -7.253   6.224  68.949  1.00  0.00    -0.084 A  
HETATM    6  C   UNL     1      -7.654   7.672  69.286  1.00  0.00    -0.096 C  
HETATM    7  C   UNL     1      -7.870   5.489  67.922  1.00  0.00    -0.096 A  
HETATM    8  C   UNL     1      -7.304   8.721  68.186  1.00  0.00    -0.087 C  
HETATM    9  C   UNL     1      -7.537   4.154  67.681  1.00  0.00    -0.069 A  
HETATM   10  C   UNL     1      -9.016   7.861  69.971  1.00  0.00    -0.145 A  
HETATM   11  C   UNL     1      -9.904   6.801  70.214  1.00  0.00    -0.185 A  
HETATM   12  F   UNL     1     -12.520   8.451  72.118  1.00  0.00    -0.328 F  
HETATM   13  C   UNL     1      -9.354   9.128  70.484  1.00  0.00    -0.287 A  
HETATM   14  C   UNL     1     -11.093   7.003  70.926  1.00  0.00    -0.300 A  
HETATM   15  C   UNL     1     -11.396   8.268  71.414  1.00  0.00    -0.262 A  
HETATM   16  C   UNL     1     -10.539   9.335  71.198  1.00  0.00    -0.402 A  
ENDROOT
BRANCH   8  17
HETATM   17  C   UNL     1      -7.857   8.599  66.760  1.00  0.00    -0.094 C  
BRANCH  17  18
HETATM   18  C   UNL     1      -9.357   8.813  66.527  1.00  0.00    -0.203 C  
BRANCH  18  19
HETATM   19  N   UNL     1      -9.818  10.148  66.142  1.00  0.00    -0.223 NA 
HETATM   20  C   UNL     1     -10.677  11.668  68.068  1.00  0.00    -0.246 C  
HETATM   21  C   UNL     1     -10.956  10.717  66.879  1.00  0.00    -0.161 C  
HETATM   22  C   UNL     1      -9.401  12.530  67.958  1.00  0.00    -0.205 C  
HETATM   23  C   UNL     1      -8.293  11.614  67.438  1.00  0.00    -0.152 C  
HETATM   24  C   UNL     1      -8.689  11.081  66.067  1.00  0.00    -0.188 C  
BRANCH  22  25
HETATM   25  N   UNL     1      -9.493  13.783  67.194  1.00  0.00    -0.235 N  
HETATM   26  C   UNL     1     -10.447  14.138  66.209  1.00  0.00    -0.286 C  
HETATM   27  O   UNL     1     -11.412  13.511  65.808  1.00  0.00    -0.307 OA 
HETATM   28  N   UNL     1     -10.086  15.409  65.734  1.00  0.00    -0.334 NA 
HETATM   29  C   UNL     1      -8.940  15.832  66.380  1.00  0.00    -0.331 A  
HETATM   30  C   UNL     1      -8.230  17.004  66.196  1.00  0.00    -0.284 A  
HETATM   31  C   UNL     1      -7.071  17.164  66.948  1.00  0.00    -0.244 A  
HETATM   32  C   UNL     1      -6.659  16.173  67.860  1.00  0.00    -0.155 A  
HETATM   33  C   UNL     1      -7.416  15.007  68.050  1.00  0.00    -0.130 A  
HETATM   34  C   UNL     1      -8.555  14.846  67.284  1.00  0.00    -0.213 A  
ENDBRANCH  22  25
ENDBRANCH  18  19
ENDBRANCH  17  18
ENDBRANCH   8  17
TORSDOF 4
ENDMDL
MODEL      184
REMARK 921   NORMALIZED FREE ENERGY PREDICTED BY IDOCK:   -4.62 KCAL/MOL
REMARK 922        TOTAL FREE ENERGY PREDICTED BY IDOCK:   -6.48 KCAL/MOL
REMARK 923 INTER-LIGAND FREE ENERGY PREDICTED BY IDOCK:   -6.47 KCAL/MOL
REMARK 924 INTRA-LIGAND FREE ENERGY PREDICTED BY IDOCK:   -0.01 KCAL/MOL
REMARK 927      BINDING AFFINITY PREDICTED BY RF-SCORE:    0.00 PKD
ROOT
HETATM    1  F   UNL     1     -12.407  16.444  68.769  1.00  0.00    -0.091 F  
HETATM    2  C   UNL     1     -11.603  15.405  68.507  1.00  0.00    -0.359 A  
HETATM    3  C   UNL     1     -10.285  15.630  68.137  1.00  0.00    -0.228 A  
HETATM    4  C   UNL     1      -9.451  14.544  67.847  1.00  0.00    -0.212 A  
HETATM    5  C   UNL     1      -9.928  13.219  67.927  1.00  0.00    -0.233 A  
HETATM    6  C   UNL     1      -9.009  12.049  67.530  1.00  0.00    -0.174 C  
HETATM    7  C   UNL     1     -11.268  13.032  68.306  1.00  0.00    -0.309 A  
HETATM    8  C   UNL     1      -8.650  11.073  68.693  1.00  0.00    -0.157 C  
HETATM    9  C   UNL     1     -12.101  14.115  68.596  1.00  0.00    -0.320 A  
HETATM   10  C   UNL     1      -9.298  11.385  66.175  1.00  0.00    -0.232 A  
HETATM   11  C   UNL     1     -10.382  11.748  65.360  1.00  0.00    -0.311 A  
HETATM   12  F   UNL     1      -9.782   9.742  62.393  1.00  0.00    -0.267 F  
HETATM   13  C   UNL     1      -8.380  10.448  65.662  1.00  0.00    -0.163 A  
HETATM   14  C   UNL     1     -10.553  11.183  64.090  1.00  0.00    -0.436 A  
HETATM   15  C   UNL     1      -9.630  10.258  63.619  1.00  0.00    -0.277 A  
HETATM   16  C   UNL     1      -8.545   9.883  64.394  1.00  0.00    -0.197 A  
ENDROOT
BRANCH   8  17
HETATM   17  C   UNL     1      -9.740  10.325  69.473  1.00  0.00    -0.235 C  
BRANCH  17  18
HETATM   18  C   UNL     1      -9.951   8.831  69.203  1.00  0.00    -0.191 C  
BRANCH  18  19
HETATM   19  N   UNL     1      -9.961   7.914  70.344  1.00  0.00    -0.191 NA 
HETATM   20  C   UNL     1      -9.845   5.378  69.781  1.00  0.00    -0.268 C  
HETATM   21  C   UNL     1     -10.661   6.631  70.182  1.00  0.00    -0.239 C  
HETATM   22  C   UNL     1      -8.387   5.331  70.286  1.00  0.00    -0.106 C  
HETATM   23  C   UNL     1      -7.800   6.725  70.069  1.00  0.00    -0.111 C  
HETATM   24  C   UNL     1      -8.605   7.737  70.876  1.00  0.00    -0.128 C  
BRANCH  22  25
HETATM   25  N   UNL     1      -8.160   4.836  71.652  1.00  0.00    -0.102 N  
HETATM   26  C   UNL     1      -7.050   5.081  72.497  1.00  0.00    -0.082 C  
HETATM   27  O   UNL     1      -6.070   5.778  72.301  1.00  0.00    -0.037 OA 
HETATM   28  N   UNL     1      -7.269   4.350  73.675  1.00  0.00    -0.070 NA 
HETATM   29  C   UNL     1      -8.459   3.657  73.572  1.00  0.00    -0.083 A  
HETATM   30  C   UNL     1      -9.037   2.795  74.486  1.00  0.00    -0.095 A  
HETATM   31  C   UNL     1     -10.228   2.182  74.110  1.00  0.00    -0.168 A  
HETATM   32  C   UNL     1     -10.811   2.447  72.855  1.00  0.00    -0.169 A  
HETATM   33  C   UNL     1     -10.220   3.351  71.960  1.00  0.00    -0.116 A  
HETATM   34  C   UNL     1      -9.026   3.939  72.332  1.00  0.00    -0.109 A  
ENDBRANCH  22  25
ENDBRANCH  18  19
ENDBRANCH  17  18
ENDBRANCH   8  17
TORSDOF 4
ENDMDL
MODEL      185
REMARK 921   NORMALIZED FREE ENERGY PREDICTED BY IDOCK:   -4.60 KCAL/MOL
REMARK 922        TOTAL FREE ENERGY PREDICTED BY IDOCK:   -6.46 KCAL/MOL
REMARK 923 INTER-LIGAND FREE ENERGY PREDICTED BY IDOCK:   -6.07 KCAL/MOL
REMARK 924 INTRA-LIGAND FREE ENERGY PREDICTED BY IDOCK:   -0.39 KCAL/MOL
REMARK 927      BINDING AFFINITY PREDICTED BY RF-SCORE:    0.00 PKD
ROOT
HETATM    1  F   UNL     1      -5.181  13.565  70.828  1.00  0.00    -0.093 F  
HETATM    2  C   UNL     1      -6.010  14.041  69.889  1.00  0.00    -0.133 A  
HETATM    3  C   UNL     1      -5.493  14.548  68.706  1.00  0.00    -0.088 A  
HETATM    4  C   UNL     1      -6.360  15.061  67.734  1.00  0.00    -0.176 A  
HETATM    5  C   UNL     1      -7.756  15.070  67.936  1.00  0.00    -0.145 A  
HETATM    6  C   UNL     1      -8.679  15.708  66.882  1.00  0.00    -0.283 C  
HETATM    7  C   UNL     1      -8.241  14.548  69.147  1.00  0.00    -0.017 A  
HETATM    8  C   UNL     1      -9.657  14.716  66.179  1.00  0.00    -0.336 C  
HETATM    9  C   UNL     1      -7.377  14.035  70.118  1.00  0.00     0.678 A  
HETATM   10  C   UNL     1      -9.270  17.081  67.234  1.00  0.00    -0.225 A  
HETATM   11  C   UNL     1      -9.066  17.707  68.475  1.00  0.00    -0.279 A  
HETATM   12  F   UNL     1     -10.650  20.932  67.948  1.00  0.00    -0.177 F  
HETATM   13  C   UNL     1      -9.955  17.808  66.242  1.00  0.00    -0.322 A  
HETATM   14  C   UNL     1      -9.543  19.000  68.721  1.00  0.00    -0.451 A  
HETATM   15  C   UNL     1     -10.219  19.685  67.719  1.00  0.00    -0.436 A  
HETATM   16  C   UNL     1     -10.432  19.101  66.481  1.00  0.00    -0.534 A  
ENDROOT
BRANCH   8  17
HETATM   17  C   UNL     1     -10.673  13.894  66.983  1.00  0.00    -0.283 C  
BRANCH  17  18
HETATM   18  C   UNL     1     -10.643  12.365  66.871  1.00  0.00    -0.229 C  
BRANCH  18  19
HETATM   19  N   UNL     1      -9.751  11.621  67.762  1.00  0.00    -0.170 NA 
HETATM   20  C   UNL     1     -10.864  10.498  69.827  1.00  0.00    -0.335 C  
HETATM   21  C   UNL     1     -10.044  11.653  69.204  1.00  0.00     0.079 C  
HETATM   22  C   UNL     1     -10.686   9.112  69.170  1.00  0.00    -0.172 C  
HETATM   23  C   UNL     1     -10.708   9.334  67.658  1.00  0.00    -0.276 C  
HETATM   24  C   UNL     1      -9.555  10.253  67.272  1.00  0.00    -0.159 C  
BRANCH  22  25
HETATM   25  N   UNL     1      -9.536   8.303  69.598  1.00  0.00    -0.162 N  
HETATM   26  C   UNL     1      -8.353   8.737  70.244  1.00  0.00    -0.136 C  
HETATM   27  O   UNL     1      -8.045   9.855  70.620  1.00  0.00    -0.240 OA 
HETATM   28  N   UNL     1      -7.536   7.606  70.398  1.00  0.00    -0.078 NA 
HETATM   29  C   UNL     1      -8.168   6.505  69.854  1.00  0.00    -0.126 A  
HETATM   30  C   UNL     1      -7.708   5.204  69.763  1.00  0.00    -0.071 A  
HETATM   31  C   UNL     1      -8.532   4.287  69.117  1.00  0.00    -0.099 A  
HETATM   32  C   UNL     1      -9.779   4.680  68.595  1.00  0.00    -0.217 A  
HETATM   33  C   UNL     1     -10.235   6.000  68.730  1.00  0.00    -0.236 A  
HETATM   34  C   UNL     1      -9.403   6.910  69.354  1.00  0.00    -0.146 A  
ENDBRANCH  22  25
ENDBRANCH  18  19
ENDBRANCH  17  18
ENDBRANCH   8  17
TORSDOF 4
ENDMDL
MODEL      186
REMARK 921   NORMALIZED FREE ENERGY PREDICTED BY IDOCK:   -4.58 KCAL/MOL
REMARK 922        TOTAL FREE ENERGY PREDICTED BY IDOCK:   -6.43 KCAL/MOL
REMARK 923 INTER-LIGAND FREE ENERGY PREDICTED BY IDOCK:   -5.60 KCAL/MOL
REMARK 924 INTRA-LIGAND FREE ENERGY PREDICTED BY IDOCK:   -0.83 KCAL/MOL
REMARK 927      BINDING AFFINITY PREDICTED BY RF-SCORE:    0.00 PKD
ROOT
HETATM    1  F   UNL     1     -10.407  11.081  62.853  1.00  0.00    -0.330 F  
HETATM    2  C   UNL     1      -9.609  10.159  63.406  1.00  0.00    -0.181 A  
HETATM    3  C   UNL     1      -8.791   9.381  62.600  1.00  0.00    -0.232 A  
HETATM    4  C   UNL     1      -7.971   8.406  63.180  1.00  0.00    -0.161 A  
HETATM    5  C   UNL     1      -7.959   8.201  64.575  1.00  0.00    -0.142 A  
HETATM    6  C   UNL     1      -7.103   7.072  65.176  1.00  0.00    -0.060 C  
HETATM    7  C   UNL     1      -8.801   9.009  65.358  1.00  0.00    -0.237 A  
HETATM    8  C   UNL     1      -5.946   7.551  66.108  1.00  0.00    -0.037 C  
HETATM    9  C   UNL     1      -9.620   9.983  64.781  1.00  0.00    -0.374 A  
HETATM   10  C   UNL     1      -7.858   5.821  65.651  1.00  0.00    -0.100 A  
HETATM   11  C   UNL     1      -9.259   5.718  65.626  1.00  0.00    -0.038 A  
HETATM   12  F   UNL     1      -9.765   2.272  66.654  1.00  0.00     0.024 F  
HETATM   13  C   UNL     1      -7.126   4.678  66.023  1.00  0.00    -0.075 A  
HETATM   14  C   UNL     1      -9.903   4.526  65.979  1.00  0.00    -0.240 A  
HETATM   15  C   UNL     1      -9.147   3.419  66.345  1.00  0.00    -0.158 A  
HETATM   16  C   UNL     1      -7.764   3.483  66.373  1.00  0.00    -0.084 A  
ENDROOT
BRANCH   8  17
HETATM   17  C   UNL     1      -6.225   8.391  67.360  1.00  0.00    -0.056 C  
BRANCH  17  18
HETATM   18  C   UNL     1      -5.730   7.883  68.719  1.00  0.00    -0.031 C  
BRANCH  18  19
HETATM   19  N   UNL     1      -6.591   8.072  69.888  1.00  0.00    -0.036 NA 
HETATM   20  C   UNL     1      -9.110   8.499  69.403  1.00  0.00    -0.150 C  
HETATM   21  C   UNL     1      -7.702   9.029  69.769  1.00  0.00    -0.077 C  
HETATM   22  C   UNL     1      -9.448   7.078  69.903  1.00  0.00    -0.157 C  
HETATM   23  C   UNL     1      -8.215   6.213  69.639  1.00  0.00    -0.116 C  
HETATM   24  C   UNL     1      -7.034   6.779  70.418  1.00  0.00    -0.063 C  
BRANCH  22  25
HETATM   25  N   UNL     1      -9.939   6.944  71.282  1.00  0.00    -0.180 N  
HETATM   26  C   UNL     1     -10.417   7.962  72.143  1.00  0.00    -0.249 C  
HETATM   27  O   UNL     1     -10.563   9.152  71.924  1.00  0.00    -0.348 OA 
HETATM   28  N   UNL     1     -10.719   7.349  73.369  1.00  0.00    -0.389 NA 
HETATM   29  C   UNL     1     -10.426   6.000  73.292  1.00  0.00    -0.240 A  
HETATM   30  C   UNL     1     -10.543   5.036  74.276  1.00  0.00    -0.310 A  
HETATM   31  C   UNL     1     -10.129   3.748  73.949  1.00  0.00    -0.187 A  
HETATM   32  C   UNL     1      -9.627   3.455  72.666  1.00  0.00    -0.184 A  
HETATM   33  C   UNL     1      -9.550   4.446  71.676  1.00  0.00    -0.227 A  
HETATM   34  C   UNL     1      -9.943   5.728  72.015  1.00  0.00    -0.175 A  
ENDBRANCH  22  25
ENDBRANCH  18  19
ENDBRANCH  17  18
ENDBRANCH   8  17
TORSDOF 4
ENDMDL
MODEL      187
REMARK 921   NORMALIZED FREE ENERGY PREDICTED BY IDOCK:   -4.47 KCAL/MOL
REMARK 922        TOTAL FREE ENERGY PREDICTED BY IDOCK:   -6.31 KCAL/MOL
REMARK 923 INTER-LIGAND FREE ENERGY PREDICTED BY IDOCK:   -7.65 KCAL/MOL
REMARK 924 INTRA-LIGAND FREE ENERGY PREDICTED BY IDOCK:    1.35 KCAL/MOL
REMARK 927      BINDING AFFINITY PREDICTED BY RF-SCORE:    0.00 PKD
ROOT
HETATM    1  F   UNL     1      -8.621   9.220  62.400  1.00  0.00    -0.159 F  
HETATM    2  C   UNL     1      -8.523   9.580  63.687  1.00  0.00    -0.196 A  
HETATM    3  C   UNL     1      -7.334   9.378  64.372  1.00  0.00    -0.109 A  
HETATM    4  C   UNL     1      -7.240   9.739  65.721  1.00  0.00    -0.104 A  
HETATM    5  C   UNL     1      -8.337  10.310  66.399  1.00  0.00    -0.132 A  
HETATM    6  C   UNL     1      -8.228  10.628  67.901  1.00  0.00    -0.112 C  
HETATM    7  C   UNL     1      -9.525  10.500  65.671  1.00  0.00    -0.259 A  
HETATM    8  C   UNL     1      -8.326  12.143  68.260  1.00  0.00    -0.172 C  
HETATM    9  C   UNL     1      -9.619  10.139  64.325  1.00  0.00    -0.354 A  
HETATM   10  C   UNL     1      -8.963   9.674  68.856  1.00  0.00    -0.144 A  
HETATM   11  C   UNL     1      -9.766   8.612  68.408  1.00  0.00    -0.176 A  
HETATM   12  F   UNL     1     -10.633   6.974  71.531  1.00  0.00    -0.215 F  
HETATM   13  C   UNL     1      -8.742   9.787  70.241  1.00  0.00    -0.172 A  
HETATM   14  C   UNL     1     -10.341   7.710  69.312  1.00  0.00    -0.218 A  
HETATM   15  C   UNL     1     -10.104   7.855  70.673  1.00  0.00    -0.194 A  
HETATM   16  C   UNL     1      -9.312   8.887  71.148  1.00  0.00    -0.326 A  
ENDROOT
BRANCH   8  17
HETATM   17  C   UNL     1      -9.559  12.975  67.884  1.00  0.00    -0.215 C  
BRANCH  17  18
HETATM   18  C   UNL     1      -9.778  13.354  66.415  1.00  0.00    -0.277 C  
BRANCH  18  19
HETATM   19  N   UNL     1      -9.482  14.727  66.000  1.00  0.00    -0.291 NA 
HETATM   20  C   UNL     1     -11.113  16.563  66.855  1.00  0.00     0.149 C  
HETATM   21  C   UNL     1     -10.620  15.619  65.732  1.00  0.00    -0.361 C  
HETATM   22  C   UNL     1     -10.032  17.068  67.836  1.00  0.00    -0.281 C  
HETATM   23  C   UNL     1      -9.153  15.865  68.180  1.00  0.00    -0.182 C  
HETATM   24  C   UNL     1      -8.504  15.340  66.905  1.00  0.00    -0.252 C  
BRANCH  22  25
HETATM   25  N   UNL     1      -9.241  18.238  67.428  1.00  0.00    -0.249 N  
HETATM   26  C   UNL     1      -9.532  19.177  66.408  1.00  0.00    -0.354 C  
HETATM   27  O   UNL     1     -10.505  19.247  65.679  1.00  0.00    -0.502 OA 
HETATM   28  N   UNL     1      -8.455  20.076  66.366  1.00  0.00    -0.319 NA 
HETATM   29  C   UNL     1      -7.513  19.710  67.308  1.00  0.00    -0.246 A  
HETATM   30  C   UNL     1      -6.292  20.299  67.581  1.00  0.00    -0.271 A  
HETATM   31  C   UNL     1      -5.505  19.696  68.557  1.00  0.00    -0.222 A  
HETATM   32  C   UNL     1      -5.950  18.544  69.234  1.00  0.00    -0.245 A  
HETATM   33  C   UNL     1      -7.208  17.986  68.960  1.00  0.00    -0.216 A  
HETATM   34  C   UNL     1      -7.976  18.578  67.975  1.00  0.00    -0.276 A  
ENDBRANCH  22  25
ENDBRANCH  18  19
ENDBRANCH  17  18
ENDBRANCH   8  17
TORSDOF 4
ENDMDL
MODEL      188
REMARK 921   NORMALIZED FREE ENERGY PREDICTED BY IDOCK:   -4.46 KCAL/MOL
REMARK 922        TOTAL FREE ENERGY PREDICTED BY IDOCK:   -6.29 KCAL/MOL
REMARK 923 INTER-LIGAND FREE ENERGY PREDICTED BY IDOCK:   -6.08 KCAL/MOL
REMARK 924 INTRA-LIGAND FREE ENERGY PREDICTED BY IDOCK:   -0.21 KCAL/MOL
REMARK 927      BINDING AFFINITY PREDICTED BY RF-SCORE:    0.00 PKD
ROOT
HETATM    1  F   UNL     1      -6.579  12.211  69.736  1.00  0.00    -0.121 F  
HETATM    2  C   UNL     1      -7.247  13.030  68.913  1.00  0.00    -0.047 A  
HETATM    3  C   UNL     1      -6.562  13.730  67.930  1.00  0.00    -0.164 A  
HETATM    4  C   UNL     1      -7.259  14.599  67.083  1.00  0.00     0.085 A  
HETATM    5  C   UNL     1      -8.653  14.774  67.209  1.00  0.00    -0.230 A  
HETATM    6  C   UNL     1      -9.381  15.792  66.312  1.00  0.00    -0.360 C  
HETATM    7  C   UNL     1      -9.312  14.048  68.216  1.00  0.00    -0.208 A  
HETATM    8  C   UNL     1     -10.420  15.173  65.327  1.00  0.00    -0.434 C  
HETATM    9  C   UNL     1      -8.616  13.181  69.062  1.00  0.00     0.445 A  
HETATM   10  C   UNL     1      -9.807  17.108  66.980  1.00  0.00    -0.276 A  
HETATM   11  C   UNL     1      -9.629  17.364  68.350  1.00  0.00    -0.292 A  
HETATM   12  F   UNL     1     -10.701  20.824  68.602  1.00  0.00    -0.223 F  
HETATM   13  C   UNL     1     -10.294  18.158  66.179  1.00  0.00    -0.394 A  
HETATM   14  C   UNL     1      -9.945  18.612  68.900  1.00  0.00    -0.399 A  
HETATM   15  C   UNL     1     -10.428  19.623  68.078  1.00  0.00    -0.407 A  
HETATM   16  C   UNL     1     -10.608  19.408  66.722  1.00  0.00    -0.574 A  
ENDROOT
BRANCH   8  17
HETATM   17  C   UNL     1     -11.607  14.344  65.835  1.00  0.00    -0.361 C  
BRANCH  17  18
HETATM   18  C   UNL     1     -12.351  13.434  64.852  1.00  0.00    -0.412 C  
BRANCH  18  19
HETATM   19  N   UNL     1     -11.699  12.196  64.422  1.00  0.00    -0.356 NA 
HETATM   20  C   UNL     1      -9.102  12.157  64.557  1.00  0.00     0.651 C  
HETATM   21  C   UNL     1     -10.404  12.310  63.734  1.00  0.00    -0.435 C  
HETATM   22  C   UNL     1      -9.178  11.206  65.771  1.00  0.00    -0.215 C  
HETATM   23  C   UNL     1     -10.500  11.502  66.481  1.00  0.00    -0.284 C  
HETATM   24  C   UNL     1     -11.652  11.227  65.523  1.00  0.00     0.371 C  
BRANCH  22  25
HETATM   25  N   UNL     1      -8.989   9.770  65.519  1.00  0.00    -0.164 N  
HETATM   26  C   UNL     1      -8.462   9.147  64.362  1.00  0.00    -0.184 C  
HETATM   27  O   UNL     1      -8.016   9.655  63.348  1.00  0.00    -0.130 OA 
HETATM   28  N   UNL     1      -8.533   7.762  64.578  1.00  0.00     0.023 NA 
HETATM   29  C   UNL     1      -9.100   7.519  65.815  1.00  0.00     0.029 A  
HETATM   30  C   UNL     1      -9.383   6.303  66.409  1.00  0.00    -0.176 A  
HETATM   31  C   UNL     1     -10.007   6.338  67.652  1.00  0.00    -0.151 A  
HETATM   32  C   UNL     1     -10.319   7.565  68.269  1.00  0.00    -0.233 A  
HETATM   33  C   UNL     1      -9.991   8.785  67.657  1.00  0.00    -0.247 A  
HETATM   34  C   UNL     1      -9.391   8.742  66.413  1.00  0.00    -0.204 A  
ENDBRANCH  22  25
ENDBRANCH  18  19
ENDBRANCH  17  18
ENDBRANCH   8  17
TORSDOF 4
ENDMDL
MODEL      189
REMARK 921   NORMALIZED FREE ENERGY PREDICTED BY IDOCK:   -4.44 KCAL/MOL
REMARK 922        TOTAL FREE ENERGY PREDICTED BY IDOCK:   -6.27 KCAL/MOL
REMARK 923 INTER-LIGAND FREE ENERGY PREDICTED BY IDOCK:   -6.26 KCAL/MOL
REMARK 924 INTRA-LIGAND FREE ENERGY PREDICTED BY IDOCK:   -0.01 KCAL/MOL
REMARK 927      BINDING AFFINITY PREDICTED BY RF-SCORE:    0.00 PKD
ROOT
HETATM    1  F   UNL     1      -6.366   4.802  62.336  1.00  0.00    -0.022 F  
HETATM    2  C   UNL     1      -6.456   5.728  63.299  1.00  0.00    -0.028 A  
HETATM    3  C   UNL     1      -5.466   6.692  63.425  1.00  0.00    -0.027 A  
HETATM    4  C   UNL     1      -5.555   7.648  64.444  1.00  0.00    -0.033 A  
HETATM    5  C   UNL     1      -6.637   7.651  65.347  1.00  0.00    -0.045 A  
HETATM    6  C   UNL     1      -6.669   8.668  66.502  1.00  0.00    -0.071 C  
HETATM    7  C   UNL     1      -7.620   6.659  65.187  1.00  0.00    -0.090 A  
HETATM    8  C   UNL     1      -7.841   9.695  66.440  1.00  0.00    -0.101 C  
HETATM    9  C   UNL     1      -7.533   5.704  64.171  1.00  0.00    -0.070 A  
HETATM   10  C   UNL     1      -6.343   8.122  67.901  1.00  0.00    -0.052 A  
HETATM   11  C   UNL     1      -6.106   6.761  68.156  1.00  0.00    -0.032 A  
HETATM   12  F   UNL     1      -5.152   6.819  71.659  1.00  0.00    -0.024 F  
HETATM   13  C   UNL     1      -6.157   9.027  68.963  1.00  0.00    -0.043 A  
HETATM   14  C   UNL     1      -5.719   6.320  69.427  1.00  0.00    -0.017 A  
HETATM   15  C   UNL     1      -5.550   7.241  70.452  1.00  0.00    -0.024 A  
HETATM   16  C   UNL     1      -5.768   8.592  70.234  1.00  0.00    -0.024 A  
ENDROOT
BRANCH   8  17
HETATM   17  C   UNL     1      -9.305   9.237  66.427  1.00  0.00    -0.247 C  
BRANCH  17  18
HETATM   18  C   UNL     1     -10.411  10.281  66.618  1.00  0.00    -0.219 C  
BRANCH  18  19
HETATM   19  N   UNL     1     -10.300  11.551  65.897  1.00  0.00    -0.239 NA 
HETATM   20  C   UNL     1     -12.529  12.804  65.426  1.00  0.00    -0.478 C  
HETATM   21  C   UNL     1     -11.371  11.894  64.949  1.00  0.00    -0.277 C  
HETATM   22  C   UNL     1     -12.164  13.856  66.495  1.00  0.00    -0.442 C  
HETATM   23  C   UNL     1     -11.276  13.153  67.521  1.00  0.00    -0.314 C  
HETATM   24  C   UNL     1     -10.016  12.649  66.827  1.00  0.00    -0.234 C  
BRANCH  22  25
HETATM   25  N   UNL     1     -11.583  15.123  66.028  1.00  0.00    -0.165 N  
HETATM   26  C   UNL     1     -11.451  15.587  64.697  1.00  0.00    -0.324 C  
HETATM   27  O   UNL     1     -11.819  15.066  63.659  1.00  0.00    -0.099 OA 
HETATM   28  N   UNL     1     -10.788  16.822  64.761  1.00  0.00    -0.799 NA 
HETATM   29  C   UNL     1     -10.496  17.119  66.078  1.00  0.00    -0.266 A  
HETATM   30  C   UNL     1      -9.827  18.217  66.586  1.00  0.00    -0.354 A  
HETATM   31  C   UNL     1      -9.621  18.249  67.962  1.00  0.00    -0.314 A  
HETATM   32  C   UNL     1     -10.088  17.208  68.787  1.00  0.00    -0.329 A  
HETATM   33  C   UNL     1     -10.793  16.121  68.248  1.00  0.00    -0.326 A  
HETATM   34  C   UNL     1     -10.976  16.086  66.878  1.00  0.00    -0.124 A  
ENDBRANCH  22  25
ENDBRANCH  18  19
ENDBRANCH  17  18
ENDBRANCH   8  17
TORSDOF 4
ENDMDL
MODEL      190
REMARK 921   NORMALIZED FREE ENERGY PREDICTED BY IDOCK:   -4.41 KCAL/MOL
REMARK 922        TOTAL FREE ENERGY PREDICTED BY IDOCK:   -6.23 KCAL/MOL
REMARK 923 INTER-LIGAND FREE ENERGY PREDICTED BY IDOCK:   -6.39 KCAL/MOL
REMARK 924 INTRA-LIGAND FREE ENERGY PREDICTED BY IDOCK:    0.16 KCAL/MOL
REMARK 927      BINDING AFFINITY PREDICTED BY RF-SCORE:    0.00 PKD
ROOT
HETATM    1  F   UNL     1     -10.732  18.629  69.349  1.00  0.00     0.077 F  
HETATM    2  C   UNL     1     -10.319  17.546  68.678  1.00  0.00    -0.369 A  
HETATM    3  C   UNL     1      -9.545  17.696  67.536  1.00  0.00    -0.267 A  
HETATM    4  C   UNL     1      -9.129  16.562  66.827  1.00  0.00    -0.262 A  
HETATM    5  C   UNL     1      -9.482  15.266  67.255  1.00  0.00    -0.212 A  
HETATM    6  C   UNL     1      -9.074  14.043  66.414  1.00  0.00    -0.120 C  
HETATM    7  C   UNL     1     -10.267  15.156  68.416  1.00  0.00    -0.221 A  
HETATM    8  C   UNL     1      -8.080  13.067  67.116  1.00  0.00    -0.114 C  
HETATM    9  C   UNL     1     -10.682  16.286  69.125  1.00  0.00    -0.305 A  
HETATM   10  C   UNL     1     -10.189  13.375  65.595  1.00  0.00    -0.300 A  
HETATM   11  C   UNL     1     -11.531  13.784  65.653  1.00  0.00    -0.318 A  
HETATM   12  F   UNL     1     -13.050  11.706  63.091  1.00  0.00    -0.658 F  
HETATM   13  C   UNL     1      -9.849  12.385  64.654  1.00  0.00    -0.101 A  
HETATM   14  C   UNL     1     -12.499  13.211  64.819  1.00  0.00    -0.460 A  
HETATM   15  C   UNL     1     -12.127  12.232  63.907  1.00  0.00    -0.506 A  
HETATM   16  C   UNL     1     -10.810  11.810  63.817  1.00  0.00    -0.490 A  
ENDROOT
BRANCH   8  17
HETATM   17  C   UNL     1      -8.432  12.389  68.446  1.00  0.00    -0.131 C  
BRANCH  17  18
HETATM   18  C   UNL     1      -7.453  11.372  69.042  1.00  0.00    -0.093 C  
BRANCH  18  19
HETATM   19  N   UNL     1      -7.999  10.220  69.762  1.00  0.00    -0.157 NA 
HETATM   20  C   UNL     1      -7.330   7.875  68.858  1.00  0.00    -0.085 C  
HETATM   21  C   UNL     1      -8.355   9.029  68.975  1.00  0.00    -0.124 C  
HETATM   22  C   UNL     1      -6.402   7.670  70.074  1.00  0.00    -0.034 C  
HETATM   23  C   UNL     1      -5.940   9.058  70.516  1.00  0.00    -0.038 C  
HETATM   24  C   UNL     1      -7.156   9.885  70.915  1.00  0.00     0.149 C  
BRANCH  22  25
HETATM   25  N   UNL     1      -6.920   6.871  71.194  1.00  0.00    -0.068 N  
HETATM   26  C   UNL     1      -6.343   6.680  72.473  1.00  0.00    -0.054 C  
HETATM   27  O   UNL     1      -5.323   7.158  72.938  1.00  0.00    -0.037 OA 
HETATM   28  N   UNL     1      -7.182   5.797  73.170  1.00  0.00    -0.089 NA 
HETATM   29  C   UNL     1      -8.239   5.430  72.358  1.00  0.00    -0.114 A  
HETATM   30  C   UNL     1      -9.275   4.558  72.634  1.00  0.00    -0.145 A  
HETATM   31  C   UNL     1     -10.191   4.324  71.613  1.00  0.00    -0.160 A  
HETATM   32  C   UNL     1     -10.060   4.962  70.364  1.00  0.00    -0.316 A  
HETATM   33  C   UNL     1      -9.015   5.867  70.122  1.00  0.00    -0.148 A  
HETATM   34  C   UNL     1      -8.098   6.079  71.134  1.00  0.00    -0.121 A  
ENDBRANCH  22  25
ENDBRANCH  18  19
ENDBRANCH  17  18
ENDBRANCH   8  17
TORSDOF 4
ENDMDL
MODEL      191
REMARK 921   NORMALIZED FREE ENERGY PREDICTED BY IDOCK:   -4.41 KCAL/MOL
REMARK 922        TOTAL FREE ENERGY PREDICTED BY IDOCK:   -6.22 KCAL/MOL
REMARK 923 INTER-LIGAND FREE ENERGY PREDICTED BY IDOCK:   -5.85 KCAL/MOL
REMARK 924 INTRA-LIGAND FREE ENERGY PREDICTED BY IDOCK:   -0.37 KCAL/MOL
REMARK 927      BINDING AFFINITY PREDICTED BY RF-SCORE:    0.00 PKD
ROOT
HETATM    1  F   UNL     1     -12.602  11.387  68.782  1.00  0.00    -0.201 F  
HETATM    2  C   UNL     1     -11.355  11.030  68.450  1.00  0.00    -0.295 A  
HETATM    3  C   UNL     1     -11.119  10.394  67.240  1.00  0.00    -0.251 A  
HETATM    4  C   UNL     1      -9.817  10.005  66.903  1.00  0.00    -0.248 A  
HETATM    5  C   UNL     1      -8.736  10.252  67.774  1.00  0.00    -0.121 A  
HETATM    6  C   UNL     1      -7.327   9.748  67.410  1.00  0.00    -0.090 C  
HETATM    7  C   UNL     1      -9.014  10.899  68.991  1.00  0.00    -0.104 A  
HETATM    8  C   UNL     1      -6.269  10.869  67.174  1.00  0.00    -0.069 C  
HETATM    9  C   UNL     1     -10.314  11.287  69.328  1.00  0.00    -0.101 A  
HETATM   10  C   UNL     1      -6.824   8.516  68.178  1.00  0.00    -0.069 A  
HETATM   11  C   UNL     1      -7.552   7.912  69.217  1.00  0.00    -0.097 A  
HETATM   12  F   UNL     1      -5.509   5.001  69.955  1.00  0.00    -0.008 F  
HETATM   13  C   UNL     1      -5.638   7.884  67.759  1.00  0.00    -0.037 A  
HETATM   14  C   UNL     1      -7.101   6.735  69.826  1.00  0.00    -0.068 A  
HETATM   15  C   UNL     1      -5.922   6.142  69.389  1.00  0.00    -0.024 A  
HETATM   16  C   UNL     1      -5.184   6.707  68.362  1.00  0.00    -0.011 A  
ENDROOT
BRANCH   8  17
HETATM   17  C   UNL     1      -5.929  11.889  68.268  1.00  0.00    -0.050 C  
BRANCH  17  18
HETATM   18  C   UNL     1      -5.360  13.253  67.860  1.00  0.00    -0.108 C  
BRANCH  18  19
HETATM   19  N   UNL     1      -6.292  14.290  67.416  1.00  0.00    -0.309 NA 
HETATM   20  C   UNL     1      -7.988  15.149  69.190  1.00  0.00    -0.205 C  
HETATM   21  C   UNL     1      -7.656  14.263  67.964  1.00  0.00    -0.142 C  
HETATM   22  C   UNL     1      -7.209  16.477  69.294  1.00  0.00    -0.213 C  
HETATM   23  C   UNL     1      -5.752  16.162  68.952  1.00  0.00    -0.117 C  
HETATM   24  C   UNL     1      -5.680  15.618  67.531  1.00  0.00    -0.055 C  
BRANCH  22  25
HETATM   25  N   UNL     1      -7.724  17.626  68.534  1.00  0.00    -0.272 N  
HETATM   26  C   UNL     1      -8.954  17.736  67.842  1.00  0.00    -0.255 C  
HETATM   27  O   UNL     1      -9.865  16.931  67.756  1.00  0.00    -0.242 OA 
HETATM   28  N   UNL     1      -8.966  19.000  67.233  1.00  0.00    -0.281 NA 
HETATM   29  C   UNL     1      -7.782  19.656  67.513  1.00  0.00    -0.267 A  
HETATM   30  C   UNL     1      -7.367  20.904  67.087  1.00  0.00    -0.369 A  
HETATM   31  C   UNL     1      -6.095  21.312  67.476  1.00  0.00    -0.435 A  
HETATM   32  C   UNL     1      -5.284  20.484  68.276  1.00  0.00    -0.261 A  
HETATM   33  C   UNL     1      -5.744  19.235  68.721  1.00  0.00    -0.227 A  
HETATM   34  C   UNL     1      -7.000  18.827  68.313  1.00  0.00    -0.246 A  
ENDBRANCH  22  25
ENDBRANCH  18  19
ENDBRANCH  17  18
ENDBRANCH   8  17
TORSDOF 4
ENDMDL
MODEL      192
REMARK 921   NORMALIZED FREE ENERGY PREDICTED BY IDOCK:   -4.38 KCAL/MOL
REMARK 922        TOTAL FREE ENERGY PREDICTED BY IDOCK:   -6.19 KCAL/MOL
REMARK 923 INTER-LIGAND FREE ENERGY PREDICTED BY IDOCK:   -6.12 KCAL/MOL
REMARK 924 INTRA-LIGAND FREE ENERGY PREDICTED BY IDOCK:   -0.07 KCAL/MOL
REMARK 927      BINDING AFFINITY PREDICTED BY RF-SCORE:    0.00 PKD
ROOT
HETATM    1  F   UNL     1     -13.248  13.536  70.106  1.00  0.00    -0.013 F  
HETATM    2  C   UNL     1     -12.081  13.175  69.558  1.00  0.00    -0.238 A  
HETATM    3  C   UNL     1     -11.308  14.119  68.898  1.00  0.00    -0.308 A  
HETATM    4  C   UNL     1     -10.096  13.736  68.311  1.00  0.00    -0.239 A  
HETATM    5  C   UNL     1      -9.644  12.402  68.381  1.00  0.00    -0.180 A  
HETATM    6  C   UNL     1      -8.345  11.994  67.663  1.00  0.00    -0.160 C  
HETATM    7  C   UNL     1     -10.455  11.474  69.058  1.00  0.00    -0.175 A  
HETATM    8  C   UNL     1      -7.194  11.522  68.605  1.00  0.00    -0.102 C  
HETATM    9  C   UNL     1     -11.664  11.856  69.644  1.00  0.00    -0.413 A  
HETATM   10  C   UNL     1      -8.507  11.190  66.364  1.00  0.00    -0.167 A  
HETATM   11  C   UNL     1      -9.754  10.764  65.878  1.00  0.00    -0.272 A  
HETATM   12  F   UNL     1      -8.843   9.306  62.679  1.00  0.00    -0.205 F  
HETATM   13  C   UNL     1      -7.378  10.959  65.555  1.00  0.00     0.106 A  
HETATM   14  C   UNL     1      -9.866  10.116  64.641  1.00  0.00    -0.361 A  
HETATM   15  C   UNL     1      -8.728   9.901  63.873  1.00  0.00    -0.214 A  
HETATM   16  C   UNL     1      -7.484  10.314  64.318  1.00  0.00    -0.072 A  
ENDROOT
BRANCH   8  17
HETATM   17  C   UNL     1      -7.377  10.331  69.554  1.00  0.00    -0.132 C  
BRANCH  17  18
HETATM   18  C   UNL     1      -7.966   9.028  69.003  1.00  0.00    -0.102 C  
BRANCH  18  19
HETATM   19  N   UNL     1      -8.296   7.960  69.948  1.00  0.00    -0.121 NA 
HETATM   20  C   UNL     1      -9.287   8.711  72.232  1.00  0.00    -0.322 C  
HETATM   21  C   UNL     1      -8.089   8.227  71.380  1.00  0.00    -0.125 C  
HETATM   22  C   UNL     1     -10.676   8.193  71.801  1.00  0.00    -0.251 C  
HETATM   23  C   UNL     1     -10.732   8.297  70.277  1.00  0.00    -0.237 C  
HETATM   24  C   UNL     1      -9.635   7.426  69.677  1.00  0.00    -0.156 C  
BRANCH  22  25
HETATM   25  N   UNL     1     -11.083   6.866  72.285  1.00  0.00    -0.241 N  
HETATM   26  C   UNL     1     -12.354   6.249  72.181  1.00  0.00    -0.140 C  
HETATM   27  O   UNL     1     -13.367   6.656  71.640  1.00  0.00    -0.219 OA 
HETATM   28  N   UNL     1     -12.260   5.012  72.838  1.00  0.00     0.065 NA 
HETATM   29  C   UNL     1     -10.987   4.861  73.354  1.00  0.00    -0.325 A  
HETATM   30  C   UNL     1     -10.476   3.813  74.096  1.00  0.00    -0.268 A  
HETATM   31  C   UNL     1      -9.163   3.934  74.538  1.00  0.00    -0.115 A  
HETATM   32  C   UNL     1      -8.398   5.075  74.227  1.00  0.00    -0.105 A  
HETATM   33  C   UNL     1      -8.932   6.110  73.445  1.00  0.00    -0.125 A  
HETATM   34  C   UNL     1     -10.243   5.992  73.026  1.00  0.00    -0.194 A  
ENDBRANCH  22  25
ENDBRANCH  18  19
ENDBRANCH  17  18
ENDBRANCH   8  17
TORSDOF 4
ENDMDL
MODEL      193
REMARK 921   NORMALIZED FREE ENERGY PREDICTED BY IDOCK:   -4.36 KCAL/MOL
REMARK 922        TOTAL FREE ENERGY PREDICTED BY IDOCK:   -6.17 KCAL/MOL
REMARK 923 INTER-LIGAND FREE ENERGY PREDICTED BY IDOCK:   -5.37 KCAL/MOL
REMARK 924 INTRA-LIGAND FREE ENERGY PREDICTED BY IDOCK:   -0.80 KCAL/MOL
REMARK 927      BINDING AFFINITY PREDICTED BY RF-SCORE:    0.00 PKD
ROOT
HETATM    1  F   UNL     1     -10.602  11.258  63.228  1.00  0.00    -0.378 F  
HETATM    2  C   UNL     1      -9.750  10.560  63.990  1.00  0.00    -0.323 A  
HETATM    3  C   UNL     1      -8.486  10.253  63.509  1.00  0.00    -0.182 A  
HETATM    4  C   UNL     1      -7.604   9.508  64.301  1.00  0.00    -0.122 A  
HETATM    5  C   UNL     1      -7.979   9.063  65.585  1.00  0.00    -0.104 A  
HETATM    6  C   UNL     1      -7.016   8.182  66.403  1.00  0.00    -0.067 C  
HETATM    7  C   UNL     1      -9.268   9.393  66.038  1.00  0.00    -0.253 A  
HETATM    8  C   UNL     1      -6.497   8.829  67.724  1.00  0.00    -0.061 C  
HETATM    9  C   UNL     1     -10.149  10.137  65.248  1.00  0.00    -0.344 A  
HETATM   10  C   UNL     1      -7.366   6.689  66.491  1.00  0.00    -0.074 A  
HETATM   11  C   UNL     1      -8.536   6.143  65.937  1.00  0.00    -0.145 A  
HETATM   12  F   UNL     1      -8.038   2.592  66.512  1.00  0.00    -0.077 F  
HETATM   13  C   UNL     1      -6.430   5.798  67.048  1.00  0.00    -0.047 A  
HETATM   14  C   UNL     1      -8.769   4.762  65.957  1.00  0.00    -0.118 A  
HETATM   15  C   UNL     1      -7.825   3.914  66.520  1.00  0.00    -0.089 A  
HETATM   16  C   UNL     1      -6.657   4.418  67.069  1.00  0.00    -0.046 A  
ENDROOT
BRANCH   8  17
HETATM   17  C   UNL     1      -7.465   9.285  68.824  1.00  0.00    -0.076 C  
BRANCH  17  18
HETATM   18  C   UNL     1      -6.975   9.319  70.275  1.00  0.00    -0.076 C  
BRANCH  18  19
HETATM   19  N   UNL     1      -7.501   8.323  71.211  1.00  0.00    -0.073 NA 
HETATM   20  C   UNL     1     -10.083   8.278  71.511  1.00  0.00    -0.270 C  
HETATM   21  C   UNL     1      -8.678   8.693  72.011  1.00  0.00    -0.165 C  
HETATM   22  C   UNL     1     -10.154   6.959  70.713  1.00  0.00    -0.194 C  
HETATM   23  C   UNL     1      -8.971   6.965  69.745  1.00  0.00    -0.141 C  
HETATM   24  C   UNL     1      -7.674   7.029  70.543  1.00  0.00    -0.095 C  
BRANCH  22  25
HETATM   25  N   UNL     1     -10.242   5.708  71.480  1.00  0.00    -0.201 N  
HETATM   26  C   UNL     1     -10.469   5.547  72.868  1.00  0.00    -0.214 C  
HETATM   27  O   UNL     1     -10.679   6.394  73.718  1.00  0.00    -0.270 OA 
HETATM   28  N   UNL     1     -10.414   4.169  73.132  1.00  0.00    -0.164 NA 
HETATM   29  C   UNL     1     -10.143   3.488  71.961  1.00  0.00    -0.116 A  
HETATM   30  C   UNL     1      -9.974   2.129  71.774  1.00  0.00    -0.209 A  
HETATM   31  C   UNL     1      -9.658   1.703  70.488  1.00  0.00    -0.131 A  
HETATM   32  C   UNL     1      -9.530   2.627  69.432  1.00  0.00    -0.131 A  
HETATM   33  C   UNL     1      -9.739   3.998  69.644  1.00  0.00    -0.245 A  
HETATM   34  C   UNL     1     -10.032   4.416  70.928  1.00  0.00    -0.172 A  
ENDBRANCH  22  25
ENDBRANCH  18  19
ENDBRANCH  17  18
ENDBRANCH   8  17
TORSDOF 4
ENDMDL
MODEL      194
REMARK 921   NORMALIZED FREE ENERGY PREDICTED BY IDOCK:   -4.35 KCAL/MOL
REMARK 922        TOTAL FREE ENERGY PREDICTED BY IDOCK:   -6.15 KCAL/MOL
REMARK 923 INTER-LIGAND FREE ENERGY PREDICTED BY IDOCK:   -5.65 KCAL/MOL
REMARK 924 INTRA-LIGAND FREE ENERGY PREDICTED BY IDOCK:   -0.50 KCAL/MOL
REMARK 927      BINDING AFFINITY PREDICTED BY RF-SCORE:    0.00 PKD
ROOT
HETATM    1  F   UNL     1     -12.751   6.478  71.465  1.00  0.00    -0.371 F  
HETATM    2  C   UNL     1     -11.879   7.398  71.032  1.00  0.00    -0.307 A  
HETATM    3  C   UNL     1     -11.775   8.614  71.692  1.00  0.00    -0.380 A  
HETATM    4  C   UNL     1     -10.875   9.580  71.227  1.00  0.00    -0.413 A  
HETATM    5  C   UNL     1     -10.068   9.339  70.096  1.00  0.00    -0.249 A  
HETATM    6  C   UNL     1      -9.143  10.448  69.564  1.00  0.00    -0.129 C  
HETATM    7  C   UNL     1     -10.203   8.095  69.454  1.00  0.00    -0.211 A  
HETATM    8  C   UNL     1      -7.619  10.126  69.646  1.00  0.00    -0.158 C  
HETATM    9  C   UNL     1     -11.100   7.130  69.918  1.00  0.00    -0.264 A  
HETATM   10  C   UNL     1      -9.600  11.161  68.282  1.00  0.00    -0.185 A  
HETATM   11  C   UNL     1     -10.750  10.788  67.567  1.00  0.00    -0.312 A  
HETATM   12  F   UNL     1     -10.907  13.370  65.018  1.00  0.00    -0.284 F  
HETATM   13  C   UNL     1      -8.911  12.312  67.855  1.00  0.00    -0.178 A  
HETATM   14  C   UNL     1     -11.183  11.525  66.458  1.00  0.00    -0.324 A  
HETATM   15  C   UNL     1     -10.474  12.652  66.062  1.00  0.00    -0.268 A  
HETATM   16  C   UNL     1      -9.340  13.053  66.749  1.00  0.00    -0.244 A  
ENDROOT
BRANCH   8  17
HETATM   17  C   UNL     1      -7.023   8.900  68.942  1.00  0.00    -0.065 C  
BRANCH  17  18
HETATM   18  C   UNL     1      -6.523   9.043  67.500  1.00  0.00    -0.064 C  
BRANCH  18  19
HETATM   19  N   UNL     1      -7.247   8.338  66.441  1.00  0.00    -0.074 NA 
HETATM   20  C   UNL     1      -5.792   7.250  64.581  1.00  0.00    -0.037 C  
HETATM   21  C   UNL     1      -6.698   8.403  65.079  1.00  0.00    -0.063 C  
HETATM   22  C   UNL     1      -6.104   5.851  65.154  1.00  0.00    -0.026 C  
HETATM   23  C   UNL     1      -6.353   6.033  66.651  1.00  0.00    -0.045 C  
HETATM   24  C   UNL     1      -7.546   6.961  66.849  1.00  0.00    -0.094 C  
BRANCH  22  25
HETATM   25  N   UNL     1      -7.167   5.073  64.501  1.00  0.00    -0.057 N  
HETATM   26  C   UNL     1      -7.905   5.404  63.339  1.00  0.00    -0.093 C  
HETATM   27  O   UNL     1      -7.798   6.373  62.607  1.00  0.00    -0.088 OA 
HETATM   28  N   UNL     1      -8.838   4.375  63.143  1.00  0.00    -0.120 NA 
HETATM   29  C   UNL     1      -8.709   3.439  64.153  1.00  0.00    -0.093 A  
HETATM   30  C   UNL     1      -9.447   2.289  64.361  1.00  0.00    -0.133 A  
HETATM   31  C   UNL     1      -9.141   1.540  65.494  1.00  0.00    -0.084 A  
HETATM   32  C   UNL     1      -8.117   1.944  66.371  1.00  0.00    -0.080 A  
HETATM   33  C   UNL     1      -7.362   3.100  66.118  1.00  0.00    -0.072 A  
HETATM   34  C   UNL     1      -7.685   3.849  65.003  1.00  0.00    -0.085 A  
ENDBRANCH  22  25
ENDBRANCH  18  19
ENDBRANCH  17  18
ENDBRANCH   8  17
TORSDOF 4
ENDMDL
MODEL      195
REMARK 921   NORMALIZED FREE ENERGY PREDICTED BY IDOCK:   -4.33 KCAL/MOL
REMARK 922        TOTAL FREE ENERGY PREDICTED BY IDOCK:   -6.14 KCAL/MOL
REMARK 923 INTER-LIGAND FREE ENERGY PREDICTED BY IDOCK:   -5.46 KCAL/MOL
REMARK 924 INTRA-LIGAND FREE ENERGY PREDICTED BY IDOCK:   -0.67 KCAL/MOL
REMARK 927      BINDING AFFINITY PREDICTED BY RF-SCORE:    0.00 PKD
ROOT
HETATM    1  F   UNL     1      -5.133  20.023  62.451  1.00  0.00    -0.173 F  
HETATM    2  C   UNL     1      -5.630  20.157  63.687  1.00  0.00    -0.251 A  
HETATM    3  C   UNL     1      -5.142  21.150  64.523  1.00  0.00    -0.229 A  
HETATM    4  C   UNL     1      -5.651  21.277  65.821  1.00  0.00    -0.237 A  
HETATM    5  C   UNL     1      -6.658  20.410  66.295  1.00  0.00    -0.272 A  
HETATM    6  C   UNL     1      -7.145  20.525  67.751  1.00  0.00    -0.337 C  
HETATM    7  C   UNL     1      -7.127  19.416  65.419  1.00  0.00    -0.159 A  
HETATM    8  C   UNL     1      -8.639  20.946  67.912  1.00  0.00     0.173 C  
HETATM    9  C   UNL     1      -6.619  19.289  64.124  1.00  0.00     0.859 A  
HETATM   10  C   UNL     1      -6.656  19.440  68.723  1.00  0.00    -0.322 A  
HETATM   11  C   UNL     1      -5.875  18.346  68.317  1.00  0.00    -0.178 A  
HETATM   12  F   UNL     1      -5.126  16.754  71.494  1.00  0.00    -0.226 F  
HETATM   13  C   UNL     1      -6.896  19.595  70.101  1.00  0.00    -0.045 A  
HETATM   14  C   UNL     1      -5.371  17.432  69.250  1.00  0.00    -0.171 A  
HETATM   15  C   UNL     1      -5.633  17.614  70.602  1.00  0.00    -0.110 A  
HETATM   16  C   UNL     1      -6.394  18.687  71.038  1.00  0.00     1.029 A  
ENDROOT
BRANCH   8  17
HETATM   17  C   UNL     1      -9.773  20.113  67.300  1.00  0.00    -0.574 C  
BRANCH  17  18
HETATM   18  C   UNL     1     -10.454  19.043  68.160  1.00  0.00    -0.323 C  
BRANCH  18  19
HETATM   19  N   UNL     1     -10.880  17.800  67.515  1.00  0.00    -0.295 NA 
HETATM   20  C   UNL     1      -8.999  16.097  66.944  1.00  0.00    -0.248 C  
HETATM   21  C   UNL     1      -9.983  17.211  66.509  1.00  0.00    -0.302 C  
HETATM   22  C   UNL     1      -9.480  15.181  68.089  1.00  0.00    -0.201 C  
HETATM   23  C   UNL     1     -10.119  16.087  69.141  1.00  0.00    -0.242 C  
HETATM   24  C   UNL     1     -11.303  16.816  68.517  1.00  0.00    -0.064 C  
BRANCH  22  25
HETATM   25  N   UNL     1     -10.343  14.046  67.731  1.00  0.00    -0.234 N  
HETATM   26  C   UNL     1     -11.164  13.268  68.584  1.00  0.00    -0.274 C  
HETATM   27  O   UNL     1     -11.366  13.388  69.780  1.00  0.00    -0.195 OA 
HETATM   28  N   UNL     1     -11.750  12.272  67.787  1.00  0.00    -0.407 NA 
HETATM   29  C   UNL     1     -11.303  12.404  66.486  1.00  0.00    -0.340 A  
HETATM   30  C   UNL     1     -11.602  11.618  65.388  1.00  0.00    -0.095 A  
HETATM   31  C   UNL     1     -10.972  11.941  64.190  1.00  0.00    -0.430 A  
HETATM   32  C   UNL     1     -10.082  13.029  64.114  1.00  0.00    -0.146 A  
HETATM   33  C   UNL     1      -9.821  13.830  65.236  1.00  0.00    -0.155 A  
HETATM   34  C   UNL     1     -10.434  13.490  66.427  1.00  0.00    -0.287 A  
ENDBRANCH  22  25
ENDBRANCH  18  19
ENDBRANCH  17  18
ENDBRANCH   8  17
TORSDOF 4
ENDMDL
MODEL      196
REMARK 921   NORMALIZED FREE ENERGY PREDICTED BY IDOCK:   -4.32 KCAL/MOL
REMARK 922        TOTAL FREE ENERGY PREDICTED BY IDOCK:   -6.12 KCAL/MOL
REMARK 923 INTER-LIGAND FREE ENERGY PREDICTED BY IDOCK:   -5.97 KCAL/MOL
REMARK 924 INTRA-LIGAND FREE ENERGY PREDICTED BY IDOCK:   -0.15 KCAL/MOL
REMARK 927      BINDING AFFINITY PREDICTED BY RF-SCORE:    0.00 PKD
ROOT
HETATM    1  F   UNL     1     -13.402   8.447  72.142  1.00  0.00    -0.322 F  
HETATM    2  C   UNL     1     -12.303   7.868  71.642  1.00  0.00    -0.315 A  
HETATM    3  C   UNL     1     -12.404   6.658  70.972  1.00  0.00    -0.289 A  
HETATM    4  C   UNL     1     -11.251   6.046  70.466  1.00  0.00    -0.363 A  
HETATM    5  C   UNL     1      -9.983   6.643  70.622  1.00  0.00    -0.201 A  
HETATM    6  C   UNL     1      -8.725   5.911  70.121  1.00  0.00    -0.141 C  
HETATM    7  C   UNL     1      -9.921   7.869  71.306  1.00  0.00    -0.206 A  
HETATM    8  C   UNL     1      -7.963   6.632  68.966  1.00  0.00    -0.112 C  
HETATM    9  C   UNL     1     -11.071   8.480  71.812  1.00  0.00    -0.378 A  
HETATM   10  C   UNL     1      -7.837   5.265  71.195  1.00  0.00    -0.103 A  
HETATM   11  C   UNL     1      -8.089   5.388  72.571  1.00  0.00    -0.103 A  
HETATM   12  F   UNL     1      -5.555   3.204  73.985  1.00  0.00     0.000 F  
HETATM   13  C   UNL     1      -6.788   4.415  70.797  1.00  0.00    -0.036 A  
HETATM   14  C   UNL     1      -7.310   4.704  73.513  1.00  0.00    -0.082 A  
HETATM   15  C   UNL     1      -6.279   3.878  73.083  1.00  0.00    -0.012 A  
HETATM   16  C   UNL     1      -6.008   3.728  71.733  1.00  0.00    -0.013 A  
ENDROOT
BRANCH   8  17
HETATM   17  C   UNL     1      -7.413   8.054  69.138  1.00  0.00    -0.095 C  
BRANCH  17  18
HETATM   18  C   UNL     1      -6.761   8.747  67.937  1.00  0.00    -0.066 C  
BRANCH  18  19
HETATM   19  N   UNL     1      -7.336  10.008  67.466  1.00  0.00    -0.089 NA 
HETATM   20  C   UNL     1      -9.921  10.060  67.185  1.00  0.00    -0.251 C  
HETATM   21  C   UNL     1      -8.504   9.936  66.574  1.00  0.00    -0.125 C  
HETATM   22  C   UNL     1     -10.040  10.954  68.439  1.00  0.00    -0.183 C  
HETATM   23  C   UNL     1      -8.849  10.616  69.336  1.00  0.00    -0.037 C  
HETATM   24  C   UNL     1      -7.558  10.926  68.589  1.00  0.00    -0.114 C  
BRANCH  22  25
HETATM   25  N   UNL     1     -10.186  12.401  68.227  1.00  0.00    -0.225 N  
HETATM   26  C   UNL     1      -9.617  13.197  67.203  1.00  0.00    -0.235 C  
HETATM   27  O   UNL     1      -8.923  12.861  66.261  1.00  0.00    -0.084 OA 
HETATM   28  N   UNL     1     -10.004  14.522  67.457  1.00  0.00    -0.223 NA 
HETATM   29  C   UNL     1     -10.771  14.565  68.606  1.00  0.00    -0.253 A  
HETATM   30  C   UNL     1     -11.329  15.666  69.229  1.00  0.00    -0.348 A  
HETATM   31  C   UNL     1     -12.022  15.436  70.413  1.00  0.00    -0.387 A  
HETATM   32  C   UNL     1     -12.150  14.134  70.934  1.00  0.00    -0.416 A  
HETATM   33  C   UNL     1     -11.601  13.031  70.263  1.00  0.00    -0.060 A  
HETATM   34  C   UNL     1     -10.896  13.269  69.099  1.00  0.00    -0.104 A  
ENDBRANCH  22  25
ENDBRANCH  18  19
ENDBRANCH  17  18
ENDBRANCH   8  17
TORSDOF 4
ENDMDL
MODEL      197
REMARK 921   NORMALIZED FREE ENERGY PREDICTED BY IDOCK:   -4.31 KCAL/MOL
REMARK 922        TOTAL FREE ENERGY PREDICTED BY IDOCK:   -6.11 KCAL/MOL
REMARK 923 INTER-LIGAND FREE ENERGY PREDICTED BY IDOCK:   -6.81 KCAL/MOL
REMARK 924 INTRA-LIGAND FREE ENERGY PREDICTED BY IDOCK:    0.71 KCAL/MOL
REMARK 927      BINDING AFFINITY PREDICTED BY RF-SCORE:    0.00 PKD
ROOT
HETATM    1  F   UNL     1      -9.141  18.196  66.751  1.00  0.00    -0.251 F  
HETATM    2  C   UNL     1      -9.392  16.907  67.014  1.00  0.00    -0.235 A  
HETATM    3  C   UNL     1     -10.331  16.220  66.258  1.00  0.00    -0.335 A  
HETATM    4  C   UNL     1     -10.604  14.877  66.545  1.00  0.00    -0.306 A  
HETATM    5  C   UNL     1      -9.939  14.208  67.593  1.00  0.00    -0.233 A  
HETATM    6  C   UNL     1     -10.314  12.754  67.934  1.00  0.00    -0.228 C  
HETATM    7  C   UNL     1      -8.995  14.938  68.336  1.00  0.00    -0.183 A  
HETATM    8  C   UNL     1      -9.176  11.712  67.705  1.00  0.00    -0.178 C  
HETATM    9  C   UNL     1      -8.722  16.278  68.050  1.00  0.00    -0.178 A  
HETATM   10  C   UNL     1     -11.156  12.546  69.203  1.00  0.00    -0.254 A  
HETATM   11  C   UNL     1     -11.508  13.595  70.068  1.00  0.00    -0.160 A  
HETATM   12  F   UNL     1     -13.702  11.910  72.420  1.00  0.00    -0.516 F  
HETATM   13  C   UNL     1     -11.701  11.275  69.463  1.00  0.00    -0.415 A  
HETATM   14  C   UNL     1     -12.355  13.378  71.162  1.00  0.00    -0.348 A  
HETATM   15  C   UNL     1     -12.870  12.108  71.390  1.00  0.00    -0.276 A  
HETATM   16  C   UNL     1     -12.549  11.052  70.552  1.00  0.00    -0.390 A  
ENDROOT
BRANCH   8  17
HETATM   17  C   UNL     1      -7.828  11.831  68.426  1.00  0.00    -0.141 C  
BRANCH  17  18
HETATM   18  C   UNL     1      -7.337  10.657  69.281  1.00  0.00    -0.119 C  
BRANCH  18  19
HETATM   19  N   UNL     1      -8.217   9.498  69.441  1.00  0.00    -0.115 NA 
HETATM   20  C   UNL     1      -7.132   7.360  70.445  1.00  0.00    -0.064 C  
HETATM   21  C   UNL     1      -7.636   8.165  69.223  1.00  0.00    -0.095 C  
HETATM   22  C   UNL     1      -7.890   7.596  71.769  1.00  0.00    -0.087 C  
HETATM   23  C   UNL     1      -8.112   9.103  71.888  1.00  0.00     0.345 C  
HETATM   24  C   UNL     1      -8.952   9.578  70.708  1.00  0.00    -0.087 C  
BRANCH  22  25
HETATM   25  N   UNL     1      -9.127   6.830  71.987  1.00  0.00    -0.139 N  
HETATM   26  C   UNL     1     -10.420   7.095  71.475  1.00  0.00    -0.203 C  
HETATM   27  O   UNL     1     -10.785   7.978  70.719  1.00  0.00    -0.216 OA 
HETATM   28  N   UNL     1     -11.275   6.116  72.005  1.00  0.00    -0.272 NA 
HETATM   29  C   UNL     1     -10.554   5.277  72.834  1.00  0.00    -0.229 A  
HETATM   30  C   UNL     1     -11.007   4.205  73.579  1.00  0.00    -0.360 A  
HETATM   31  C   UNL     1     -10.073   3.551  74.377  1.00  0.00    -0.209 A  
HETATM   32  C   UNL     1      -8.729   3.970  74.405  1.00  0.00    -0.095 A  
HETATM   33  C   UNL     1      -8.290   5.042  73.614  1.00  0.00    -0.106 A  
HETATM   34  C   UNL     1      -9.227   5.699  72.839  1.00  0.00    -0.135 A  
ENDBRANCH  22  25
ENDBRANCH  18  19
ENDBRANCH  17  18
ENDBRANCH   8  17
TORSDOF 4
ENDMDL
MODEL      198
REMARK 921   NORMALIZED FREE ENERGY PREDICTED BY IDOCK:   -4.31 KCAL/MOL
REMARK 922        TOTAL FREE ENERGY PREDICTED BY IDOCK:   -6.10 KCAL/MOL
REMARK 923 INTER-LIGAND FREE ENERGY PREDICTED BY IDOCK:   -6.55 KCAL/MOL
REMARK 924 INTRA-LIGAND FREE ENERGY PREDICTED BY IDOCK:    0.45 KCAL/MOL
REMARK 927      BINDING AFFINITY PREDICTED BY RF-SCORE:    0.00 PKD
ROOT
HETATM    1  F   UNL     1     -10.772  11.125  62.501  1.00  0.00     0.017 F  
HETATM    2  C   UNL     1     -10.997  11.439  63.784  1.00  0.00    -0.370 A  
HETATM    3  C   UNL     1     -12.270  11.814  64.189  1.00  0.00    -0.289 A  
HETATM    4  C   UNL     1     -12.499  12.158  65.526  1.00  0.00     0.297 A  
HETATM    5  C   UNL     1     -11.455  12.128  66.474  1.00  0.00    -0.430 A  
HETATM    6  C   UNL     1     -11.720  12.583  67.921  1.00  0.00    -0.416 C  
HETATM    7  C   UNL     1     -10.180  11.742  66.026  1.00  0.00    -0.265 A  
HETATM    8  C   UNL     1     -11.567  11.465  68.998  1.00  0.00    -0.383 C  
HETATM    9  C   UNL     1      -9.951  11.399  64.691  1.00  0.00    -0.315 A  
HETATM   10  C   UNL     1     -11.167  13.961  68.315  1.00  0.00    -0.298 A  
HETATM   11  C   UNL     1     -10.388  14.749  67.451  1.00  0.00    -0.242 A  
HETATM   12  F   UNL     1     -10.005  17.803  69.378  1.00  0.00    -0.255 F  
HETATM   13  C   UNL     1     -11.542  14.523  69.550  1.00  0.00    -0.350 A  
HETATM   14  C   UNL     1      -9.984  16.039  67.815  1.00  0.00    -0.234 A  
HETATM   15  C   UNL     1     -10.370  16.558  69.045  1.00  0.00    -0.296 A  
HETATM   16  C   UNL     1     -11.144  15.812  69.918  1.00  0.00    -0.333 A  
ENDROOT
BRANCH   8  17
HETATM   17  C   UNL     1     -10.247  10.706  69.179  1.00  0.00    -0.238 C  
BRANCH  17  18
HETATM   18  C   UNL     1      -9.831   9.679  68.120  1.00  0.00    -0.150 C  
BRANCH  18  19
HETATM   19  N   UNL     1      -9.506   8.321  68.558  1.00  0.00    -0.146 NA 
HETATM   20  C   UNL     1     -11.174   6.455  67.854  1.00  0.00    -0.262 C  
HETATM   21  C   UNL     1     -10.622   7.434  68.919  1.00  0.00    -0.176 C  
HETATM   22  C   UNL     1     -10.150   5.924  66.829  1.00  0.00    -0.192 C  
HETATM   23  C   UNL     1      -9.298   7.117  66.398  1.00  0.00    -0.190 C  
HETATM   24  C   UNL     1      -8.579   7.683  67.617  1.00  0.00    -0.116 C  
BRANCH  22  25
HETATM   25  N   UNL     1      -9.332   4.768  67.225  1.00  0.00    -0.129 N  
HETATM   26  C   UNL     1      -9.335   4.077  68.461  1.00  0.00    -0.160 C  
HETATM   27  O   UNL     1     -10.033   4.258  69.444  1.00  0.00    -0.183 OA 
HETATM   28  N   UNL     1      -8.346   3.085  68.374  1.00  0.00    -0.068 NA 
HETATM   29  C   UNL     1      -7.730   3.158  67.140  1.00  0.00    -0.075 A  
HETATM   30  C   UNL     1      -6.687   2.392  66.651  1.00  0.00    -0.040 A  
HETATM   31  C   UNL     1      -6.216   2.707  65.380  1.00  0.00    -0.023 A  
HETATM   32  C   UNL     1      -6.792   3.753  64.634  1.00  0.00    -0.049 A  
HETATM   33  C   UNL     1      -7.871   4.493  65.143  1.00  0.00    -0.090 A  
HETATM   34  C   UNL     1      -8.320   4.189  66.414  1.00  0.00    -0.105 A  
ENDBRANCH  22  25
ENDBRANCH  18  19
ENDBRANCH  17  18
ENDBRANCH   8  17
TORSDOF 4
ENDMDL
MODEL      199
REMARK 921   NORMALIZED FREE ENERGY PREDICTED BY IDOCK:   -4.29 KCAL/MOL
REMARK 922        TOTAL FREE ENERGY PREDICTED BY IDOCK:   -6.08 KCAL/MOL
REMARK 923 INTER-LIGAND FREE ENERGY PREDICTED BY IDOCK:   -4.93 KCAL/MOL
REMARK 924 INTRA-LIGAND FREE ENERGY PREDICTED BY IDOCK:   -1.16 KCAL/MOL
REMARK 927      BINDING AFFINITY PREDICTED BY RF-SCORE:    0.00 PKD
ROOT
HETATM    1  F   UNL     1     -10.114  16.650  66.027  1.00  0.00    -0.291 F  
HETATM    2  C   UNL     1     -10.183  15.313  66.071  1.00  0.00    -0.317 A  
HETATM    3  C   UNL     1     -11.329  14.667  65.630  1.00  0.00    -0.338 A  
HETATM    4  C   UNL     1     -11.406  13.271  65.693  1.00  0.00    -0.325 A  
HETATM    5  C   UNL     1     -10.334  12.505  66.196  1.00  0.00    -0.274 A  
HETATM    6  C   UNL     1     -10.475  10.978  66.322  1.00  0.00    -0.310 C  
HETATM    7  C   UNL     1      -9.190  13.196  66.632  1.00  0.00    -0.220 A  
HETATM    8  C   UNL     1      -9.508  10.152  65.418  1.00  0.00    -0.296 C  
HETATM    9  C   UNL     1      -9.112  14.589  66.570  1.00  0.00    -0.248 A  
HETATM   10  C   UNL     1     -10.687  10.427  67.740  1.00  0.00    -0.327 A  
HETATM   11  C   UNL     1     -10.672  11.238  68.887  1.00  0.00    -0.246 A  
HETATM   12  F   UNL     1     -11.591   8.870  71.482  1.00  0.00    -0.296 F  
HETATM   13  C   UNL     1     -11.022   9.070  67.906  1.00  0.00    -0.001 A  
HETATM   14  C   UNL     1     -10.963  10.710  70.151  1.00  0.00    -0.292 A  
HETATM   15  C   UNL     1     -11.286   9.365  70.276  1.00  0.00    -0.246 A  
HETATM   16  C   UNL     1     -11.316   8.537  69.165  1.00  0.00     0.474 A  
ENDROOT
BRANCH   8  17
HETATM   17  C   UNL     1      -7.986  10.304  65.531  1.00  0.00    -0.151 C  
BRANCH  17  18
HETATM   18  C   UNL     1      -7.092   9.121  65.144  1.00  0.00    -0.088 C  
BRANCH  18  19
HETATM   19  N   UNL     1      -6.454   8.353  66.215  1.00  0.00    -0.053 NA 
HETATM   20  C   UNL     1      -7.606   8.449  68.544  1.00  0.00    -0.096 C  
HETATM   21  C   UNL     1      -6.493   8.913  67.574  1.00  0.00    -0.061 C  
HETATM   22  C   UNL     1      -8.099   6.997  68.361  1.00  0.00    -0.124 C  
HETATM   23  C   UNL     1      -8.253   6.770  66.857  1.00  0.00    -0.113 C  
HETATM   24  C   UNL     1      -6.899   6.955  66.183  1.00  0.00    -0.064 C  
BRANCH  22  25
HETATM   25  N   UNL     1      -7.322   5.932  69.010  1.00  0.00    -0.082 N  
HETATM   26  C   UNL     1      -6.070   6.037  69.664  1.00  0.00    -0.026 C  
HETATM   27  O   UNL     1      -5.387   7.025  69.867  1.00  0.00    -0.018 OA 
HETATM   28  N   UNL     1      -5.715   4.742  70.072  1.00  0.00    -0.012 NA 
HETATM   29  C   UNL     1      -6.694   3.850  69.675  1.00  0.00    -0.034 A  
HETATM   30  C   UNL     1      -6.730   2.479  69.843  1.00  0.00    -0.033 A  
HETATM   31  C   UNL     1      -7.819   1.805  69.299  1.00  0.00    -0.048 A  
HETATM   32  C   UNL     1      -8.836   2.504  68.621  1.00  0.00    -0.154 A  
HETATM   33  C   UNL     1      -8.790   3.901  68.493  1.00  0.00    -0.148 A  
HETATM   34  C   UNL     1      -7.694   4.561  69.017  1.00  0.00    -0.070 A  
ENDBRANCH  22  25
ENDBRANCH  18  19
ENDBRANCH  17  18
ENDBRANCH   8  17
TORSDOF 4
ENDMDL
MODEL      200
REMARK 921   NORMALIZED FREE ENERGY PREDICTED BY IDOCK:   -4.27 KCAL/MOL
REMARK 922        TOTAL FREE ENERGY PREDICTED BY IDOCK:   -6.06 KCAL/MOL
REMARK 923 INTER-LIGAND FREE ENERGY PREDICTED BY IDOCK:   -4.70 KCAL/MOL
REMARK 924 INTRA-LIGAND FREE ENERGY PREDICTED BY IDOCK:   -1.35 KCAL/MOL
REMARK 927      BINDING AFFINITY PREDICTED BY RF-SCORE:    0.00 PKD
ROOT
HETATM    1  F   UNL     1      -7.332  16.274  68.816  1.00  0.00    -0.148 F  
HETATM    2  C   UNL     1      -8.009  15.168  68.477  1.00  0.00    -0.142 A  
HETATM    3  C   UNL     1      -9.383  15.118  68.660  1.00  0.00    -0.199 A  
HETATM    4  C   UNL     1     -10.086  13.955  68.321  1.00  0.00    -0.241 A  
HETATM    5  C   UNL     1      -9.419  12.831  67.793  1.00  0.00    -0.205 A  
HETATM    6  C   UNL     1     -10.207  11.540  67.500  1.00  0.00    -0.207 C  
HETATM    7  C   UNL     1      -8.027  12.920  67.623  1.00  0.00    -0.167 A  
HETATM    8  C   UNL     1     -10.262  11.133  65.995  1.00  0.00    -0.300 C  
HETATM    9  C   UNL     1      -7.325  14.080  67.961  1.00  0.00    -0.142 A  
HETATM   10  C   UNL     1     -10.013  10.383  68.491  1.00  0.00    -0.179 A  
HETATM   11  C   UNL     1      -9.112  10.439  69.567  1.00  0.00    -0.129 A  
HETATM   12  F   UNL     1      -9.817   7.319  71.287  1.00  0.00    -0.178 F  
HETATM   13  C   UNL     1     -10.849   9.254  68.398  1.00  0.00    -0.125 A  
HETATM   14  C   UNL     1      -9.036   9.399  70.502  1.00  0.00    -0.303 A  
HETATM   15  C   UNL     1      -9.873   8.298  70.375  1.00  0.00    -0.186 A  
HETATM   16  C   UNL     1     -10.779   8.213  69.330  1.00  0.00    -0.164 A  
ENDROOT
BRANCH   8  17
HETATM   17  C   UNL     1      -8.982  10.871  65.191  1.00  0.00    -0.195 C  
BRANCH  17  18
HETATM   18  C   UNL     1      -8.883   9.592  64.352  1.00  0.00    -0.230 C  
BRANCH  18  19
HETATM   19  N   UNL     1      -7.877   8.595  64.722  1.00  0.00    -0.115 NA 
HETATM   20  C   UNL     1      -7.307   8.420  67.253  1.00  0.00    -0.085 C  
HETATM   21  C   UNL     1      -6.966   8.922  65.829  1.00  0.00    -0.080 C  
HETATM   22  C   UNL     1      -8.066   7.078  67.332  1.00  0.00    -0.116 C  
HETATM   23  C   UNL     1      -9.153   7.121  66.258  1.00  0.00    -0.182 C  
HETATM   24  C   UNL     1      -8.496   7.276  64.891  1.00  0.00     0.068 C  
BRANCH  22  25
HETATM   25  N   UNL     1      -7.269   5.844  67.270  1.00  0.00    -0.074 N  
HETATM   26  C   UNL     1      -5.944   5.682  66.797  1.00  0.00    -0.018 C  
HETATM   27  O   UNL     1      -5.166   6.522  66.378  1.00  0.00    -0.012 OA 
HETATM   28  N   UNL     1      -5.643   4.315  66.892  1.00  0.00    -0.017 NA 
HETATM   29  C   UNL     1      -6.740   3.637  67.388  1.00  0.00    -0.042 A  
HETATM   30  C   UNL     1      -6.886   2.280  67.610  1.00  0.00    -0.040 A  
HETATM   31  C   UNL     1      -8.124   1.846  68.074  1.00  0.00    -0.066 A  
HETATM   32  C   UNL     1      -9.167   2.762  68.312  1.00  0.00    -0.250 A  
HETATM   33  C   UNL     1      -8.981   4.138  68.109  1.00  0.00    -0.150 A  
HETATM   34  C   UNL     1      -7.755   4.559  67.628  1.00  0.00    -0.085 A  
ENDBRANCH  22  25
ENDBRANCH  18  19
ENDBRANCH  17  18
ENDBRANCH   8  17
TORSDOF 4
ENDMDL
MODEL      201
REMARK 921   NORMALIZED FREE ENERGY PREDICTED BY IDOCK:   -4.26 KCAL/MOL
REMARK 922        TOTAL FREE ENERGY PREDICTED BY IDOCK:   -6.05 KCAL/MOL
REMARK 923 INTER-LIGAND FREE ENERGY PREDICTED BY IDOCK:   -6.09 KCAL/MOL
REMARK 924 INTRA-LIGAND FREE ENERGY PREDICTED BY IDOCK:    0.04 KCAL/MOL
REMARK 927      BINDING AFFINITY PREDICTED BY RF-SCORE:    0.00 PKD
ROOT
HETATM    1  F   UNL     1      -8.652   3.265  65.425  1.00  0.00    -0.102 F  
HETATM    2  C   UNL     1      -8.597   4.003  66.541  1.00  0.00    -0.110 A  
HETATM    3  C   UNL     1      -8.345   3.391  67.761  1.00  0.00    -0.095 A  
HETATM    4  C   UNL     1      -8.305   4.162  68.928  1.00  0.00    -0.089 A  
HETATM    5  C   UNL     1      -8.514   5.556  68.887  1.00  0.00    -0.101 A  
HETATM    6  C   UNL     1      -8.539   6.367  70.195  1.00  0.00    -0.135 C  
HETATM    7  C   UNL     1      -8.767   6.140  67.633  1.00  0.00    -0.105 A  
HETATM    8  C   UNL     1      -7.392   7.416  70.339  1.00  0.00    -0.077 C  
HETATM    9  C   UNL     1      -8.807   5.370  66.467  1.00  0.00    -0.118 A  
HETATM   10  C   UNL     1      -9.919   6.826  70.689  1.00  0.00    -0.201 A  
HETATM   11  C   UNL     1     -11.103   6.605  69.965  1.00  0.00    -0.394 A  
HETATM   12  F   UNL     1     -13.623   7.824  72.278  1.00  0.00    -0.256 F  
HETATM   13  C   UNL     1     -10.035   7.393  71.972  1.00  0.00    -0.196 A  
HETATM   14  C   UNL     1     -12.351   6.955  70.495  1.00  0.00    -0.177 A  
HETATM   15  C   UNL     1     -12.426   7.517  71.763  1.00  0.00    -0.330 A  
HETATM   16  C   UNL     1     -11.279   7.742  72.507  1.00  0.00    -0.419 A  
ENDROOT
BRANCH   8  17
HETATM   17  C   UNL     1      -7.207   8.541  69.313  1.00  0.00    -0.063 C  
BRANCH  17  18
HETATM   18  C   UNL     1      -6.552   9.852  69.761  1.00  0.00    -0.066 C  
BRANCH  18  19
HETATM   19  N   UNL     1      -7.352  11.077  69.726  1.00  0.00    -0.029 NA 
HETATM   20  C   UNL     1      -6.706  12.821  67.908  1.00  0.00    -0.116 C  
HETATM   21  C   UNL     1      -6.667  12.331  69.376  1.00  0.00    -0.043 C  
HETATM   22  C   UNL     1      -7.977  12.461  67.109  1.00  0.00    -0.153 C  
HETATM   23  C   UNL     1      -8.306  11.004  67.436  1.00  0.00    -0.126 C  
HETATM   24  C   UNL     1      -8.569  10.876  68.931  1.00  0.00    -0.140 C  
BRANCH  22  25
HETATM   25  N   UNL     1      -9.143  13.343  67.259  1.00  0.00    -0.212 N  
HETATM   26  C   UNL     1     -10.502  13.050  66.988  1.00  0.00    -0.247 C  
HETATM   27  O   UNL     1     -11.006  12.006  66.615  1.00  0.00    -0.259 OA 
HETATM   28  N   UNL     1     -11.228  14.226  67.235  1.00  0.00    -0.306 NA 
HETATM   29  C   UNL     1     -10.361  15.228  67.628  1.00  0.00    -0.250 A  
HETATM   30  C   UNL     1     -10.648  16.544  67.936  1.00  0.00    -0.329 A  
HETATM   31  C   UNL     1      -9.572  17.366  68.258  1.00  0.00    -0.292 A  
HETATM   32  C   UNL     1      -8.258  16.861  68.273  1.00  0.00    -0.222 A  
HETATM   33  C   UNL     1      -7.998  15.512  67.987  1.00  0.00    -0.138 A  
HETATM   34  C   UNL     1      -9.069  14.707  67.649  1.00  0.00    -0.193 A  
ENDBRANCH  22  25
ENDBRANCH  18  19
ENDBRANCH  17  18
ENDBRANCH   8  17
TORSDOF 4
ENDMDL
MODEL      202
REMARK 921   NORMALIZED FREE ENERGY PREDICTED BY IDOCK:   -4.25 KCAL/MOL
REMARK 922        TOTAL FREE ENERGY PREDICTED BY IDOCK:   -6.04 KCAL/MOL
REMARK 923 INTER-LIGAND FREE ENERGY PREDICTED BY IDOCK:   -5.44 KCAL/MOL
REMARK 924 INTRA-LIGAND FREE ENERGY PREDICTED BY IDOCK:   -0.59 KCAL/MOL
REMARK 927      BINDING AFFINITY PREDICTED BY RF-SCORE:    0.00 PKD
ROOT
HETATM    1  F   UNL     1     -12.442  10.124  70.035  1.00  0.00    -0.257 F  
HETATM    2  C   UNL     1     -11.247   9.520  69.986  1.00  0.00    -0.209 A  
HETATM    3  C   UNL     1     -10.992   8.573  69.005  1.00  0.00     0.082 A  
HETATM    4  C   UNL     1      -9.749   7.931  68.967  1.00  0.00    -0.162 A  
HETATM    5  C   UNL     1      -8.746   8.232  69.911  1.00  0.00    -0.134 A  
HETATM    6  C   UNL     1      -7.416   7.456  69.891  1.00  0.00    -0.085 C  
HETATM    7  C   UNL     1      -9.041   9.196  70.890  1.00  0.00    -0.316 A  
HETATM    8  C   UNL     1      -6.158   8.319  69.566  1.00  0.00    -0.036 C  
HETATM    9  C   UNL     1     -10.282   9.838  70.928  1.00  0.00    -0.195 A  
HETATM   10  C   UNL     1      -7.226   6.398  70.988  1.00  0.00    -0.078 A  
HETATM   11  C   UNL     1      -8.160   6.185  72.016  1.00  0.00    -0.110 A  
HETATM   12  F   UNL     1      -6.755   3.293  73.704  1.00  0.00    -0.028 F  
HETATM   13  C   UNL     1      -6.130   5.518  70.910  1.00  0.00    -0.029 A  
HETATM   14  C   UNL     1      -7.993   5.147  72.941  1.00  0.00    -0.102 A  
HETATM   15  C   UNL     1      -6.896   4.302  72.835  1.00  0.00    -0.056 A  
HETATM   16  C   UNL     1      -5.960   4.478  71.829  1.00  0.00    -0.017 A  
ENDROOT
BRANCH   8  17
HETATM   17  C   UNL     1      -5.769   9.522  70.434  1.00  0.00    -0.045 C  
BRANCH  17  18
HETATM   18  C   UNL     1      -5.483  10.866  69.755  1.00  0.00    -0.043 C  
BRANCH  18  19
HETATM   19  N   UNL     1      -6.558  11.858  69.699  1.00  0.00    -0.099 NA 
HETATM   20  C   UNL     1      -6.257  13.783  67.976  1.00  0.00    -0.141 C  
HETATM   21  C   UNL     1      -6.184  13.255  69.429  1.00  0.00    -0.110 C  
HETATM   22  C   UNL     1      -7.352  13.157  67.085  1.00  0.00     0.067 C  
HETATM   23  C   UNL     1      -7.329  11.652  67.349  1.00  0.00    -0.128 C  
HETATM   24  C   UNL     1      -7.639  11.400  68.820  1.00  0.00    -0.132 C  
BRANCH  22  25
HETATM   25  N   UNL     1      -8.706  13.721  67.180  1.00  0.00    -0.223 N  
HETATM   26  C   UNL     1      -9.169  14.744  68.043  1.00  0.00    -0.194 C  
HETATM   27  O   UNL     1      -8.550  15.403  68.859  1.00  0.00    -0.175 OA 
HETATM   28  N   UNL     1     -10.543  14.893  67.795  1.00  0.00    -0.258 NA 
HETATM   29  C   UNL     1     -10.936  13.988  66.828  1.00  0.00    -0.297 A  
HETATM   30  C   UNL     1     -12.201  13.774  66.312  1.00  0.00    -0.489 A  
HETATM   31  C   UNL     1     -12.334  12.756  65.373  1.00  0.00    -0.528 A  
HETATM   32  C   UNL     1     -11.221  11.994  64.969  1.00  0.00    -0.374 A  
HETATM   33  C   UNL     1      -9.942  12.254  65.487  1.00  0.00    -0.264 A  
HETATM   34  C   UNL     1      -9.821  13.253  66.434  1.00  0.00    -0.281 A  
ENDBRANCH  22  25
ENDBRANCH  18  19
ENDBRANCH  17  18
ENDBRANCH   8  17
TORSDOF 4
ENDMDL
MODEL      203
REMARK 921   NORMALIZED FREE ENERGY PREDICTED BY IDOCK:   -4.25 KCAL/MOL
REMARK 922        TOTAL FREE ENERGY PREDICTED BY IDOCK:   -6.03 KCAL/MOL
REMARK 923 INTER-LIGAND FREE ENERGY PREDICTED BY IDOCK:   -6.66 KCAL/MOL
REMARK 924 INTRA-LIGAND FREE ENERGY PREDICTED BY IDOCK:    0.63 KCAL/MOL
REMARK 927      BINDING AFFINITY PREDICTED BY RF-SCORE:    0.00 PKD
ROOT
HETATM    1  F   UNL     1      -7.880   4.282  74.110  1.00  0.00    -0.085 F  
HETATM    2  C   UNL     1      -7.977   4.843  72.897  1.00  0.00    -0.098 A  
HETATM    3  C   UNL     1      -7.250   4.324  71.836  1.00  0.00    -0.059 A  
HETATM    4  C   UNL     1      -7.341   4.923  70.574  1.00  0.00    -0.054 A  
HETATM    5  C   UNL     1      -8.163   6.048  70.360  1.00  0.00    -0.116 A  
HETATM    6  C   UNL     1      -8.185   6.731  68.981  1.00  0.00    -0.117 C  
HETATM    7  C   UNL     1      -8.884   6.546  71.460  1.00  0.00    -0.139 A  
HETATM    8  C   UNL     1      -9.556   6.668  68.239  1.00  0.00    -0.125 C  
HETATM    9  C   UNL     1      -8.794   5.948  72.720  1.00  0.00    -0.124 A  
HETATM   10  C   UNL     1      -7.433   8.066  68.868  1.00  0.00    -0.093 A  
HETATM   11  C   UNL     1      -6.820   8.695  69.964  1.00  0.00    -0.042 A  
HETATM   12  F   UNL     1      -5.156  11.502  68.373  1.00  0.00    -0.041 F  
HETATM   13  C   UNL     1      -7.243   8.640  67.596  1.00  0.00    -0.084 A  
HETATM   14  C   UNL     1      -6.065   9.862  69.799  1.00  0.00    -0.045 A  
HETATM   15  C   UNL     1      -5.903  10.402  68.530  1.00  0.00    -0.040 A  
HETATM   16  C   UNL     1      -6.487   9.804  67.425  1.00  0.00    -0.069 A  
ENDROOT
BRANCH   8  17
HETATM   17  C   UNL     1     -10.829   7.254  68.864  1.00  0.00    -0.119 C  
BRANCH  17  18
HETATM   18  C   UNL     1     -10.706   8.117  70.124  1.00  0.00    -0.243 C  
BRANCH  18  19
HETATM   19  N   UNL     1     -10.353   9.529  69.969  1.00  0.00    -0.228 NA 
HETATM   20  C   UNL     1     -11.651  10.844  68.139  1.00  0.00    -0.317 C  
HETATM   21  C   UNL     1     -10.381  10.094  68.611  1.00  0.00    -0.188 C  
HETATM   22  C   UNL     1     -12.441  11.592  69.235  1.00  0.00     0.127 C  
HETATM   23  C   UNL     1     -12.512  10.657  70.443  1.00  0.00    -0.421 C  
HETATM   24  C   UNL     1     -11.098  10.356  70.924  1.00  0.00    -0.008 C  
BRANCH  22  25
HETATM   25  N   UNL     1     -11.983  12.940  69.600  1.00  0.00    -0.312 N  
HETATM   26  C   UNL     1     -11.075  13.774  68.902  1.00  0.00    -0.266 C  
HETATM   27  O   UNL     1     -10.510  13.580  67.840  1.00  0.00    -0.241 OA 
HETATM   28  N   UNL     1     -10.918  14.937  69.672  1.00  0.00    -0.270 NA 
HETATM   29  C   UNL     1     -11.681  14.834  70.820  1.00  0.00    -0.300 A  
HETATM   30  C   UNL     1     -11.794  15.735  71.862  1.00  0.00    -0.568 A  
HETATM   31  C   UNL     1     -12.600  15.363  72.934  1.00  0.00    -0.524 A  
HETATM   32  C   UNL     1     -13.272  14.125  72.935  1.00  0.00    -0.553 A  
HETATM   33  C   UNL     1     -13.164  13.243  71.849  1.00  0.00    -0.523 A  
HETATM   34  C   UNL     1     -12.345  13.611  70.798  1.00  0.00    -0.371 A  
ENDBRANCH  22  25
ENDBRANCH  18  19
ENDBRANCH  17  18
ENDBRANCH   8  17
TORSDOF 4
ENDMDL
MODEL      204
REMARK 921   NORMALIZED FREE ENERGY PREDICTED BY IDOCK:   -4.22 KCAL/MOL
REMARK 922        TOTAL FREE ENERGY PREDICTED BY IDOCK:   -5.99 KCAL/MOL
REMARK 923 INTER-LIGAND FREE ENERGY PREDICTED BY IDOCK:   -6.20 KCAL/MOL
REMARK 924 INTRA-LIGAND FREE ENERGY PREDICTED BY IDOCK:    0.21 KCAL/MOL
REMARK 927      BINDING AFFINITY PREDICTED BY RF-SCORE:    0.00 PKD
ROOT
HETATM    1  F   UNL     1      -6.500   9.513  62.705  1.00  0.00    -0.097 F  
HETATM    2  C   UNL     1      -6.714   8.286  63.199  1.00  0.00    -0.085 A  
HETATM    3  C   UNL     1      -5.941   7.221  62.760  1.00  0.00    -0.049 A  
HETATM    4  C   UNL     1      -6.179   5.937  63.265  1.00  0.00    -0.025 A  
HETATM    5  C   UNL     1      -7.192   5.707  64.218  1.00  0.00    -0.055 A  
HETATM    6  C   UNL     1      -7.480   4.273  64.700  1.00  0.00    -0.072 C  
HETATM    7  C   UNL     1      -7.953   6.811  64.639  1.00  0.00    -0.117 A  
HETATM    8  C   UNL     1      -7.197   4.020  66.213  1.00  0.00    -0.068 C  
HETATM    9  C   UNL     1      -7.717   8.092  64.135  1.00  0.00    -0.136 A  
HETATM   10  C   UNL     1      -8.748   3.608  64.144  1.00  0.00    -0.101 A  
HETATM   11  C   UNL     1      -9.658   4.274  63.307  1.00  0.00    -0.091 A  
HETATM   12  F   UNL     1     -11.965   1.605  62.447  1.00  0.00    -0.243 F  
HETATM   13  C   UNL     1      -8.964   2.237  64.382  1.00  0.00    -0.111 A  
HETATM   14  C   UNL     1     -10.751   3.602  62.747  1.00  0.00    -0.180 A  
HETATM   15  C   UNL     1     -10.934   2.250  63.008  1.00  0.00    -0.238 A  
HETATM   16  C   UNL     1     -10.052   1.560  63.823  1.00  0.00    -0.112 A  
ENDROOT
BRANCH   8  17
HETATM   17  C   UNL     1      -7.907   4.832  67.304  1.00  0.00    -0.094 C  
BRANCH  17  18
HETATM   18  C   UNL     1      -9.362   4.496  67.650  1.00  0.00    -0.147 C  
BRANCH  18  19
HETATM   19  N   UNL     1     -10.227   5.571  68.137  1.00  0.00    -0.177 NA 
HETATM   20  C   UNL     1      -9.866   6.310  70.604  1.00  0.00    -0.213 C  
HETATM   21  C   UNL     1     -10.663   5.515  69.541  1.00  0.00    -0.262 C  
HETATM   22  C   UNL     1      -9.211   7.620  70.117  1.00  0.00    -0.154 C  
HETATM   23  C   UNL     1      -8.579   7.319  68.758  1.00  0.00    -0.129 C  
HETATM   24  C   UNL     1      -9.669   6.882  67.787  1.00  0.00    -0.129 C  
BRANCH  22  25
HETATM   25  N   UNL     1     -10.050   8.826  70.087  1.00  0.00    -0.182 N  
HETATM   26  C   UNL     1      -9.836  10.023  69.359  1.00  0.00    -0.224 C  
HETATM   27  O   UNL     1      -8.944  10.301  68.577  1.00  0.00    -0.124 OA 
HETATM   28  N   UNL     1     -10.881  10.896  69.698  1.00  0.00    -0.239 NA 
HETATM   29  C   UNL     1     -11.712  10.284  70.618  1.00  0.00    -0.348 A  
HETATM   30  C   UNL     1     -12.837  10.796  71.237  1.00  0.00    -0.540 A  
HETATM   31  C   UNL     1     -13.470   9.979  72.169  1.00  0.00    -0.420 A  
HETATM   32  C   UNL     1     -12.981   8.689  72.450  1.00  0.00    -0.403 A  
HETATM   33  C   UNL     1     -11.855   8.183  71.782  1.00  0.00    -0.346 A  
HETATM   34  C   UNL     1     -11.219   9.007  70.873  1.00  0.00    -0.287 A  
ENDBRANCH  22  25
ENDBRANCH  18  19
ENDBRANCH  17  18
ENDBRANCH   8  17
TORSDOF 4
ENDMDL
MODEL      205
REMARK 921   NORMALIZED FREE ENERGY PREDICTED BY IDOCK:   -4.21 KCAL/MOL
REMARK 922        TOTAL FREE ENERGY PREDICTED BY IDOCK:   -5.98 KCAL/MOL
REMARK 923 INTER-LIGAND FREE ENERGY PREDICTED BY IDOCK:   -5.68 KCAL/MOL
REMARK 924 INTRA-LIGAND FREE ENERGY PREDICTED BY IDOCK:   -0.30 KCAL/MOL
REMARK 927      BINDING AFFINITY PREDICTED BY RF-SCORE:    0.00 PKD
ROOT
HETATM    1  F   UNL     1     -10.268   5.308  72.327  1.00  0.00    -0.205 F  
HETATM    2  C   UNL     1     -10.279   6.528  71.773  1.00  0.00    -0.188 A  
HETATM    3  C   UNL     1      -9.351   7.477  72.177  1.00  0.00    -0.176 A  
HETATM    4  C   UNL     1      -9.376   8.756  71.609  1.00  0.00    -0.345 A  
HETATM    5  C   UNL     1     -10.328   9.098  70.628  1.00  0.00    -0.306 A  
HETATM    6  C   UNL     1     -10.378  10.535  70.076  1.00  0.00    -0.087 C  
HETATM    7  C   UNL     1     -11.251   8.110  70.244  1.00  0.00    -0.182 A  
HETATM    8  C   UNL     1     -10.043  10.666  68.558  1.00  0.00    -0.185 C  
HETATM    9  C   UNL     1     -11.228   6.833  70.810  1.00  0.00    -0.352 A  
HETATM   10  C   UNL     1     -11.531  11.419  70.577  1.00  0.00    -0.005 A  
HETATM   11  C   UNL     1     -12.544  10.946  71.426  1.00  0.00    -0.508 A  
HETATM   12  F   UNL     1     -14.406  13.986  72.120  1.00  0.00    -0.524 F  
HETATM   13  C   UNL     1     -11.523  12.793  70.272  1.00  0.00     0.129 A  
HETATM   14  C   UNL     1     -13.522  11.809  71.935  1.00  0.00    -0.278 A  
HETATM   15  C   UNL     1     -13.485  13.159  71.608  1.00  0.00    -0.237 A  
HETATM   16  C   UNL     1     -12.495  13.660  70.779  1.00  0.00    -0.432 A  
ENDROOT
BRANCH   8  17
HETATM   17  C   UNL     1     -10.861   9.926  67.492  1.00  0.00    -0.307 C  
BRANCH  17  18
HETATM   18  C   UNL     1     -10.216   9.632  66.133  1.00  0.00    -0.205 C  
BRANCH  18  19
HETATM   19  N   UNL     1      -9.845   8.250  65.825  1.00  0.00     0.175 NA 
HETATM   20  C   UNL     1      -7.343   7.627  66.167  1.00  0.00    -0.078 C  
HETATM   21  C   UNL     1      -8.518   8.015  65.235  1.00  0.00    -0.117 C  
HETATM   22  C   UNL     1      -7.718   6.808  67.421  1.00  0.00    -0.110 C  
HETATM   23  C   UNL     1      -8.976   7.449  68.006  1.00  0.00    -0.132 C  
HETATM   24  C   UNL     1     -10.097   7.378  66.977  1.00  0.00    -0.258 C  
BRANCH  22  25
HETATM   25  N   UNL     1      -7.854   5.353  67.264  1.00  0.00    -0.100 N  
HETATM   26  C   UNL     1      -8.256   4.631  66.113  1.00  0.00    -0.107 C  
HETATM   27  O   UNL     1      -8.536   5.045  65.002  1.00  0.00    -0.133 OA 
HETATM   28  N   UNL     1      -8.281   3.275  66.473  1.00  0.00    -0.095 NA 
HETATM   29  C   UNL     1      -7.928   3.146  67.803  1.00  0.00    -0.075 A  
HETATM   30  C   UNL     1      -7.855   1.996  68.567  1.00  0.00    -0.057 A  
HETATM   31  C   UNL     1      -7.517   2.151  69.909  1.00  0.00    -0.043 A  
HETATM   32  C   UNL     1      -7.255   3.426  70.445  1.00  0.00    -0.041 A  
HETATM   33  C   UNL     1      -7.305   4.573  69.638  1.00  0.00    -0.051 A  
HETATM   34  C   UNL     1      -7.661   4.414  68.312  1.00  0.00    -0.068 A  
ENDBRANCH  22  25
ENDBRANCH  18  19
ENDBRANCH  17  18
ENDBRANCH   8  17
TORSDOF 4
ENDMDL
MODEL      206
REMARK 921   NORMALIZED FREE ENERGY PREDICTED BY IDOCK:   -4.15 KCAL/MOL
REMARK 922        TOTAL FREE ENERGY PREDICTED BY IDOCK:   -5.90 KCAL/MOL
REMARK 923 INTER-LIGAND FREE ENERGY PREDICTED BY IDOCK:   -6.50 KCAL/MOL
REMARK 924 INTRA-LIGAND FREE ENERGY PREDICTED BY IDOCK:    0.60 KCAL/MOL
REMARK 927      BINDING AFFINITY PREDICTED BY RF-SCORE:    0.00 PKD
ROOT
HETATM    1  F   UNL     1      -8.454   3.379  72.290  1.00  0.00    -0.077 F  
HETATM    2  C   UNL     1      -8.743   4.305  71.367  1.00  0.00    -0.111 A  
HETATM    3  C   UNL     1      -9.790   4.093  70.481  1.00  0.00    -0.252 A  
HETATM    4  C   UNL     1     -10.079   5.055  69.506  1.00  0.00    -0.301 A  
HETATM    5  C   UNL     1      -9.324   6.242  69.409  1.00  0.00    -0.145 A  
HETATM    6  C   UNL     1      -9.617   7.247  68.280  1.00  0.00    -0.150 C  
HETATM    7  C   UNL     1      -8.272   6.421  70.324  1.00  0.00    -0.125 A  
HETATM    8  C   UNL     1     -10.134   8.639  68.758  1.00  0.00    -0.210 C  
HETATM    9  C   UNL     1      -7.983   5.462  71.297  1.00  0.00    -0.110 A  
HETATM   10  C   UNL     1      -8.613   7.279  67.117  1.00  0.00    -0.121 A  
HETATM   11  C   UNL     1      -7.441   6.506  67.097  1.00  0.00    -0.088 A  
HETATM   12  F   UNL     1      -6.149   7.210  63.777  1.00  0.00    -0.040 F  
HETATM   13  C   UNL     1      -8.924   8.024  65.964  1.00  0.00    -0.205 A  
HETATM   14  C   UNL     1      -6.602   6.494  65.976  1.00  0.00    -0.048 A  
HETATM   15  C   UNL     1      -6.938   7.246  64.857  1.00  0.00    -0.051 A  
HETATM   16  C   UNL     1      -8.091   8.014  64.840  1.00  0.00    -0.147 A  
ENDROOT
BRANCH   8  17
HETATM   17  C   UNL     1      -9.307   9.515  69.707  1.00  0.00    -0.227 C  
BRANCH  17  18
HETATM   18  C   UNL     1      -9.168  11.011  69.403  1.00  0.00     0.209 C  
BRANCH  18  19
HETATM   19  N   UNL     1      -9.842  11.545  68.219  1.00  0.00    -0.197 NA 
HETATM   20  C   UNL     1     -11.650  13.364  68.647  1.00  0.00    -0.362 C  
HETATM   21  C   UNL     1     -11.265  11.896  68.343  1.00  0.00    -0.258 C  
HETATM   22  C   UNL     1     -10.701  14.442  68.082  1.00  0.00    -0.236 C  
HETATM   23  C   UNL     1      -9.275  13.957  68.347  1.00  0.00    -0.194 C  
HETATM   24  C   UNL     1      -9.057  12.633  67.625  1.00  0.00    -0.192 C  
BRANCH  22  25
HETATM   25  N   UNL     1     -10.900  14.855  66.686  1.00  0.00    -0.314 N  
HETATM   26  C   UNL     1     -10.609  16.109  66.094  1.00  0.00    -0.283 C  
HETATM   27  O   UNL     1     -10.099  17.097  66.593  1.00  0.00    -0.283 OA 
HETATM   28  N   UNL     1     -11.022  16.032  64.755  1.00  0.00    -0.609 NA 
HETATM   29  C   UNL     1     -11.570  14.787  64.515  1.00  0.00    -0.361 A  
HETATM   30  C   UNL     1     -12.126  14.301  63.346  1.00  0.00     0.447 A  
HETATM   31  C   UNL     1     -12.657  13.016  63.386  1.00  0.00    -0.224 A  
HETATM   32  C   UNL     1     -12.613  12.253  64.569  1.00  0.00    -0.416 A  
HETATM   33  C   UNL     1     -12.013  12.759  65.732  1.00  0.00    -0.502 A  
HETATM   34  C   UNL     1     -11.507  14.044  65.691  1.00  0.00    -0.319 A  
ENDBRANCH  22  25
ENDBRANCH  18  19
ENDBRANCH  17  18
ENDBRANCH   8  17
TORSDOF 4
ENDMDL
MODEL      207
REMARK 921   NORMALIZED FREE ENERGY PREDICTED BY IDOCK:   -4.14 KCAL/MOL
REMARK 922        TOTAL FREE ENERGY PREDICTED BY IDOCK:   -5.90 KCAL/MOL
REMARK 923 INTER-LIGAND FREE ENERGY PREDICTED BY IDOCK:   -5.97 KCAL/MOL
REMARK 924 INTRA-LIGAND FREE ENERGY PREDICTED BY IDOCK:    0.07 KCAL/MOL
REMARK 927      BINDING AFFINITY PREDICTED BY RF-SCORE:    0.00 PKD
ROOT
HETATM    1  F   UNL     1     -12.468  16.518  68.779  1.00  0.00     0.144 F  
HETATM    2  C   UNL     1     -11.655  15.483  68.530  1.00  0.00    -0.368 A  
HETATM    3  C   UNL     1     -10.330  15.713  68.189  1.00  0.00    -0.246 A  
HETATM    4  C   UNL     1      -9.487  14.629  67.913  1.00  0.00    -0.210 A  
HETATM    5  C   UNL     1      -9.962  13.303  67.978  1.00  0.00    -0.233 A  
HETATM    6  C   UNL     1      -9.033  12.137  67.596  1.00  0.00    -0.178 C  
HETATM    7  C   UNL     1     -11.310  13.111  68.327  1.00  0.00    -0.333 A  
HETATM    8  C   UNL     1      -8.697  11.157  68.763  1.00  0.00    -0.130 C  
HETATM    9  C   UNL     1     -12.152  14.192  68.603  1.00  0.00    -0.320 A  
HETATM   10  C   UNL     1      -9.290  11.477  66.233  1.00  0.00    -0.227 A  
HETATM   11  C   UNL     1     -10.358  11.840  65.396  1.00  0.00    -0.311 A  
HETATM   12  F   UNL     1      -9.688   9.848  62.435  1.00  0.00    -0.288 F  
HETATM   13  C   UNL     1      -8.359  10.545  65.736  1.00  0.00    -0.166 A  
HETATM   14  C   UNL     1     -10.500  11.280  64.120  1.00  0.00    -0.431 A  
HETATM   15  C   UNL     1      -9.564  10.360  63.666  1.00  0.00    -0.310 A  
HETATM   16  C   UNL     1      -8.495   9.984  64.462  1.00  0.00    -0.180 A  
ENDROOT
BRANCH   8  17
HETATM   17  C   UNL     1      -9.800  10.404  69.516  1.00  0.00    -0.211 C  
BRANCH  17  18
HETATM   18  C   UNL     1     -10.181   8.992  69.056  1.00  0.00    -0.205 C  
BRANCH  18  19
HETATM   19  N   UNL     1     -10.210   7.920  70.053  1.00  0.00    -0.203 NA 
HETATM   20  C   UNL     1      -9.781   5.513  69.168  1.00  0.00    -0.208 C  
HETATM   21  C   UNL     1     -10.757   6.619  69.641  1.00  0.00    -0.260 C  
HETATM   22  C   UNL     1      -8.384   5.520  69.823  1.00  0.00    -0.105 C  
HETATM   23  C   UNL     1      -7.923   6.977  69.865  1.00  0.00    -0.123 C  
HETATM   24  C   UNL     1      -8.903   7.786  70.705  1.00  0.00    -0.139 C  
BRANCH  22  25
HETATM   25  N   UNL     1      -8.243   4.853  71.126  1.00  0.00    -0.106 N  
HETATM   26  C   UNL     1      -9.080   3.863  71.696  1.00  0.00    -0.116 C  
HETATM   27  O   UNL     1     -10.066   3.322  71.226  1.00  0.00    -0.083 OA 
HETATM   28  N   UNL     1      -8.564   3.580  72.970  1.00  0.00    -0.085 NA 
HETATM   29  C   UNL     1      -7.456   4.372  73.204  1.00  0.00    -0.081 A  
HETATM   30  C   UNL     1      -6.667   4.438  74.337  1.00  0.00    -0.064 A  
HETATM   31  C   UNL     1      -5.631   5.367  74.331  1.00  0.00    -0.035 A  
HETATM   32  C   UNL     1      -5.402   6.187  73.209  1.00  0.00    -0.036 A  
HETATM   33  C   UNL     1      -6.199   6.076  72.060  1.00  0.00    -0.041 A  
HETATM   34  C   UNL     1      -7.239   5.166  72.081  1.00  0.00    -0.086 A  
ENDBRANCH  22  25
ENDBRANCH  18  19
ENDBRANCH  17  18
ENDBRANCH   8  17
TORSDOF 4
ENDMDL
MODEL      208
REMARK 921   NORMALIZED FREE ENERGY PREDICTED BY IDOCK:   -4.12 KCAL/MOL
REMARK 922        TOTAL FREE ENERGY PREDICTED BY IDOCK:   -5.87 KCAL/MOL
REMARK 923 INTER-LIGAND FREE ENERGY PREDICTED BY IDOCK:   -7.08 KCAL/MOL
REMARK 924 INTRA-LIGAND FREE ENERGY PREDICTED BY IDOCK:    1.22 KCAL/MOL
REMARK 927      BINDING AFFINITY PREDICTED BY RF-SCORE:    0.00 PKD
ROOT
HETATM    1  F   UNL     1      -7.800   6.588  64.468  1.00  0.00    -0.088 F  
HETATM    2  C   UNL     1      -8.110   6.966  65.715  1.00  0.00    -0.123 A  
HETATM    3  C   UNL     1      -7.107   7.099  66.665  1.00  0.00    -0.078 A  
HETATM    4  C   UNL     1      -7.435   7.478  67.972  1.00  0.00    -0.105 A  
HETATM    5  C   UNL     1      -8.772   7.731  68.341  1.00  0.00    -0.127 A  
HETATM    6  C   UNL     1      -9.112   8.073  69.804  1.00  0.00    -0.149 C  
HETATM    7  C   UNL     1      -9.760   7.586  67.352  1.00  0.00    -0.204 A  
HETATM    8  C   UNL     1      -9.688   9.506  70.025  1.00  0.00    -0.271 C  
HETATM    9  C   UNL     1      -9.433   7.208  66.047  1.00  0.00     0.031 A  
HETATM   10  C   UNL     1      -9.773   6.959  70.629  1.00  0.00    -0.180 A  
HETATM   11  C   UNL     1     -10.136   5.716  70.086  1.00  0.00    -0.293 A  
HETATM   12  F   UNL     1     -11.256   3.917  73.035  1.00  0.00    -0.255 F  
HETATM   13  C   UNL     1      -9.926   7.134  72.018  1.00  0.00    -0.178 A  
HETATM   14  C   UNL     1     -10.650   4.695  70.895  1.00  0.00     0.110 A  
HETATM   15  C   UNL     1     -10.791   4.906  72.261  1.00  0.00    -0.102 A  
HETATM   16  C   UNL     1     -10.436   6.117  72.831  1.00  0.00    -0.238 A  
ENDROOT
BRANCH   8  17
HETATM   17  C   UNL     1     -10.971   9.967  69.323  1.00  0.00    -0.264 C  
BRANCH  17  18
HETATM   18  C   UNL     1     -10.877  11.051  68.243  1.00  0.00    -0.215 C  
BRANCH  18  19
HETATM   19  N   UNL     1     -10.313  12.351  68.611  1.00  0.00    -0.213 NA 
HETATM   20  C   UNL     1     -10.304  14.168  66.751  1.00  0.00    -0.274 C  
HETATM   21  C   UNL     1      -9.567  13.088  67.580  1.00  0.00    -0.204 C  
HETATM   22  C   UNL     1     -11.440  14.920  67.478  1.00  0.00    -0.348 C  
HETATM   23  C   UNL     1     -12.241  13.871  68.248  1.00  0.00    -0.185 C  
HETATM   24  C   UNL     1     -11.328  13.189  69.259  1.00  0.00    -0.253 C  
BRANCH  22  25
HETATM   25  N   UNL     1     -11.063  16.064  68.321  1.00  0.00    -0.340 N  
HETATM   26  C   UNL     1     -11.034  16.136  69.736  1.00  0.00    -0.349 C  
HETATM   27  O   UNL     1     -11.273  15.268  70.557  1.00  0.00    -0.272 OA 
HETATM   28  N   UNL     1     -10.661  17.447  70.068  1.00  0.00     0.317 NA 
HETATM   29  C   UNL     1     -10.479  18.180  68.911  1.00  0.00    -0.062 A  
HETATM   30  C   UNL     1     -10.140  19.514  68.780  1.00  0.00    -0.519 A  
HETATM   31  C   UNL     1     -10.068  20.023  67.487  1.00  0.00    -0.565 A  
HETATM   32  C   UNL     1     -10.322  19.201  66.372  1.00  0.00    -0.536 A  
HETATM   33  C   UNL     1     -10.632  17.842  66.533  1.00  0.00    -0.220 A  
HETATM   34  C   UNL     1     -10.722  17.349  67.821  1.00  0.00    -0.332 A  
ENDBRANCH  22  25
ENDBRANCH  18  19
ENDBRANCH  17  18
ENDBRANCH   8  17
TORSDOF 4
ENDMDL
MODEL      209
REMARK 921   NORMALIZED FREE ENERGY PREDICTED BY IDOCK:   -4.11 KCAL/MOL
REMARK 922        TOTAL FREE ENERGY PREDICTED BY IDOCK:   -5.86 KCAL/MOL
REMARK 923 INTER-LIGAND FREE ENERGY PREDICTED BY IDOCK:   -6.15 KCAL/MOL
REMARK 924 INTRA-LIGAND FREE ENERGY PREDICTED BY IDOCK:    0.29 KCAL/MOL
REMARK 927      BINDING AFFINITY PREDICTED BY RF-SCORE:    0.00 PKD
ROOT
HETATM    1  F   UNL     1     -13.405  16.325  73.959  1.00  0.00    -0.491 F  
HETATM    2  C   UNL     1     -13.032  15.731  72.819  1.00  0.00    -0.490 A  
HETATM    3  C   UNL     1     -13.969  15.502  71.821  1.00  0.00    -0.569 A  
HETATM    4  C   UNL     1     -13.579  14.865  70.637  1.00  0.00    -0.091 A  
HETATM    5  C   UNL     1     -12.246  14.452  70.438  1.00  0.00    -0.404 A  
HETATM    6  C   UNL     1     -11.864  13.687  69.157  1.00  0.00    -0.394 C  
HETATM    7  C   UNL     1     -11.326  14.700  71.471  1.00  0.00     0.079 A  
HETATM    8  C   UNL     1     -10.861  14.432  68.223  1.00  0.00    -0.250 C  
HETATM    9  C   UNL     1     -11.714  15.336  72.653  1.00  0.00    -0.518 A  
HETATM   10  C   UNL     1     -11.629  12.176  69.309  1.00  0.00    -0.377 A  
HETATM   11  C   UNL     1     -11.671  11.516  70.548  1.00  0.00    -0.248 A  
HETATM   12  F   UNL     1     -11.298   8.045  69.548  1.00  0.00    -0.113 F  
HETATM   13  C   UNL     1     -11.475  11.387  68.154  1.00  0.00    -0.375 A  
HETATM   14  C   UNL     1     -11.545  10.124  70.630  1.00  0.00    -0.429 A  
HETATM   15  C   UNL     1     -11.390   9.378  69.468  1.00  0.00     0.057 A  
HETATM   16  C   UNL     1     -11.351   9.996  68.229  1.00  0.00    -0.117 A  
ENDROOT
BRANCH   8  17
HETATM   17  C   UNL     1      -9.474  14.860  68.720  1.00  0.00    -0.214 C  
BRANCH  17  18
HETATM   18  C   UNL     1      -8.244  14.069  68.261  1.00  0.00    -0.153 C  
BRANCH  18  19
HETATM   19  N   UNL     1      -8.447  12.727  67.713  1.00  0.00    -0.164 NA 
HETATM   20  C   UNL     1      -6.306  11.459  66.956  1.00  0.00    -0.122 C  
HETATM   21  C   UNL     1      -7.564  12.296  66.618  1.00  0.00     0.223 C  
HETATM   22  C   UNL     1      -6.425  10.526  68.181  1.00  0.00    -0.062 C  
HETATM   23  C   UNL     1      -7.126  11.326  69.278  1.00  0.00    -0.112 C  
HETATM   24  C   UNL     1      -8.511  11.734  68.790  1.00  0.00     0.007 C  
BRANCH  22  25
HETATM   25  N   UNL     1      -7.040   9.208  67.971  1.00  0.00    -0.077 N  
HETATM   26  C   UNL     1      -7.783   8.432  68.894  1.00  0.00    -0.105 C  
HETATM   27  O   UNL     1      -8.108   8.697  70.038  1.00  0.00    -0.103 OA 
HETATM   28  N   UNL     1      -8.113   7.233  68.244  1.00  0.00    -0.123 NA 
HETATM   29  C   UNL     1      -7.583   7.241  66.967  1.00  0.00    -0.106 A  
HETATM   30  C   UNL     1      -7.642   6.252  66.003  1.00  0.00    -0.087 A  
HETATM   31  C   UNL     1      -6.976   6.497  64.806  1.00  0.00    -0.055 A  
HETATM   32  C   UNL     1      -6.287   7.707  64.599  1.00  0.00    -0.044 A  
HETATM   33  C   UNL     1      -6.270   8.708  65.583  1.00  0.00    -0.052 A  
HETATM   34  C   UNL     1      -6.917   8.449  66.777  1.00  0.00    -0.073 A  
ENDBRANCH  22  25
ENDBRANCH  18  19
ENDBRANCH  17  18
ENDBRANCH   8  17
TORSDOF 4
ENDMDL
MODEL      210
REMARK 921   NORMALIZED FREE ENERGY PREDICTED BY IDOCK:   -4.09 KCAL/MOL
REMARK 922        TOTAL FREE ENERGY PREDICTED BY IDOCK:   -5.83 KCAL/MOL
REMARK 923 INTER-LIGAND FREE ENERGY PREDICTED BY IDOCK:   -5.06 KCAL/MOL
REMARK 924 INTRA-LIGAND FREE ENERGY PREDICTED BY IDOCK:   -0.77 KCAL/MOL
REMARK 927      BINDING AFFINITY PREDICTED BY RF-SCORE:    0.00 PKD
ROOT
HETATM    1  F   UNL     1     -13.857  10.603  71.208  1.00  0.00    -0.127 F  
HETATM    2  C   UNL     1     -12.636  10.469  70.673  1.00  0.00    -0.369 A  
HETATM    3  C   UNL     1     -12.250  11.288  69.622  1.00  0.00    -0.340 A  
HETATM    4  C   UNL     1     -10.981  11.134  69.053  1.00  0.00    -0.286 A  
HETATM    5  C   UNL     1     -10.082  10.159  69.532  1.00  0.00    -0.258 A  
HETATM    6  C   UNL     1      -8.722   9.963  68.838  1.00  0.00    -0.140 C  
HETATM    7  C   UNL     1     -10.509   9.348  70.598  1.00  0.00    -0.354 A  
HETATM    8  C   UNL     1      -7.480  10.296  69.722  1.00  0.00    -0.169 C  
HETATM    9  C   UNL     1     -11.776   9.501  71.166  1.00  0.00    -0.438 A  
HETATM   10  C   UNL     1      -8.583   8.721  67.946  1.00  0.00    -0.130 A  
HETATM   11  C   UNL     1      -9.595   7.755  67.816  1.00  0.00    -0.172 A  
HETATM   12  F   UNL     1      -8.218   5.579  65.255  1.00  0.00    -0.110 F  
HETATM   13  C   UNL     1      -7.445   8.587  67.128  1.00  0.00    -0.085 A  
HETATM   14  C   UNL     1      -9.466   6.688  66.919  1.00  0.00    -0.184 A  
HETATM   15  C   UNL     1      -8.326   6.586  66.132  1.00  0.00    -0.129 A  
HETATM   16  C   UNL     1      -7.311   7.524  66.229  1.00  0.00    -0.082 A  
ENDROOT
BRANCH   8  17
HETATM   17  C   UNL     1      -7.227   9.569  71.049  1.00  0.00    -0.001 C  
BRANCH  17  18
HETATM   18  C   UNL     1      -6.449   8.249  71.034  1.00  0.00    -0.039 C  
BRANCH  18  19
HETATM   19  N   UNL     1      -7.011   7.102  71.749  1.00  0.00    -0.063 NA 
HETATM   20  C   UNL     1      -8.878   5.779  70.514  1.00  0.00    -0.144 C  
HETATM   21  C   UNL     1      -8.444   6.823  71.572  1.00  0.00    -0.119 C  
HETATM   22  C   UNL     1      -7.894   4.616  70.269  1.00  0.00    -0.057 C  
HETATM   23  C   UNL     1      -6.494   5.228  70.207  1.00  0.00    -0.034 C  
HETATM   24  C   UNL     1      -6.188   5.906  71.537  1.00  0.00    -0.040 C  
BRANCH  22  25
HETATM   25  N   UNL     1      -7.961   3.468  71.184  1.00  0.00    -0.058 N  
HETATM   26  C   UNL     1      -7.089   2.354  71.256  1.00  0.00    -0.032 C  
HETATM   27  O   UNL     1      -6.081   2.121  70.612  1.00  0.00    -0.018 OA 
HETATM   28  N   UNL     1      -7.597   1.504  72.250  1.00  0.00    -0.038 NA 
HETATM   29  C   UNL     1      -8.754   2.049  72.774  1.00  0.00    -0.063 A  
HETATM   30  C   UNL     1      -9.588   1.530  73.747  1.00  0.00    -0.087 A  
HETATM   31  C   UNL     1     -10.727   2.266  74.060  1.00  0.00    -0.242 A  
HETATM   32  C   UNL     1     -10.998   3.487  73.413  1.00  0.00    -0.308 A  
HETATM   33  C   UNL     1     -10.118   4.006  72.451  1.00  0.00    -0.242 A  
HETATM   34  C   UNL     1      -8.999   3.260  72.131  1.00  0.00    -0.099 A  
ENDBRANCH  22  25
ENDBRANCH  18  19
ENDBRANCH  17  18
ENDBRANCH   8  17
TORSDOF 4
ENDMDL
MODEL      211
REMARK 921   NORMALIZED FREE ENERGY PREDICTED BY IDOCK:   -4.09 KCAL/MOL
REMARK 922        TOTAL FREE ENERGY PREDICTED BY IDOCK:   -5.83 KCAL/MOL
REMARK 923 INTER-LIGAND FREE ENERGY PREDICTED BY IDOCK:   -6.42 KCAL/MOL
REMARK 924 INTRA-LIGAND FREE ENERGY PREDICTED BY IDOCK:    0.59 KCAL/MOL
REMARK 927      BINDING AFFINITY PREDICTED BY RF-SCORE:    0.00 PKD
ROOT
HETATM    1  F   UNL     1     -12.644  13.709  63.088  1.00  0.00    -0.482 F  
HETATM    2  C   UNL     1     -12.125  13.122  64.175  1.00  0.00    -0.430 A  
HETATM    3  C   UNL     1     -12.534  13.525  65.438  1.00  0.00    -0.540 A  
HETATM    4  C   UNL     1     -11.978  12.922  66.572  1.00  0.00    -0.447 A  
HETATM    5  C   UNL     1     -11.007  11.906  66.454  1.00  0.00    -0.337 A  
HETATM    6  C   UNL     1     -10.359  11.314  67.719  1.00  0.00    -0.208 C  
HETATM    7  C   UNL     1     -10.618  11.525  65.158  1.00  0.00    -0.350 A  
HETATM    8  C   UNL     1     -10.659   9.803  67.963  1.00  0.00    -0.291 C  
HETATM    9  C   UNL     1     -11.173  12.127  64.025  1.00  0.00    -0.458 A  
HETATM   10  C   UNL     1      -8.920  11.760  68.021  1.00  0.00    -0.176 A  
HETATM   11  C   UNL     1      -8.182  12.595  67.166  1.00  0.00    -0.159 A  
HETATM   12  F   UNL     1      -5.163  13.156  69.105  1.00  0.00    -0.069 F  
HETATM   13  C   UNL     1      -8.343  11.418  69.258  1.00  0.00     0.243 A  
HETATM   14  C   UNL     1      -6.909  13.054  67.526  1.00  0.00    -0.156 A  
HETATM   15  C   UNL     1      -6.369  12.692  68.753  1.00  0.00    -0.080 A  
HETATM   16  C   UNL     1      -7.073  11.876  69.624  1.00  0.00     0.222 A  
ENDROOT
BRANCH   8  17
HETATM   17  C   UNL     1     -10.281   8.736  66.927  1.00  0.00    -0.357 C  
BRANCH  17  18
HETATM   18  C   UNL     1     -10.842   7.319  67.084  1.00  0.00    -0.308 C  
BRANCH  18  19
HETATM   19  N   UNL     1     -10.770   6.685  68.402  1.00  0.00    -0.240 NA 
HETATM   20  C   UNL     1      -8.925   4.879  68.710  1.00  0.00    -0.132 C  
HETATM   21  C   UNL     1     -10.403   5.261  68.455  1.00  0.00    -0.112 C  
HETATM   22  C   UNL     1      -8.118   5.853  69.594  1.00  0.00    -0.106 C  
HETATM   23  C   UNL     1      -8.471   7.266  69.130  1.00  0.00    -0.133 C  
HETATM   24  C   UNL     1      -9.965   7.495  69.321  1.00  0.00    -0.179 C  
BRANCH  22  25
HETATM   25  N   UNL     1      -8.234   5.699  71.052  1.00  0.00    -0.119 N  
HETATM   26  C   UNL     1      -8.962   4.722  71.773  1.00  0.00    -0.131 C  
HETATM   27  O   UNL     1      -9.613   3.780  71.354  1.00  0.00    -0.144 OA 
HETATM   28  N   UNL     1      -8.807   5.023  73.135  1.00  0.00    -0.112 NA 
HETATM   29  C   UNL     1      -8.028   6.156  73.269  1.00  0.00    -0.103 A  
HETATM   30  C   UNL     1      -7.655   6.813  74.427  1.00  0.00    -0.108 A  
HETATM   31  C   UNL     1      -6.899   7.972  74.279  1.00  0.00    -0.154 A  
HETATM   32  C   UNL     1      -6.530   8.435  73.002  1.00  0.00    -0.109 A  
HETATM   33  C   UNL     1      -6.895   7.730  71.845  1.00  0.00    -0.060 A  
HETATM   34  C   UNL     1      -7.663   6.591  71.998  1.00  0.00    -0.098 A  
ENDBRANCH  22  25
ENDBRANCH  18  19
ENDBRANCH  17  18
ENDBRANCH   8  17
TORSDOF 4
ENDMDL
MODEL      212
REMARK 921   NORMALIZED FREE ENERGY PREDICTED BY IDOCK:   -4.08 KCAL/MOL
REMARK 922        TOTAL FREE ENERGY PREDICTED BY IDOCK:   -5.82 KCAL/MOL
REMARK 923 INTER-LIGAND FREE ENERGY PREDICTED BY IDOCK:   -7.18 KCAL/MOL
REMARK 924 INTRA-LIGAND FREE ENERGY PREDICTED BY IDOCK:    1.36 KCAL/MOL
REMARK 927      BINDING AFFINITY PREDICTED BY RF-SCORE:    0.00 PKD
ROOT
HETATM    1  F   UNL     1      -7.059   5.321  63.492  1.00  0.00    -0.043 F  
HETATM    2  C   UNL     1      -7.402   6.077  64.543  1.00  0.00    -0.068 A  
HETATM    3  C   UNL     1      -6.420   6.551  65.402  1.00  0.00    -0.039 A  
HETATM    4  C   UNL     1      -6.783   7.326  66.510  1.00  0.00    -0.060 A  
HETATM    5  C   UNL     1      -8.134   7.638  66.768  1.00  0.00    -0.115 A  
HETATM    6  C   UNL     1      -8.509   8.430  68.034  1.00  0.00    -0.132 C  
HETATM    7  C   UNL     1      -9.099   7.141  65.875  1.00  0.00    -0.054 A  
HETATM    8  C   UNL     1      -9.136   9.834  67.769  1.00  0.00    -0.138 C  
HETATM    9  C   UNL     1      -8.738   6.367  64.770  1.00  0.00     0.238 A  
HETATM   10  C   UNL     1      -9.149   7.626  69.177  1.00  0.00    -0.141 A  
HETATM   11  C   UNL     1      -9.463   6.261  69.070  1.00  0.00    -0.133 A  
HETATM   12  F   UNL     1     -10.574   5.493  72.441  1.00  0.00    -0.224 F  
HETATM   13  C   UNL     1      -9.331   8.242  70.429  1.00  0.00    -0.162 A  
HETATM   14  C   UNL     1      -9.957   5.545  70.167  1.00  0.00    -0.287 A  
HETATM   15  C   UNL     1     -10.128   6.188  71.387  1.00  0.00    -0.194 A  
HETATM   16  C   UNL     1      -9.822   7.531  71.529  1.00  0.00    -0.185 A  
ENDROOT
BRANCH   8  17
HETATM   17  C   UNL     1     -10.421   9.992  66.946  1.00  0.00    -0.284 C  
BRANCH  17  18
HETATM   18  C   UNL     1     -11.641  10.652  67.597  1.00  0.00     0.109 C  
BRANCH  18  19
HETATM   19  N   UNL     1     -11.983  12.020  67.207  1.00  0.00    -0.590 NA 
HETATM   20  C   UNL     1     -10.741  13.922  68.472  1.00  0.00    -0.268 C  
HETATM   21  C   UNL     1     -12.000  13.047  68.260  1.00  0.00    -0.267 C  
HETATM   22  C   UNL     1      -9.901  14.214  67.210  1.00  0.00    -0.238 C  
HETATM   23  C   UNL     1      -9.795  12.900  66.437  1.00  0.00    -0.268 C  
HETATM   24  C   UNL     1     -11.193  12.438  66.044  1.00  0.00    -0.335 C  
BRANCH  22  25
HETATM   25  N   UNL     1     -10.328  15.332  66.356  1.00  0.00    -0.279 N  
HETATM   26  C   UNL     1     -10.658  15.303  64.979  1.00  0.00    -0.418 C  
HETATM   27  O   UNL     1     -10.700  14.355  64.215  1.00  0.00    -0.169 OA 
HETATM   28  N   UNL     1     -10.952  16.624  64.605  1.00  0.00    -0.836 NA 
HETATM   29  C   UNL     1     -10.796  17.456  65.697  1.00  0.00    -0.011 A  
HETATM   30  C   UNL     1     -10.952  18.828  65.763  1.00  0.00     0.044 A  
HETATM   31  C   UNL     1     -10.683  19.435  66.986  1.00  0.00    -0.582 A  
HETATM   32  C   UNL     1     -10.281  18.671  68.099  1.00  0.00    -0.423 A  
HETATM   33  C   UNL     1     -10.162  17.275  68.011  1.00  0.00    -0.332 A  
HETATM   34  C   UNL     1     -10.410  16.682  66.788  1.00  0.00    -0.295 A  
ENDBRANCH  22  25
ENDBRANCH  18  19
ENDBRANCH  17  18
ENDBRANCH   8  17
TORSDOF 4
ENDMDL
MODEL      213
REMARK 921   NORMALIZED FREE ENERGY PREDICTED BY IDOCK:   -4.07 KCAL/MOL
REMARK 922        TOTAL FREE ENERGY PREDICTED BY IDOCK:   -5.81 KCAL/MOL
REMARK 923 INTER-LIGAND FREE ENERGY PREDICTED BY IDOCK:   -6.68 KCAL/MOL
REMARK 924 INTRA-LIGAND FREE ENERGY PREDICTED BY IDOCK:    0.87 KCAL/MOL
REMARK 927      BINDING AFFINITY PREDICTED BY RF-SCORE:    0.00 PKD
ROOT
HETATM    1  F   UNL     1      -8.294   5.945  66.149  1.00  0.00    -0.110 F  
HETATM    2  C   UNL     1      -8.736   7.148  66.538  1.00  0.00    -0.134 A  
HETATM    3  C   UNL     1      -9.986   7.267  67.128  1.00  0.00    -0.279 A  
HETATM    4  C   UNL     1     -10.453   8.528  67.517  1.00  0.00    -0.328 A  
HETATM    5  C   UNL     1      -9.670   9.685  67.322  1.00  0.00    -0.213 A  
HETATM    6  C   UNL     1     -10.240  11.067  67.691  1.00  0.00    -0.211 C  
HETATM    7  C   UNL     1      -8.410   9.524  66.721  1.00  0.00    -0.116 A  
HETATM    8  C   UNL     1      -9.485  11.801  68.842  1.00  0.00     0.055 C  
HETATM    9  C   UNL     1      -7.943   8.266  66.332  1.00  0.00    -0.096 A  
HETATM   10  C   UNL     1     -10.686  11.956  66.521  1.00  0.00    -0.293 A  
HETATM   11  C   UNL     1     -10.520  11.591  65.175  1.00  0.00    -0.340 A  
HETATM   12  F   UNL     1     -12.225  14.297  63.457  1.00  0.00    -0.424 F  
HETATM   13  C   UNL     1     -11.397  13.141  66.792  1.00  0.00    -0.353 A  
HETATM   14  C   UNL     1     -11.026  12.388  64.141  1.00  0.00    -0.416 A  
HETATM   15  C   UNL     1     -11.718  13.553  64.447  1.00  0.00    -0.407 A  
HETATM   16  C   UNL     1     -11.907  13.939  65.764  1.00  0.00    -0.393 A  
ENDROOT
BRANCH   8  17
HETATM   17  C   UNL     1      -7.991  12.132  68.734  1.00  0.00     0.007 C  
BRANCH  17  18
HETATM   18  C   UNL     1      -7.443  12.656  67.402  1.00  0.00    -0.146 C  
BRANCH  18  19
HETATM   19  N   UNL     1      -7.274  14.101  67.241  1.00  0.00    -0.102 NA 
HETATM   20  C   UNL     1      -8.636  15.607  68.866  1.00  0.00    -0.211 C  
HETATM   21  C   UNL     1      -8.448  14.956  67.474  1.00  0.00    -0.185 C  
HETATM   22  C   UNL     1      -7.340  15.959  69.627  1.00  0.00    -0.082 C  
HETATM   23  C   UNL     1      -6.394  14.769  69.463  1.00  0.00    -0.127 C  
HETATM   24  C   UNL     1      -6.097  14.569  67.981  1.00  0.00    -0.153 C  
BRANCH  22  25
HETATM   25  N   UNL     1      -6.690  17.237  69.303  1.00  0.00    -0.245 N  
HETATM   26  C   UNL     1      -5.965  18.094  70.167  1.00  0.00    -0.117 C  
HETATM   27  O   UNL     1      -5.687  17.946  71.344  1.00  0.00     0.208 OA 
HETATM   28  N   UNL     1      -5.588  19.212  69.407  1.00  0.00    -0.204 NA 
HETATM   29  C   UNL     1      -6.071  19.077  68.120  1.00  0.00    -0.217 A  
HETATM   30  C   UNL     1      -5.957  19.958  67.060  1.00  0.00    -0.187 A  
HETATM   31  C   UNL     1      -6.585  19.598  65.871  1.00  0.00    -0.252 A  
HETATM   32  C   UNL     1      -7.291  18.385  65.766  1.00  0.00    -0.176 A  
HETATM   33  C   UNL     1      -7.363  17.495  66.848  1.00  0.00    -0.239 A  
HETATM   34  C   UNL     1      -6.755  17.868  68.032  1.00  0.00    -0.196 A  
ENDBRANCH  22  25
ENDBRANCH  18  19
ENDBRANCH  17  18
ENDBRANCH   8  17
TORSDOF 4
ENDMDL
MODEL      214
REMARK 921   NORMALIZED FREE ENERGY PREDICTED BY IDOCK:   -4.07 KCAL/MOL
REMARK 922        TOTAL FREE ENERGY PREDICTED BY IDOCK:   -5.81 KCAL/MOL
REMARK 923 INTER-LIGAND FREE ENERGY PREDICTED BY IDOCK:   -6.34 KCAL/MOL
REMARK 924 INTRA-LIGAND FREE ENERGY PREDICTED BY IDOCK:    0.53 KCAL/MOL
REMARK 927      BINDING AFFINITY PREDICTED BY RF-SCORE:    0.00 PKD
ROOT
HETATM    1  F   UNL     1      -8.542   8.897  62.913  1.00  0.00    -0.189 F  
HETATM    2  C   UNL     1      -8.299   9.051  64.222  1.00  0.00    -0.173 A  
HETATM    3  C   UNL     1      -7.421   8.192  64.866  1.00  0.00    -0.092 A  
HETATM    4  C   UNL     1      -7.183   8.344  66.237  1.00  0.00    -0.078 A  
HETATM    5  C   UNL     1      -7.819   9.361  66.978  1.00  0.00    -0.098 A  
HETATM    6  C   UNL     1      -7.595   9.458  68.498  1.00  0.00    -0.081 C  
HETATM    7  C   UNL     1      -8.702  10.212  66.290  1.00  0.00    -0.152 A  
HETATM    8  C   UNL     1      -6.874  10.757  68.973  1.00  0.00    -0.075 C  
HETATM    9  C   UNL     1      -8.940  10.061  64.921  1.00  0.00    -0.241 A  
HETATM   10  C   UNL     1      -8.750   8.978  69.390  1.00  0.00    -0.142 A  
HETATM   11  C   UNL     1      -9.985   8.549  68.878  1.00  0.00    -0.197 A  
HETATM   12  F   UNL     1     -11.673   7.402  71.882  1.00  0.00    -0.269 F  
HETATM   13  C   UNL     1      -8.538   8.851  70.776  1.00  0.00    -0.236 A  
HETATM   14  C   UNL     1     -10.977   8.031  69.720  1.00  0.00    -0.138 A  
HETATM   15  C   UNL     1     -10.733   7.924  71.084  1.00  0.00    -0.227 A  
HETATM   16  C   UNL     1      -9.523   8.332  71.621  1.00  0.00    -0.258 A  
ENDROOT
BRANCH   8  17
HETATM   17  C   UNL     1      -7.460  12.146  68.686  1.00  0.00    -0.105 C  
BRANCH  17  18
HETATM   18  C   UNL     1      -7.193  13.282  69.679  1.00  0.00     0.450 C  
BRANCH  18  19
HETATM   19  N   UNL     1      -7.725  14.612  69.373  1.00  0.00    -0.099 NA 
HETATM   20  C   UNL     1      -6.825  15.740  67.210  1.00  0.00    -0.220 C  
HETATM   21  C   UNL     1      -6.814  15.584  68.750  1.00  0.00    -0.116 C  
HETATM   22  C   UNL     1      -8.182  15.493  66.516  1.00  0.00    -0.132 C  
HETATM   23  C   UNL     1      -8.787  14.246  67.160  1.00  0.00    -0.243 C  
HETATM   24  C   UNL     1      -8.995  14.505  68.648  1.00  0.00    -0.181 C  
BRANCH  22  25
HETATM   25  N   UNL     1      -9.132  16.614  66.468  1.00  0.00    -0.253 N  
HETATM   26  C   UNL     1     -10.417  16.646  65.874  1.00  0.00    -0.313 C  
HETATM   27  O   UNL     1     -11.030  15.754  65.313  1.00  0.00    -0.364 OA 
HETATM   28  N   UNL     1     -10.911  17.948  66.044  1.00  0.00    -0.098 NA 
HETATM   29  C   UNL     1      -9.968  18.715  66.702  1.00  0.00    -0.365 A  
HETATM   30  C   UNL     1     -10.031  20.053  67.043  1.00  0.00    -0.582 A  
HETATM   31  C   UNL     1      -8.912  20.599  67.665  1.00  0.00    -0.253 A  
HETATM   32  C   UNL     1      -7.779  19.807  67.938  1.00  0.00    -0.330 A  
HETATM   33  C   UNL     1      -7.756  18.443  67.610  1.00  0.00    -0.236 A  
HETATM   34  C   UNL     1      -8.862  17.913  66.973  1.00  0.00    -0.250 A  
ENDBRANCH  22  25
ENDBRANCH  18  19
ENDBRANCH  17  18
ENDBRANCH   8  17
TORSDOF 4
ENDMDL
MODEL      215
REMARK 921   NORMALIZED FREE ENERGY PREDICTED BY IDOCK:   -4.06 KCAL/MOL
REMARK 922        TOTAL FREE ENERGY PREDICTED BY IDOCK:   -5.79 KCAL/MOL
REMARK 923 INTER-LIGAND FREE ENERGY PREDICTED BY IDOCK:   -5.13 KCAL/MOL
REMARK 924 INTRA-LIGAND FREE ENERGY PREDICTED BY IDOCK:   -0.66 KCAL/MOL
REMARK 927      BINDING AFFINITY PREDICTED BY RF-SCORE:    0.00 PKD
ROOT
HETATM    1  F   UNL     1      -8.861  13.793  66.621  1.00  0.00    -0.232 F  
HETATM    2  C   UNL     1      -9.337  12.580  66.933  1.00  0.00    -0.219 A  
HETATM    3  C   UNL     1     -10.707  12.374  67.002  1.00  0.00    -0.268 A  
HETATM    4  C   UNL     1     -11.202  11.111  67.345  1.00  0.00    -0.363 A  
HETATM    5  C   UNL     1     -10.330  10.038  67.620  1.00  0.00    -0.272 A  
HETATM    6  C   UNL     1     -10.901   8.680  68.067  1.00  0.00    -0.040 C  
HETATM    7  C   UNL     1      -8.948  10.285  67.539  1.00  0.00    -0.138 A  
HETATM    8  C   UNL     1     -10.645   7.502  67.077  1.00  0.00    -0.409 C  
HETATM    9  C   UNL     1      -8.453  11.546  67.197  1.00  0.00    -0.158 A  
HETATM   10  C   UNL     1     -10.754   8.335  69.557  1.00  0.00    -0.179 A  
HETATM   11  C   UNL     1     -10.068   9.154  70.469  1.00  0.00    -0.288 A  
HETATM   12  F   UNL     1     -10.704   7.456  73.615  1.00  0.00    -0.399 F  
HETATM   13  C   UNL     1     -11.427   7.209  70.069  1.00  0.00    -0.200 A  
HETATM   14  C   UNL     1     -10.039   8.850  71.835  1.00  0.00    -0.393 A  
HETATM   15  C   UNL     1     -10.711   7.728  72.303  1.00  0.00    -0.269 A  
HETATM   16  C   UNL     1     -11.403   6.902  71.433  1.00  0.00    -0.308 A  
ENDROOT
BRANCH   8  17
HETATM   17  C   UNL     1      -9.222   7.091  66.676  1.00  0.00    -0.189 C  
BRANCH  17  18
HETATM   18  C   UNL     1      -8.955   5.635  66.280  1.00  0.00    -0.140 C  
BRANCH  18  19
HETATM   19  N   UNL     1      -8.022   4.853  67.092  1.00  0.00    -0.099 NA 
HETATM   20  C   UNL     1      -5.903   6.103  67.932  1.00  0.00    -0.012 C  
HETATM   21  C   UNL     1      -6.586   5.132  66.940  1.00  0.00    -0.053 C  
HETATM   22  C   UNL     1      -6.482   6.125  69.363  1.00  0.00    -0.043 C  
HETATM   23  C   UNL     1      -8.004   6.122  69.224  1.00  0.00    -0.108 C  
HETATM   24  C   UNL     1      -8.436   4.853  68.499  1.00  0.00    -0.094 C  
BRANCH  22  25
HETATM   25  N   UNL     1      -6.006   5.097  70.302  1.00  0.00    -0.017 N  
HETATM   26  C   UNL     1      -5.473   3.820  70.003  1.00  0.00    -0.012 C  
HETATM   27  O   UNL     1      -5.255   3.309  68.918  1.00  0.00    -0.011 OA 
HETATM   28  N   UNL     1      -5.213   3.191  71.231  1.00  0.00    -0.004 NA 
HETATM   29  C   UNL     1      -5.585   4.030  72.264  1.00  0.00    -0.004 A  
HETATM   30  C   UNL     1      -5.531   3.796  73.626  1.00  0.00    -0.003 A  
HETATM   31  C   UNL     1      -6.019   4.799  74.458  1.00  0.00    -0.046 A  
HETATM   32  C   UNL     1      -6.531   5.996  73.922  1.00  0.00    -0.070 A  
HETATM   33  C   UNL     1      -6.544   6.220  72.537  1.00  0.00    -0.064 A  
HETATM   34  C   UNL     1      -6.078   5.211  71.716  1.00  0.00    -0.029 A  
ENDBRANCH  22  25
ENDBRANCH  18  19
ENDBRANCH  17  18
ENDBRANCH   8  17
TORSDOF 4
ENDMDL
MODEL      216
REMARK 921   NORMALIZED FREE ENERGY PREDICTED BY IDOCK:   -3.94 KCAL/MOL
REMARK 922        TOTAL FREE ENERGY PREDICTED BY IDOCK:   -5.65 KCAL/MOL
REMARK 923 INTER-LIGAND FREE ENERGY PREDICTED BY IDOCK:   -5.69 KCAL/MOL
REMARK 924 INTRA-LIGAND FREE ENERGY PREDICTED BY IDOCK:    0.04 KCAL/MOL
REMARK 927      BINDING AFFINITY PREDICTED BY RF-SCORE:    0.00 PKD
ROOT
HETATM    1  F   UNL     1     -12.603  11.389  68.782  1.00  0.00    -0.201 F  
HETATM    2  C   UNL     1     -11.354  11.037  68.450  1.00  0.00    -0.295 A  
HETATM    3  C   UNL     1     -11.115  10.401  67.240  1.00  0.00    -0.251 A  
HETATM    4  C   UNL     1      -9.811  10.019  66.903  1.00  0.00    -0.248 A  
HETATM    5  C   UNL     1      -8.731  10.272  67.773  1.00  0.00    -0.121 A  
HETATM    6  C   UNL     1      -7.320   9.774  67.409  1.00  0.00    -0.090 C  
HETATM    7  C   UNL     1      -9.012  10.918  68.990  1.00  0.00    -0.104 A  
HETATM    8  C   UNL     1      -6.268  10.901  67.172  1.00  0.00    -0.069 C  
HETATM    9  C   UNL     1     -10.313  11.300  69.327  1.00  0.00    -0.101 A  
HETATM   10  C   UNL     1      -6.811   8.546  68.178  1.00  0.00    -0.069 A  
HETATM   11  C   UNL     1      -7.534   7.939  69.218  1.00  0.00    -0.092 A  
HETATM   12  F   UNL     1      -5.477   5.040  69.958  1.00  0.00    -0.008 F  
HETATM   13  C   UNL     1      -5.621   7.920  67.759  1.00  0.00    -0.037 A  
HETATM   14  C   UNL     1      -7.077   6.765  69.828  1.00  0.00    -0.068 A  
HETATM   15  C   UNL     1      -5.896   6.178  69.391  1.00  0.00    -0.017 A  
HETATM   16  C   UNL     1      -5.161   6.745  68.363  1.00  0.00    -0.012 A  
ENDROOT
BRANCH   8  17
HETATM   17  C   UNL     1      -5.932  11.924  68.265  1.00  0.00    -0.050 C  
BRANCH  17  18
HETATM   18  C   UNL     1      -5.369  13.289  67.855  1.00  0.00    -0.108 C  
BRANCH  18  19
HETATM   19  N   UNL     1      -6.306  14.322  67.410  1.00  0.00    -0.309 NA 
HETATM   20  C   UNL     1      -8.005  15.175  69.184  1.00  0.00    -0.205 C  
HETATM   21  C   UNL     1      -7.670  14.289  67.960  1.00  0.00    -0.141 C  
HETATM   22  C   UNL     1      -7.231  16.507  69.286  1.00  0.00    -0.213 C  
HETATM   23  C   UNL     1      -5.774  16.198  68.945  1.00  0.00    -0.117 C  
HETATM   24  C   UNL     1      -5.699  15.653  67.524  1.00  0.00    -0.055 C  
BRANCH  22  25
HETATM   25  N   UNL     1      -7.752  17.653  68.526  1.00  0.00    -0.272 N  
HETATM   26  C   UNL     1      -7.473  19.028  68.717  1.00  0.00    -0.333 C  
HETATM   27  O   UNL     1      -6.721  19.559  69.515  1.00  0.00    -0.328 OA 
HETATM   28  N   UNL     1      -8.246  19.733  67.781  1.00  0.00    -0.300 NA 
HETATM   29  C   UNL     1      -8.998  18.840  67.041  1.00  0.00    -0.291 A  
HETATM   30  C   UNL     1      -9.913  19.107  66.040  1.00  0.00    -0.366 A  
HETATM   31  C   UNL     1     -10.576  18.017  65.485  1.00  0.00     0.007 A  
HETATM   32  C   UNL     1     -10.307  16.707  65.926  1.00  0.00    -0.355 A  
HETATM   33  C   UNL     1      -9.350  16.462  66.922  1.00  0.00    -0.244 A  
HETATM   34  C   UNL     1      -8.710  17.551  67.483  1.00  0.00    -0.225 A  
ENDBRANCH  22  25
ENDBRANCH  18  19
ENDBRANCH  17  18
ENDBRANCH   8  17
TORSDOF 4
ENDMDL
MODEL      217
REMARK 921   NORMALIZED FREE ENERGY PREDICTED BY IDOCK:   -3.93 KCAL/MOL
REMARK 922        TOTAL FREE ENERGY PREDICTED BY IDOCK:   -5.64 KCAL/MOL
REMARK 923 INTER-LIGAND FREE ENERGY PREDICTED BY IDOCK:   -5.24 KCAL/MOL
REMARK 924 INTRA-LIGAND FREE ENERGY PREDICTED BY IDOCK:   -0.40 KCAL/MOL
REMARK 927      BINDING AFFINITY PREDICTED BY RF-SCORE:    0.00 PKD
ROOT
HETATM    1  F   UNL     1     -10.609  11.588  63.006  1.00  0.00    -0.346 F  
HETATM    2  C   UNL     1      -9.712  10.807  63.621  1.00  0.00    -0.327 A  
HETATM    3  C   UNL     1      -8.477  10.578  63.031  1.00  0.00    -0.178 A  
HETATM    4  C   UNL     1      -7.547   9.748  63.668  1.00  0.00    -0.130 A  
HETATM    5  C   UNL     1      -7.844   9.138  64.904  1.00  0.00    -0.117 A  
HETATM    6  C   UNL     1      -6.831   8.170  65.544  1.00  0.00    -0.062 C  
HETATM    7  C   UNL     1      -9.105   9.393  65.470  1.00  0.00    -0.270 A  
HETATM    8  C   UNL     1      -6.237   8.648  66.905  1.00  0.00    -0.059 C  
HETATM    9  C   UNL     1     -10.033  10.222  64.835  1.00  0.00    -0.393 A  
HETATM   10  C   UNL     1      -7.170   6.674  65.460  1.00  0.00    -0.070 A  
HETATM   11  C   UNL     1      -8.369   6.191  64.910  1.00  0.00    -0.092 A  
HETATM   12  F   UNL     1      -7.826   2.601  64.994  1.00  0.00    -0.076 F  
HETATM   13  C   UNL     1      -6.200   5.729  65.842  1.00  0.00    -0.034 A  
HETATM   14  C   UNL     1      -8.596   4.816  64.766  1.00  0.00    -0.146 A  
HETATM   15  C   UNL     1      -7.617   3.913  65.159  1.00  0.00    -0.081 A  
HETATM   16  C   UNL     1      -6.420   4.355  65.698  1.00  0.00    -0.040 A  
ENDROOT
BRANCH   8  17
HETATM   17  C   UNL     1      -7.139   8.948  68.109  1.00  0.00    -0.078 C  
BRANCH  17  18
HETATM   18  C   UNL     1      -6.516   9.562  69.367  1.00  0.00    -0.044 C  
BRANCH  18  19
HETATM   19  N   UNL     1      -6.856  10.944  69.709  1.00  0.00    -0.141 NA 
HETATM   20  C   UNL     1      -5.542  12.797  68.443  1.00  0.00    -0.059 C  
HETATM   21  C   UNL     1      -5.768  11.934  69.708  1.00  0.00    -0.108 C  
HETATM   22  C   UNL     1      -6.803  13.129  67.617  1.00  0.00    -0.158 C  
HETATM   23  C   UNL     1      -7.622  11.841  67.526  1.00  0.00    -0.135 C  
HETATM   24  C   UNL     1      -8.013  11.398  68.931  1.00  0.00    -0.085 C  
BRANCH  22  25
HETATM   25  N   UNL     1      -7.614  14.276  68.050  1.00  0.00    -0.127 N  
HETATM   26  C   UNL     1      -7.524  15.002  69.263  1.00  0.00    -0.188 C  
HETATM   27  O   UNL     1      -6.742  14.867  70.187  1.00  0.00    -0.183 OA 
HETATM   28  N   UNL     1      -8.542  15.968  69.234  1.00  0.00    -0.251 NA 
HETATM   29  C   UNL     1      -9.258  15.846  68.058  1.00  0.00    -0.192 A  
HETATM   30  C   UNL     1     -10.357  16.573  67.639  1.00  0.00    -0.291 A  
HETATM   31  C   UNL     1     -10.926  16.210  66.422  1.00  0.00    -0.036 A  
HETATM   32  C   UNL     1     -10.388  15.156  65.659  1.00  0.00    -0.379 A  
HETATM   33  C   UNL     1      -9.252  14.457  66.093  1.00  0.00    -0.152 A  
HETATM   34  C   UNL     1      -8.705  14.808  67.313  1.00  0.00    -0.210 A  
ENDBRANCH  22  25
ENDBRANCH  18  19
ENDBRANCH  17  18
ENDBRANCH   8  17
TORSDOF 4
ENDMDL
MODEL      218
REMARK 921   NORMALIZED FREE ENERGY PREDICTED BY IDOCK:   -3.92 KCAL/MOL
REMARK 922        TOTAL FREE ENERGY PREDICTED BY IDOCK:   -5.62 KCAL/MOL
REMARK 923 INTER-LIGAND FREE ENERGY PREDICTED BY IDOCK:   -5.83 KCAL/MOL
REMARK 924 INTRA-LIGAND FREE ENERGY PREDICTED BY IDOCK:    0.21 KCAL/MOL
REMARK 927      BINDING AFFINITY PREDICTED BY RF-SCORE:    0.00 PKD
ROOT
HETATM    1  F   UNL     1      -7.016   4.703  66.074  1.00  0.00    -0.059 F  
HETATM    2  C   UNL     1      -7.395   5.843  66.667  1.00  0.00    -0.079 A  
HETATM    3  C   UNL     1      -8.332   5.811  67.689  1.00  0.00    -0.104 A  
HETATM    4  C   UNL     1      -8.739   7.006  68.295  1.00  0.00    -0.127 A  
HETATM    5  C   UNL     1      -8.208   8.246  67.885  1.00  0.00    -0.128 A  
HETATM    6  C   UNL     1      -8.729   9.550  68.518  1.00  0.00    -0.124 C  
HETATM    7  C   UNL     1      -7.260   8.238  66.847  1.00  0.00    -0.083 A  
HETATM    8  C   UNL     1      -7.670  10.348  69.341  1.00  0.00    -0.158 C  
HETATM    9  C   UNL     1      -6.854   7.046  66.242  1.00  0.00    -0.061 A  
HETATM   10  C   UNL     1      -9.672  10.400  67.653  1.00  0.00    -0.191 A  
HETATM   11  C   UNL     1      -9.993  10.074  66.325  1.00  0.00    -0.310 A  
HETATM   12  F   UNL     1     -12.483  12.595  65.528  1.00  0.00    -0.501 F  
HETATM   13  C   UNL     1     -10.340  11.492  68.238  1.00  0.00    -0.211 A  
HETATM   14  C   UNL     1     -10.931  10.824  65.604  1.00  0.00     0.033 A  
HETATM   15  C   UNL     1     -11.566  11.899  66.212  1.00  0.00    -0.246 A  
HETATM   16  C   UNL     1     -11.278  12.243  67.523  1.00  0.00    -0.354 A  
ENDROOT
BRANCH   8  17
HETATM   17  C   UNL     1      -6.370  10.847  68.697  1.00  0.00    -0.050 C  
BRANCH  17  18
HETATM   18  C   UNL     1      -6.328  12.263  68.113  1.00  0.00    -0.062 C  
BRANCH  18  19
HETATM   19  N   UNL     1      -7.474  13.145  68.343  1.00  0.00    -0.118 NA 
HETATM   20  C   UNL     1      -6.953  15.445  69.438  1.00  0.00    -0.181 C  
HETATM   21  C   UNL     1      -7.456  13.985  69.550  1.00  0.00     0.226 C  
HETATM   22  C   UNL     1      -7.213  16.147  68.087  1.00  0.00    -0.134 C  
HETATM   23  C   UNL     1      -6.872  15.137  66.992  1.00  0.00     0.308 C  
HETATM   24  C   UNL     1      -7.779  13.921  67.137  1.00  0.00     0.029 C  
BRANCH  22  25
HETATM   25  N   UNL     1      -8.532  16.764  67.888  1.00  0.00    -0.197 N  
HETATM   26  C   UNL     1      -9.806  16.149  67.966  1.00  0.00    -0.231 C  
HETATM   27  O   UNL     1     -10.091  14.999  68.252  1.00  0.00    -0.216 OA 
HETATM   28  N   UNL     1     -10.753  17.134  67.646  1.00  0.00    -0.336 NA 
HETATM   29  C   UNL     1     -10.103  18.320  67.358  1.00  0.00    -0.352 A  
HETATM   30  C   UNL     1     -10.648  19.528  66.967  1.00  0.00    -0.607 A  
HETATM   31  C   UNL     1      -9.759  20.561  66.688  1.00  0.00    -0.407 A  
HETATM   32  C   UNL     1      -8.369  20.371  66.815  1.00  0.00    -0.273 A  
HETATM   33  C   UNL     1      -7.844  19.143  67.245  1.00  0.00    -0.274 A  
HETATM   34  C   UNL     1      -8.733  18.115  67.499  1.00  0.00    -0.249 A  
ENDBRANCH  22  25
ENDBRANCH  18  19
ENDBRANCH  17  18
ENDBRANCH   8  17
TORSDOF 4
ENDMDL
MODEL      219
REMARK 921   NORMALIZED FREE ENERGY PREDICTED BY IDOCK:   -3.89 KCAL/MOL
REMARK 922        TOTAL FREE ENERGY PREDICTED BY IDOCK:   -5.58 KCAL/MOL
REMARK 923 INTER-LIGAND FREE ENERGY PREDICTED BY IDOCK:   -5.80 KCAL/MOL
REMARK 924 INTRA-LIGAND FREE ENERGY PREDICTED BY IDOCK:    0.22 KCAL/MOL
REMARK 927      BINDING AFFINITY PREDICTED BY RF-SCORE:    0.00 PKD
ROOT
HETATM    1  F   UNL     1      -7.210   5.926  63.194  1.00  0.00    -0.044 F  
HETATM    2  C   UNL     1      -7.784   6.963  63.817  1.00  0.00    -0.118 A  
HETATM    3  C   UNL     1      -8.305   8.013  63.075  1.00  0.00    -0.005 A  
HETATM    4  C   UNL     1      -8.889   9.104  63.729  1.00  0.00    -0.095 A  
HETATM    5  C   UNL     1      -8.960   9.154  65.137  1.00  0.00    -0.238 A  
HETATM    6  C   UNL     1      -9.540  10.400  65.831  1.00  0.00    -0.258 C  
HETATM    7  C   UNL     1      -8.422   8.072  65.855  1.00  0.00    -0.154 A  
HETATM    8  C   UNL     1     -10.853  10.150  66.637  1.00  0.00    -0.084 C  
HETATM    9  C   UNL     1      -7.839   6.983  65.202  1.00  0.00    -0.124 A  
HETATM   10  C   UNL     1      -8.528  11.346  66.494  1.00  0.00    -0.170 A  
HETATM   11  C   UNL     1      -7.151  11.074  66.552  1.00  0.00    -0.136 A  
HETATM   12  F   UNL     1      -5.854  14.130  68.023  1.00  0.00    -0.096 F  
HETATM   13  C   UNL     1      -8.966  12.596  66.968  1.00  0.00    -0.216 A  
HETATM   14  C   UNL     1      -6.251  12.007  67.081  1.00  0.00    -0.151 A  
HETATM   15  C   UNL     1      -6.721  13.229  67.544  1.00  0.00    -0.148 A  
HETATM   16  C   UNL     1      -8.072  13.533  67.495  1.00  0.00    -0.190 A  
ENDROOT
BRANCH   8  17
HETATM   17  C   UNL     1     -10.902   9.137  67.788  1.00  0.00    -0.159 C  
BRANCH  17  18
HETATM   18  C   UNL     1      -9.616   8.833  68.564  1.00  0.00    -0.150 C  
BRANCH  18  19
HETATM   19  N   UNL     1      -9.727   8.459  69.975  1.00  0.00    -0.175 NA 
HETATM   20  C   UNL     1     -11.866   7.143  70.650  1.00  0.00    -0.334 C  
HETATM   21  C   UNL     1     -11.068   8.468  70.580  1.00  0.00    -0.252 C  
HETATM   22  C   UNL     1     -11.027   5.856  70.804  1.00  0.00    -0.273 C  
HETATM   23  C   UNL     1      -9.844   5.984  69.844  1.00  0.00    -0.213 C  
HETATM   24  C   UNL     1      -9.016   7.202  70.233  1.00  0.00    -0.152 C  
BRANCH  22  25
HETATM   25  N   UNL     1     -10.607   5.480  72.161  1.00  0.00    -0.219 N  
HETATM   26  C   UNL     1     -10.591   6.285  73.327  1.00  0.00    -0.262 C  
HETATM   27  O   UNL     1     -10.955   7.438  73.472  1.00  0.00    -0.344 OA 
HETATM   28  N   UNL     1     -10.060   5.495  74.358  1.00  0.00    -0.240 NA 
HETATM   29  C   UNL     1      -9.734   4.247  73.861  1.00  0.00    -0.122 A  
HETATM   30  C   UNL     1      -9.159   3.179  74.523  1.00  0.00    -0.098 A  
HETATM   31  C   UNL     1      -8.888   2.041  73.769  1.00  0.00    -0.062 A  
HETATM   32  C   UNL     1      -9.201   1.993  72.397  1.00  0.00    -0.121 A  
HETATM   33  C   UNL     1      -9.814   3.081  71.757  1.00  0.00    -0.230 A  
HETATM   34  C   UNL     1     -10.062   4.215  72.508  1.00  0.00    -0.170 A  
ENDBRANCH  22  25
ENDBRANCH  18  19
ENDBRANCH  17  18
ENDBRANCH   8  17
TORSDOF 4
ENDMDL
MODEL      220
REMARK 921   NORMALIZED FREE ENERGY PREDICTED BY IDOCK:   -3.87 KCAL/MOL
REMARK 922        TOTAL FREE ENERGY PREDICTED BY IDOCK:   -5.56 KCAL/MOL
REMARK 923 INTER-LIGAND FREE ENERGY PREDICTED BY IDOCK:   -4.86 KCAL/MOL
REMARK 924 INTRA-LIGAND FREE ENERGY PREDICTED BY IDOCK:   -0.71 KCAL/MOL
REMARK 927      BINDING AFFINITY PREDICTED BY RF-SCORE:    0.00 PKD
ROOT
HETATM    1  F   UNL     1     -13.591   9.320  71.575  1.00  0.00    -0.370 F  
HETATM    2  C   UNL     1     -12.441   9.644  70.969  1.00  0.00    -0.296 A  
HETATM    3  C   UNL     1     -12.264  10.924  70.464  1.00  0.00    -0.459 A  
HETATM    4  C   UNL     1     -11.068  11.254  69.815  1.00  0.00    -0.238 A  
HETATM    5  C   UNL     1     -10.035  10.306  69.668  1.00  0.00    -0.240 A  
HETATM    6  C   UNL     1      -8.762  10.675  68.885  1.00  0.00    -0.163 C  
HETATM    7  C   UNL     1     -10.252   9.020  70.193  1.00  0.00    -0.224 A  
HETATM    8  C   UNL     1      -7.452  10.689  69.732  1.00  0.00    -0.088 C  
HETATM    9  C   UNL     1     -11.445   8.690  70.840  1.00  0.00    -0.315 A  
HETATM   10  C   UNL     1      -8.631  10.079  67.475  1.00  0.00    -0.122 A  
HETATM   11  C   UNL     1      -9.563   9.179  66.935  1.00  0.00    -0.233 A  
HETATM   12  F   UNL     1      -8.338   8.793  63.538  1.00  0.00    -0.162 F  
HETATM   13  C   UNL     1      -7.598  10.533  66.632  1.00  0.00    -0.120 A  
HETATM   14  C   UNL     1      -9.457   8.734  65.611  1.00  0.00    -0.171 A  
HETATM   15  C   UNL     1      -8.421   9.199  64.811  1.00  0.00    -0.178 A  
HETATM   16  C   UNL     1      -7.488  10.094  65.309  1.00  0.00    -0.145 A  
ENDROOT
BRANCH   8  17
HETATM   17  C   UNL     1      -6.970   9.439  70.479  1.00  0.00    -0.105 C  
BRANCH  17  18
HETATM   18  C   UNL     1      -6.033   8.461  69.762  1.00  0.00    -0.028 C  
BRANCH  18  19
HETATM   19  N   UNL     1      -6.556   7.705  68.623  1.00  0.00    -0.051 NA 
HETATM   20  C   UNL     1      -5.395   5.433  68.120  1.00  0.00    -0.008 C  
HETATM   21  C   UNL     1      -5.597   6.937  67.814  1.00  0.00    -0.016 C  
HETATM   22  C   UNL     1      -6.632   4.681  68.657  1.00  0.00    -0.045 C  
HETATM   23  C   UNL     1      -7.284   5.590  69.698  1.00  0.00    -0.065 C  
HETATM   24  C   UNL     1      -7.707   6.892  69.029  1.00  0.00    -0.110 C  
BRANCH  22  25
HETATM   25  N   UNL     1      -7.600   4.179  67.670  1.00  0.00    -0.068 N  
HETATM   26  C   UNL     1      -8.892   3.650  67.905  1.00  0.00    -0.117 C  
HETATM   27  O   UNL     1      -9.499   3.532  68.955  1.00  0.00    -0.164 OA 
HETATM   28  N   UNL     1      -9.403   3.260  66.657  1.00  0.00    -0.165 NA 
HETATM   29  C   UNL     1      -8.464   3.514  65.676  1.00  0.00    -0.108 A  
HETATM   30  C   UNL     1      -8.543   3.256  64.320  1.00  0.00    -0.093 A  
HETATM   31  C   UNL     1      -7.425   3.568  63.552  1.00  0.00    -0.058 A  
HETATM   32  C   UNL     1      -6.277   4.131  64.144  1.00  0.00    -0.026 A  
HETATM   33  C   UNL     1      -6.237   4.412  65.518  1.00  0.00    -0.027 A  
HETATM   34  C   UNL     1      -7.343   4.080  66.277  1.00  0.00    -0.079 A  
ENDBRANCH  22  25
ENDBRANCH  18  19
ENDBRANCH  17  18
ENDBRANCH   8  17
TORSDOF 4
ENDMDL
MODEL      221
REMARK 921   NORMALIZED FREE ENERGY PREDICTED BY IDOCK:   -3.85 KCAL/MOL
REMARK 922        TOTAL FREE ENERGY PREDICTED BY IDOCK:   -5.54 KCAL/MOL
REMARK 923 INTER-LIGAND FREE ENERGY PREDICTED BY IDOCK:   -5.28 KCAL/MOL
REMARK 924 INTRA-LIGAND FREE ENERGY PREDICTED BY IDOCK:   -0.26 KCAL/MOL
REMARK 927      BINDING AFFINITY PREDICTED BY RF-SCORE:    0.00 PKD
ROOT
HETATM    1  F   UNL     1      -7.809   8.340  62.854  1.00  0.00    -0.113 F  
HETATM    2  C   UNL     1      -8.334   9.230  63.706  1.00  0.00    -0.180 A  
HETATM    3  C   UNL     1      -8.714  10.483  63.247  1.00  0.00    -0.195 A  
HETATM    4  C   UNL     1      -9.247  11.418  64.143  1.00  0.00     0.008 A  
HETATM    5  C   UNL     1      -9.407  11.106  65.509  1.00  0.00    -0.247 A  
HETATM    6  C   UNL     1      -9.925  12.179  66.484  1.00  0.00    -0.230 C  
HETATM    7  C   UNL     1      -9.011   9.827  65.936  1.00  0.00    -0.189 A  
HETATM    8  C   UNL     1     -11.304  11.859  67.139  1.00  0.00    -0.393 C  
HETATM    9  C   UNL     1      -8.479   8.894  65.042  1.00  0.00    -0.194 A  
HETATM   10  C   UNL     1      -8.882  12.815  67.416  1.00  0.00    -0.190 A  
HETATM   11  C   UNL     1      -7.540  12.403  67.458  1.00  0.00    -0.155 A  
HETATM   12  F   UNL     1      -6.092  14.827  69.741  1.00  0.00    -0.099 F  
HETATM   13  C   UNL     1      -9.245  13.936  68.187  1.00  0.00    -0.202 A  
HETATM   14  C   UNL     1      -6.602  13.073  68.253  1.00  0.00    -0.094 A  
HETATM   15  C   UNL     1      -6.998  14.172  69.004  1.00  0.00    -0.112 A  
HETATM   16  C   UNL     1      -8.312  14.610  68.981  1.00  0.00    -0.102 A  
ENDROOT
BRANCH   8  17
HETATM   17  C   UNL     1     -11.515  10.592  67.977  1.00  0.00    -0.230 C  
BRANCH  17  18
HETATM   18  C   UNL     1     -10.475  10.224  69.040  1.00  0.00    -0.217 C  
BRANCH  18  19
HETATM   19  N   UNL     1     -10.851   9.262  70.077  1.00  0.00    -0.233 NA 
HETATM   20  C   UNL     1     -10.870   6.759  69.373  1.00  0.00    -0.312 C  
HETATM   21  C   UNL     1     -11.623   8.080  69.665  1.00  0.00     0.490 C  
HETATM   22  C   UNL     1      -9.587   6.516  70.196  1.00  0.00    -0.160 C  
HETATM   23  C   UNL     1      -8.823   7.840  70.223  1.00  0.00    -0.144 C  
HETATM   24  C   UNL     1      -9.687   8.901  70.894  1.00  0.00    -0.239 C  
BRANCH  22  25
HETATM   25  N   UNL     1      -9.743   5.935  71.537  1.00  0.00    -0.160 N  
HETATM   26  C   UNL     1     -10.921   5.840  72.318  1.00  0.00    -0.262 C  
HETATM   27  O   UNL     1     -12.059   6.177  72.040  1.00  0.00    -0.318 OA 
HETATM   28  N   UNL     1     -10.553   5.256  73.540  1.00  0.00    -0.246 NA 
HETATM   29  C   UNL     1      -9.193   5.009  73.540  1.00  0.00    -0.126 A  
HETATM   30  C   UNL     1      -8.415   4.475  74.549  1.00  0.00    -0.103 A  
HETATM   31  C   UNL     1      -7.048   4.377  74.307  1.00  0.00    -0.071 A  
HETATM   32  C   UNL     1      -6.500   4.798  73.080  1.00  0.00    -0.047 A  
HETATM   33  C   UNL     1      -7.319   5.307  72.060  1.00  0.00    -0.088 A  
HETATM   34  C   UNL     1      -8.672   5.421  72.316  1.00  0.00    -0.129 A  
ENDBRANCH  22  25
ENDBRANCH  18  19
ENDBRANCH  17  18
ENDBRANCH   8  17
TORSDOF 4
ENDMDL
MODEL      222
REMARK 921   NORMALIZED FREE ENERGY PREDICTED BY IDOCK:   -3.85 KCAL/MOL
REMARK 922        TOTAL FREE ENERGY PREDICTED BY IDOCK:   -5.54 KCAL/MOL
REMARK 923 INTER-LIGAND FREE ENERGY PREDICTED BY IDOCK:   -5.46 KCAL/MOL
REMARK 924 INTRA-LIGAND FREE ENERGY PREDICTED BY IDOCK:   -0.08 KCAL/MOL
REMARK 927      BINDING AFFINITY PREDICTED BY RF-SCORE:    0.00 PKD
ROOT
HETATM    1  F   UNL     1     -11.907  13.862  62.587  1.00  0.00     0.314 F  
HETATM    2  C   UNL     1     -11.842  13.462  63.864  1.00  0.00    -0.439 A  
HETATM    3  C   UNL     1     -12.917  12.797  64.434  1.00  0.00    -0.178 A  
HETATM    4  C   UNL     1     -12.853  12.395  65.774  1.00  0.00     1.057 A  
HETATM    5  C   UNL     1     -11.709  12.654  66.557  1.00  0.00    -0.463 A  
HETATM    6  C   UNL     1     -11.697  12.267  68.047  1.00  0.00    -0.417 C  
HETATM    7  C   UNL     1     -10.640  13.330  65.944  1.00  0.00    -0.288 A  
HETATM    8  C   UNL     1     -10.652  11.175  68.433  1.00  0.00    -0.223 C  
HETATM    9  C   UNL     1     -10.703  13.731  64.607  1.00  0.00    -0.427 A  
HETATM   10  C   UNL     1     -11.851  13.418  69.052  1.00  0.00    -0.378 A  
HETATM   11  C   UNL     1     -11.918  14.767  68.666  1.00  0.00    -0.292 A  
HETATM   12  F   UNL     1     -12.593  16.410  71.834  1.00  0.00    -0.464 F  
HETATM   13  C   UNL     1     -12.049  13.118  70.413  1.00  0.00    -0.392 A  
HETATM   14  C   UNL     1     -12.154  15.778  69.607  1.00  0.00    -0.282 A  
HETATM   15  C   UNL     1     -12.339  15.444  70.942  1.00  0.00    -0.398 A  
HETATM   16  C   UNL     1     -12.287  14.123  71.356  1.00  0.00    -0.425 A  
ENDROOT
BRANCH   8  17
HETATM   17  C   UNL     1      -9.152  11.381  68.182  1.00  0.00    -0.174 C  
BRANCH  17  18
HETATM   18  C   UNL     1      -8.209  10.179  68.303  1.00  0.00    -0.110 C  
BRANCH  18  19
HETATM   19  N   UNL     1      -8.774   8.888  68.697  1.00  0.00    -0.133 NA 
HETATM   20  C   UNL     1      -7.560   6.775  67.789  1.00  0.00    -0.107 C  
HETATM   21  C   UNL     1      -8.725   7.793  67.716  1.00  0.00    -0.123 C  
HETATM   22  C   UNL     1      -6.999   6.490  69.199  1.00  0.00    -0.075 C  
HETATM   23  C   UNL     1      -6.878   7.840  69.906  1.00  0.00    -0.049 C  
HETATM   24  C   UNL     1      -8.259   8.476  70.007  1.00  0.00    -0.121 C  
BRANCH  22  25
HETATM   25  N   UNL     1      -7.701   5.492  70.018  1.00  0.00    -0.077 N  
HETATM   26  C   UNL     1      -8.790   4.665  69.647  1.00  0.00    -0.083 C  
HETATM   27  O   UNL     1      -9.353   4.569  68.571  1.00  0.00    -0.125 OA 
HETATM   28  N   UNL     1      -9.141   3.922  70.785  1.00  0.00    -0.096 NA 
HETATM   29  C   UNL     1      -8.321   4.278  71.838  1.00  0.00    -0.101 A  
HETATM   30  C   UNL     1      -8.342   3.818  73.141  1.00  0.00    -0.091 A  
HETATM   31  C   UNL     1      -7.428   4.382  74.025  1.00  0.00    -0.077 A  
HETATM   32  C   UNL     1      -6.522   5.370  73.593  1.00  0.00    -0.072 A  
HETATM   33  C   UNL     1      -6.501   5.796  72.257  1.00  0.00    -0.057 A  
HETATM   34  C   UNL     1      -7.425   5.246  71.389  1.00  0.00    -0.095 A  
ENDBRANCH  22  25
ENDBRANCH  18  19
ENDBRANCH  17  18
ENDBRANCH   8  17
TORSDOF 4
ENDMDL
MODEL      223
REMARK 921   NORMALIZED FREE ENERGY PREDICTED BY IDOCK:   -3.81 KCAL/MOL
REMARK 922        TOTAL FREE ENERGY PREDICTED BY IDOCK:   -5.49 KCAL/MOL
REMARK 923 INTER-LIGAND FREE ENERGY PREDICTED BY IDOCK:   -5.34 KCAL/MOL
REMARK 924 INTRA-LIGAND FREE ENERGY PREDICTED BY IDOCK:   -0.14 KCAL/MOL
REMARK 927      BINDING AFFINITY PREDICTED BY RF-SCORE:    0.00 PKD
ROOT
HETATM    1  F   UNL     1      -8.378   4.866  62.966  1.00  0.00    -0.089 F  
HETATM    2  C   UNL     1      -8.294   5.510  64.137  1.00  0.00    -0.102 A  
HETATM    3  C   UNL     1      -8.763   4.904  65.294  1.00  0.00    -0.146 A  
HETATM    4  C   UNL     1      -8.690   5.587  66.514  1.00  0.00    -0.119 A  
HETATM    5  C   UNL     1      -8.143   6.885  66.589  1.00  0.00    -0.110 A  
HETATM    6  C   UNL     1      -8.144   7.640  67.931  1.00  0.00    -0.123 C  
HETATM    7  C   UNL     1      -7.677   7.465  65.397  1.00  0.00    -0.110 A  
HETATM    8  C   UNL     1      -6.729   7.946  68.512  1.00  0.00    -0.062 C  
HETATM    9  C   UNL     1      -7.750   6.784  64.179  1.00  0.00    -0.113 A  
HETATM   10  C   UNL     1      -9.177   8.767  68.079  1.00  0.00    -0.147 A  
HETATM   11  C   UNL     1     -10.030   9.165  67.036  1.00  0.00    -0.294 A  
HETATM   12  F   UNL     1     -12.145  11.603  68.701  1.00  0.00    -0.365 F  
HETATM   13  C   UNL     1      -9.368   9.361  69.341  1.00  0.00    -0.172 A  
HETATM   14  C   UNL     1     -11.022  10.132  67.242  1.00  0.00    -0.250 A  
HETATM   15  C   UNL     1     -11.177  10.700  68.501  1.00  0.00    -0.282 A  
HETATM   16  C   UNL     1     -10.358  10.325  69.553  1.00  0.00    -0.267 A  
ENDROOT
BRANCH   8  17
HETATM   17  C   UNL     1      -5.703   8.771  67.725  1.00  0.00    -0.039 C  
BRANCH  17  18
HETATM   18  C   UNL     1      -5.333  10.170  68.229  1.00  0.00    -0.035 C  
BRANCH  18  19
HETATM   19  N   UNL     1      -6.415  11.109  68.532  1.00  0.00    -0.056 NA 
HETATM   20  C   UNL     1      -5.832  13.049  70.162  1.00  0.00    -0.153 C  
HETATM   21  C   UNL     1      -6.474  11.667  69.892  1.00  0.00    -0.085 C  
HETATM   22  C   UNL     1      -5.856  14.047  68.984  1.00  0.00    -0.089 C  
HETATM   23  C   UNL     1      -5.473  13.260  67.731  1.00  0.00    -0.098 C  
HETATM   24  C   UNL     1      -6.496  12.153  67.505  1.00  0.00    -0.134 C  
BRANCH  22  25
HETATM   25  N   UNL     1      -7.079  14.840  68.793  1.00  0.00    -0.107 N  
HETATM   26  C   UNL     1      -8.410  14.375  68.654  1.00  0.00    -0.147 C  
HETATM   27  O   UNL     1      -8.837  13.235  68.702  1.00  0.00    -0.097 OA 
HETATM   28  N   UNL     1      -9.214  15.505  68.443  1.00  0.00    -0.187 NA 
HETATM   29  C   UNL     1      -8.422  16.637  68.429  1.00  0.00    -0.216 A  
HETATM   30  C   UNL     1      -8.800  17.951  68.221  1.00  0.00    -0.277 A  
HETATM   31  C   UNL     1      -7.787  18.904  68.208  1.00  0.00    -0.340 A  
HETATM   32  C   UNL     1      -6.444  18.533  68.411  1.00  0.00    -0.226 A  
HETATM   33  C   UNL     1      -6.092  17.196  68.652  1.00  0.00    -0.153 A  
HETATM   34  C   UNL     1      -7.101  16.252  68.642  1.00  0.00    -0.155 A  
ENDBRANCH  22  25
ENDBRANCH  18  19
ENDBRANCH  17  18
ENDBRANCH   8  17
TORSDOF 4
ENDMDL
MODEL      224
REMARK 921   NORMALIZED FREE ENERGY PREDICTED BY IDOCK:   -3.80 KCAL/MOL
REMARK 922        TOTAL FREE ENERGY PREDICTED BY IDOCK:   -5.48 KCAL/MOL
REMARK 923 INTER-LIGAND FREE ENERGY PREDICTED BY IDOCK:   -5.44 KCAL/MOL
REMARK 924 INTRA-LIGAND FREE ENERGY PREDICTED BY IDOCK:   -0.03 KCAL/MOL
REMARK 927      BINDING AFFINITY PREDICTED BY RF-SCORE:    0.00 PKD
ROOT
HETATM    1  F   UNL     1      -5.134  13.954  70.659  1.00  0.00    -0.094 F  
HETATM    2  C   UNL     1      -5.926  14.483  69.716  1.00  0.00    -0.122 A  
HETATM    3  C   UNL     1      -5.371  15.245  68.698  1.00  0.00    -0.092 A  
HETATM    4  C   UNL     1      -6.202  15.810  67.724  1.00  0.00    -0.175 A  
HETATM    5  C   UNL     1      -7.599  15.616  67.757  1.00  0.00    -0.158 A  
HETATM    6  C   UNL     1      -8.494  16.312  66.716  1.00  0.00    -0.283 C  
HETATM    7  C   UNL     1      -8.123  14.838  68.804  1.00  0.00    -0.158 A  
HETATM    8  C   UNL     1      -9.253  15.347  65.754  1.00  0.00    -0.172 C  
HETATM    9  C   UNL     1      -7.294  14.274  69.777  1.00  0.00     0.181 A  
HETATM   10  C   UNL     1      -9.301  17.523  67.210  1.00  0.00    -0.244 A  
HETATM   11  C   UNL     1      -9.306  17.945  68.549  1.00  0.00    -0.299 A  
HETATM   12  F   UNL     1     -11.262  20.998  68.357  1.00  0.00     0.661 F  
HETATM   13  C   UNL     1      -9.980  18.323  66.271  1.00  0.00    -0.361 A  
HETATM   14  C   UNL     1      -9.979  19.109  68.939  1.00  0.00    -0.481 A  
HETATM   15  C   UNL     1     -10.643  19.871  67.985  1.00  0.00    -0.265 A  
HETATM   16  C   UNL     1     -10.652  19.488  66.654  1.00  0.00    -0.583 A  
ENDROOT
BRANCH   8  17
HETATM   17  C   UNL     1     -10.219  14.282  66.290  1.00  0.00    -0.307 C  
BRANCH  17  18
HETATM   18  C   UNL     1     -10.096  12.843  65.776  1.00  0.00    -0.287 C  
BRANCH  18  19
HETATM   19  N   UNL     1      -9.423  11.857  66.623  1.00  0.00    -0.204 NA 
HETATM   20  C   UNL     1     -10.853  10.807  68.523  1.00  0.00    -0.270 C  
HETATM   21  C   UNL     1      -9.785  11.821  68.048  1.00  0.00    -0.185 C  
HETATM   22  C   UNL     1     -10.918   9.477  67.741  1.00  0.00    -0.100 C  
HETATM   23  C   UNL     1     -10.809   9.832  66.258  1.00  0.00     0.193 C  
HETATM   24  C   UNL     1      -9.476  10.527  66.008  1.00  0.00    -0.183 C  
BRANCH  22  25
HETATM   25  N   UNL     1      -9.978   8.416  68.131  1.00  0.00    -0.184 N  
HETATM   26  C   UNL     1      -9.970   7.061  67.720  1.00  0.00    -0.152 C  
HETATM   27  O   UNL     1     -10.704   6.489  66.933  1.00  0.00    -0.297 OA 
HETATM   28  N   UNL     1      -8.915   6.436  68.403  1.00  0.00    -0.121 NA 
HETATM   29  C   UNL     1      -8.293   7.354  69.227  1.00  0.00    -0.132 A  
HETATM   30  C   UNL     1      -7.234   7.156  70.093  1.00  0.00    -0.078 A  
HETATM   31  C   UNL     1      -6.826   8.250  70.852  1.00  0.00    -0.044 A  
HETATM   32  C   UNL     1      -7.467   9.497  70.723  1.00  0.00    -0.099 A  
HETATM   33  C   UNL     1      -8.519   9.678  69.812  1.00  0.00    -0.200 A  
HETATM   34  C   UNL     1      -8.932   8.582  69.077  1.00  0.00    -0.146 A  
ENDBRANCH  22  25
ENDBRANCH  18  19
ENDBRANCH  17  18
ENDBRANCH   8  17
TORSDOF 4
ENDMDL
MODEL      225
REMARK 921   NORMALIZED FREE ENERGY PREDICTED BY IDOCK:   -3.80 KCAL/MOL
REMARK 922        TOTAL FREE ENERGY PREDICTED BY IDOCK:   -5.47 KCAL/MOL
REMARK 923 INTER-LIGAND FREE ENERGY PREDICTED BY IDOCK:   -4.92 KCAL/MOL
REMARK 924 INTRA-LIGAND FREE ENERGY PREDICTED BY IDOCK:   -0.55 KCAL/MOL
REMARK 927      BINDING AFFINITY PREDICTED BY RF-SCORE:    0.00 PKD
ROOT
HETATM    1  F   UNL     1      -7.957  11.042  62.335  1.00  0.00    -0.197 F  
HETATM    2  C   UNL     1      -7.739  10.048  63.205  1.00  0.00    -0.147 A  
HETATM    3  C   UNL     1      -6.487   9.455  63.275  1.00  0.00    -0.093 A  
HETATM    4  C   UNL     1      -6.266   8.404  64.174  1.00  0.00    -0.067 A  
HETATM    5  C   UNL     1      -7.298   7.937  65.014  1.00  0.00    -0.072 A  
HETATM    6  C   UNL     1      -7.047   6.732  65.938  1.00  0.00    -0.069 C  
HETATM    7  C   UNL     1      -8.552   8.563  64.914  1.00  0.00    -0.135 A  
HETATM    8  C   UNL     1      -7.125   7.047  67.464  1.00  0.00    -0.085 C  
HETATM    9  C   UNL     1      -8.773   9.612  64.018  1.00  0.00    -0.240 A  
HETATM   10  C   UNL     1      -7.676   5.398  65.506  1.00  0.00    -0.091 A  
HETATM   11  C   UNL     1      -8.507   5.273  64.381  1.00  0.00    -0.126 A  
HETATM   12  F   UNL     1      -9.049   1.684  64.258  1.00  0.00    -0.093 F  
HETATM   13  C   UNL     1      -7.323   4.220  66.191  1.00  0.00    -0.076 A  
HETATM   14  C   UNL     1      -8.982   4.022  63.968  1.00  0.00    -0.131 A  
HETATM   15  C   UNL     1      -8.616   2.881  64.672  1.00  0.00    -0.100 A  
HETATM   16  C   UNL     1      -7.792   2.968  65.782  1.00  0.00    -0.085 A  
ENDROOT
BRANCH   8  17
HETATM   17  C   UNL     1      -8.397   7.627  68.096  1.00  0.00    -0.124 C  
BRANCH  17  18
HETATM   18  C   UNL     1      -8.317   8.234  69.501  1.00  0.00    -0.121 C  
BRANCH  18  19
HETATM   19  N   UNL     1      -8.003   9.658  69.625  1.00  0.00    -0.120 NA 
HETATM   20  C   UNL     1      -7.695  10.967  67.400  1.00  0.00    -0.114 C  
HETATM   21  C   UNL     1      -7.093  10.247  68.631  1.00  0.00    -0.075 C  
HETATM   22  C   UNL     1      -9.050  11.671  67.625  1.00  0.00    -0.174 C  
HETATM   23  C   UNL     1      -9.914  10.714  68.446  1.00  0.00    -0.176 C  
HETATM   24  C   UNL     1      -9.230  10.446  69.781  1.00  0.00     0.033 C  
BRANCH  22  25
HETATM   25  N   UNL     1      -9.023  13.026  68.195  1.00  0.00    -0.196 N  
HETATM   26  C   UNL     1      -7.896  13.847  68.447  1.00  0.00    -0.138 C  
HETATM   27  O   UNL     1      -6.719  13.633  68.214  1.00  0.00    -0.085 OA 
HETATM   28  N   UNL     1      -8.376  15.023  69.043  1.00  0.00    -0.186 NA 
HETATM   29  C   UNL     1      -9.748  14.942  69.180  1.00  0.00    -0.183 A  
HETATM   30  C   UNL     1     -10.614  15.862  69.743  1.00  0.00    -0.322 A  
HETATM   31  C   UNL     1     -11.959  15.509  69.801  1.00  0.00    -0.384 A  
HETATM   32  C   UNL     1     -12.403  14.272  69.296  1.00  0.00    -0.197 A  
HETATM   33  C   UNL     1     -11.507  13.371  68.701  1.00  0.00    -0.345 A  
HETATM   34  C   UNL     1     -10.170  13.719  68.666  1.00  0.00    -0.208 A  
ENDBRANCH  22  25
ENDBRANCH  18  19
ENDBRANCH  17  18
ENDBRANCH   8  17
TORSDOF 4
ENDMDL
MODEL      226
REMARK 921   NORMALIZED FREE ENERGY PREDICTED BY IDOCK:   -3.78 KCAL/MOL
REMARK 922        TOTAL FREE ENERGY PREDICTED BY IDOCK:   -5.45 KCAL/MOL
REMARK 923 INTER-LIGAND FREE ENERGY PREDICTED BY IDOCK:   -5.36 KCAL/MOL
REMARK 924 INTRA-LIGAND FREE ENERGY PREDICTED BY IDOCK:   -0.09 KCAL/MOL
REMARK 927      BINDING AFFINITY PREDICTED BY RF-SCORE:    0.00 PKD
ROOT
HETATM    1  F   UNL     1     -12.365  10.820  68.147  1.00  0.00    -0.077 F  
HETATM    2  C   UNL     1     -11.081  10.466  68.296  1.00  0.00    -0.281 A  
HETATM    3  C   UNL     1     -10.506   9.569  67.407  1.00  0.00    -0.336 A  
HETATM    4  C   UNL     1      -9.169   9.188  67.575  1.00  0.00    -0.144 A  
HETATM    5  C   UNL     1      -8.394   9.702  68.635  1.00  0.00    -0.114 A  
HETATM    6  C   UNL     1      -6.950   9.208  68.838  1.00  0.00    -0.064 C  
HETATM    7  C   UNL     1      -9.012  10.608  69.514  1.00  0.00     0.025 A  
HETATM    8  C   UNL     1      -5.850  10.298  68.650  1.00  0.00    -0.037 C  
HETATM    9  C   UNL     1     -10.346  10.990  69.347  1.00  0.00    -0.134 A  
HETATM   10  C   UNL     1      -6.721   8.231  70.002  1.00  0.00    -0.042 A  
HETATM   11  C   UNL     1      -7.735   7.858  70.899  1.00  0.00    -0.083 A  
HETATM   12  F   UNL     1      -6.058   5.339  72.906  1.00  0.00    -0.026 F  
HETATM   13  C   UNL     1      -5.475   7.587  70.121  1.00  0.00    -0.023 A  
HETATM   14  C   UNL     1      -7.507   6.893  71.887  1.00  0.00    -0.088 A  
HETATM   15  C   UNL     1      -6.263   6.282  71.978  1.00  0.00    -0.042 A  
HETATM   16  C   UNL     1      -5.242   6.621  71.105  1.00  0.00    -0.023 A  
ENDROOT
BRANCH   8  17
HETATM   17  C   UNL     1      -5.835  11.572  69.505  1.00  0.00    -0.077 C  
BRANCH  17  18
HETATM   18  C   UNL     1      -5.409  12.894  68.857  1.00  0.00    -0.067 C  
BRANCH  18  19
HETATM   19  N   UNL     1      -6.253  14.072  69.064  1.00  0.00    -0.087 NA 
HETATM   20  C   UNL     1      -6.616  15.604  66.994  1.00  0.00     0.124 C  
HETATM   21  C   UNL     1      -5.902  15.300  68.333  1.00  0.00    -0.106 C  
HETATM   22  C   UNL     1      -8.070  15.099  66.874  1.00  0.00    -0.159 C  
HETATM   23  C   UNL     1      -8.093  13.681  67.445  1.00  0.00    -0.184 C  
HETATM   24  C   UNL     1      -7.670  13.727  68.909  1.00  0.00    -0.021 C  
BRANCH  22  25
HETATM   25  N   UNL     1      -9.131  15.945  67.439  1.00  0.00    -0.194 N  
HETATM   26  C   UNL     1     -10.273  15.543  68.172  1.00  0.00    -0.227 C  
HETATM   27  O   UNL     1     -10.607  14.427  68.528  1.00  0.00    -0.240 OA 
HETATM   28  N   UNL     1     -11.010  16.706  68.447  1.00  0.00    -0.357 NA 
HETATM   29  C   UNL     1     -10.368  17.797  67.893  1.00  0.00    -0.386 A  
HETATM   30  C   UNL     1     -10.762  19.122  67.899  1.00  0.00    -0.396 A  
HETATM   31  C   UNL     1      -9.950  20.025  67.219  1.00  0.00    -0.574 A  
HETATM   32  C   UNL     1      -8.778  19.593  66.568  1.00  0.00    -0.402 A  
HETATM   33  C   UNL     1      -8.385  18.247  66.605  1.00  0.00    -0.281 A  
HETATM   34  C   UNL     1      -9.208  17.353  67.265  1.00  0.00    -0.234 A  
ENDBRANCH  22  25
ENDBRANCH  18  19
ENDBRANCH  17  18
ENDBRANCH   8  17
TORSDOF 4
ENDMDL
MODEL      227
REMARK 921   NORMALIZED FREE ENERGY PREDICTED BY IDOCK:   -3.77 KCAL/MOL
REMARK 922        TOTAL FREE ENERGY PREDICTED BY IDOCK:   -5.44 KCAL/MOL
REMARK 923 INTER-LIGAND FREE ENERGY PREDICTED BY IDOCK:   -5.75 KCAL/MOL
REMARK 924 INTRA-LIGAND FREE ENERGY PREDICTED BY IDOCK:    0.31 KCAL/MOL
REMARK 927      BINDING AFFINITY PREDICTED BY RF-SCORE:    0.00 PKD
ROOT
HETATM    1  F   UNL     1      -9.597   4.452  63.634  1.00  0.00    -0.154 F  
HETATM    2  C   UNL     1      -9.378   5.083  64.794  1.00  0.00     0.061 A  
HETATM    3  C   UNL     1      -9.925   4.582  65.967  1.00  0.00    -0.265 A  
HETATM    4  C   UNL     1      -9.708   5.254  67.176  1.00  0.00    -0.165 A  
HETATM    5  C   UNL     1      -8.939   6.435  67.224  1.00  0.00    -0.107 A  
HETATM    6  C   UNL     1      -8.781   7.193  68.554  1.00  0.00    -0.126 C  
HETATM    7  C   UNL     1      -8.402   6.912  66.015  1.00  0.00    -0.134 A  
HETATM    8  C   UNL     1      -7.323   7.250  69.107  1.00  0.00    -0.087 C  
HETATM    9  C   UNL     1      -8.617   6.242  64.808  1.00  0.00     0.099 A  
HETATM   10  C   UNL     1      -9.595   8.487  68.704  1.00  0.00    -0.153 A  
HETATM   11  C   UNL     1     -10.385   9.018  67.672  1.00  0.00    -0.317 A  
HETATM   12  F   UNL     1     -12.003  11.809  69.338  1.00  0.00    -0.312 F  
HETATM   13  C   UNL     1      -9.654   9.118  69.961  1.00  0.00    -0.218 A  
HETATM   14  C   UNL     1     -11.186  10.147  67.881  1.00  0.00    -0.234 A  
HETATM   15  C   UNL     1     -11.214  10.747  69.134  1.00  0.00    -0.262 A  
HETATM   16  C   UNL     1     -10.454  10.245  70.177  1.00  0.00    -0.259 A  
ENDROOT
BRANCH   8  17
HETATM   17  C   UNL     1      -6.183   7.873  68.291  1.00  0.00    -0.045 C  
BRANCH  17  18
HETATM   18  C   UNL     1      -5.787   9.328  68.561  1.00  0.00    -0.041 C  
BRANCH  18  19
HETATM   19  N   UNL     1      -6.844  10.289  68.879  1.00  0.00    -0.057 NA 
HETATM   20  C   UNL     1      -6.089  12.749  69.252  1.00  0.00    -0.099 C  
HETATM   21  C   UNL     1      -6.521  11.375  69.818  1.00  0.00    -0.133 C  
HETATM   22  C   UNL     1      -6.708  13.147  67.895  1.00  0.00    -0.138 C  
HETATM   23  C   UNL     1      -6.653  11.905  67.005  1.00  0.00    -0.128 C  
HETATM   24  C   UNL     1      -7.470  10.792  67.651  1.00  0.00    -0.095 C  
BRANCH  22  25
HETATM   25  N   UNL     1      -8.043  13.762  67.913  1.00  0.00    -0.151 N  
HETATM   26  C   UNL     1      -8.537  14.752  68.797  1.00  0.00    -0.170 C  
HETATM   27  O   UNL     1      -7.963  15.335  69.700  1.00  0.00    -0.224 OA 
HETATM   28  N   UNL     1      -9.878  14.976  68.448  1.00  0.00    -0.217 NA 
HETATM   29  C   UNL     1     -10.223  14.146  67.398  1.00  0.00    -0.244 A  
HETATM   30  C   UNL     1     -11.446  14.019  66.767  1.00  0.00    -0.379 A  
HETATM   31  C   UNL     1     -11.540  13.064  65.759  1.00  0.00    -0.396 A  
HETATM   32  C   UNL     1     -10.426  12.280  65.402  1.00  0.00    -0.302 A  
HETATM   33  C   UNL     1      -9.187  12.453  66.037  1.00  0.00    -0.055 A  
HETATM   34  C   UNL     1      -9.108  13.388  67.052  1.00  0.00    -0.243 A  
ENDBRANCH  22  25
ENDBRANCH  18  19
ENDBRANCH  17  18
ENDBRANCH   8  17
TORSDOF 4
ENDMDL
MODEL      228
REMARK 921   NORMALIZED FREE ENERGY PREDICTED BY IDOCK:   -3.76 KCAL/MOL
REMARK 922        TOTAL FREE ENERGY PREDICTED BY IDOCK:   -5.43 KCAL/MOL
REMARK 923 INTER-LIGAND FREE ENERGY PREDICTED BY IDOCK:   -3.81 KCAL/MOL
REMARK 924 INTRA-LIGAND FREE ENERGY PREDICTED BY IDOCK:   -1.62 KCAL/MOL
REMARK 927      BINDING AFFINITY PREDICTED BY RF-SCORE:    0.00 PKD
ROOT
HETATM    1  F   UNL     1      -5.861  15.199  69.380  1.00  0.00    -0.097 F  
HETATM    2  C   UNL     1      -7.002  14.583  69.045  1.00  0.00    -0.121 A  
HETATM    3  C   UNL     1      -8.212  15.246  69.190  1.00  0.00    -0.234 A  
HETATM    4  C   UNL     1      -9.404  14.594  68.856  1.00  0.00    -0.160 A  
HETATM    5  C   UNL     1      -9.398  13.270  68.369  1.00  0.00    -0.157 A  
HETATM    6  C   UNL     1     -10.729  12.553  68.080  1.00  0.00    -0.246 C  
HETATM    7  C   UNL     1      -8.152  12.632  68.235  1.00  0.00    -0.161 A  
HETATM    8  C   UNL     1     -10.964  12.185  66.582  1.00  0.00    -0.325 C  
HETATM    9  C   UNL     1      -6.962  13.283  68.569  1.00  0.00    -0.103 A  
HETATM   10  C   UNL     1     -11.167  11.490  69.099  1.00  0.00    -0.337 A  
HETATM   11  C   UNL     1     -10.378  11.112  70.198  1.00  0.00     0.789 A  
HETATM   12  F   UNL     1     -12.599   8.842  71.958  1.00  0.00    -0.345 F  
HETATM   13  C   UNL     1     -12.460  10.942  69.005  1.00  0.00     0.265 A  
HETATM   14  C   UNL     1     -10.855  10.208  71.154  1.00  0.00     0.098 A  
HETATM   15  C   UNL     1     -12.135   9.684  71.026  1.00  0.00    -0.337 A  
HETATM   16  C   UNL     1     -12.943  10.041  69.959  1.00  0.00     0.346 A  
ENDROOT
BRANCH   8  17
HETATM   17  C   UNL     1      -9.986  11.282  65.819  1.00  0.00    -0.281 C  
BRANCH  17  18
HETATM   18  C   UNL     1     -10.403   9.843  65.497  1.00  0.00     0.010 C  
BRANCH  18  19
HETATM   19  N   UNL     1      -9.503   8.755  65.886  1.00  0.00    -0.231 NA 
HETATM   20  C   UNL     1      -8.205   9.077  68.116  1.00  0.00    -0.113 C  
HETATM   21  C   UNL     1      -8.252   9.115  66.569  1.00  0.00    -0.111 C  
HETATM   22  C   UNL     1      -9.103   8.019  68.792  1.00  0.00    -0.144 C  
HETATM   23  C   UNL     1     -10.450   8.057  68.070  1.00  0.00    -0.243 C  
HETATM   24  C   UNL     1     -10.239   7.708  66.602  1.00  0.00    -0.202 C  
BRANCH  22  25
HETATM   25  N   UNL     1      -8.571   6.654  68.910  1.00  0.00    -0.126 N  
HETATM   26  C   UNL     1      -7.630   6.007  68.072  1.00  0.00    -0.093 C  
HETATM   27  O   UNL     1      -7.030   6.444  67.105  1.00  0.00    -0.067 OA 
HETATM   28  N   UNL     1      -7.482   4.700  68.560  1.00  0.00    -0.065 NA 
HETATM   29  C   UNL     1      -8.311   4.521  69.651  1.00  0.00    -0.069 A  
HETATM   30  C   UNL     1      -8.501   3.381  70.411  1.00  0.00    -0.094 A  
HETATM   31  C   UNL     1      -9.440   3.456  71.435  1.00  0.00    -0.224 A  
HETATM   32  C   UNL     1     -10.149   4.648  71.680  1.00  0.00    -0.258 A  
HETATM   33  C   UNL     1      -9.912   5.799  70.914  1.00  0.00    -0.243 A  
HETATM   34  C   UNL     1      -8.993   5.712  69.885  1.00  0.00    -0.129 A  
ENDBRANCH  22  25
ENDBRANCH  18  19
ENDBRANCH  17  18
ENDBRANCH   8  17
TORSDOF 4
ENDMDL
MODEL      229
REMARK 921   NORMALIZED FREE ENERGY PREDICTED BY IDOCK:   -3.73 KCAL/MOL
REMARK 922        TOTAL FREE ENERGY PREDICTED BY IDOCK:   -5.39 KCAL/MOL
REMARK 923 INTER-LIGAND FREE ENERGY PREDICTED BY IDOCK:   -5.98 KCAL/MOL
REMARK 924 INTRA-LIGAND FREE ENERGY PREDICTED BY IDOCK:    0.59 KCAL/MOL
REMARK 927      BINDING AFFINITY PREDICTED BY RF-SCORE:    0.00 PKD
ROOT
HETATM    1  F   UNL     1      -8.426   4.518  65.103  1.00  0.00    -0.113 F  
HETATM    2  C   UNL     1      -8.296   5.332  66.159  1.00  0.00    -0.115 A  
HETATM    3  C   UNL     1      -7.224   6.211  66.224  1.00  0.00    -0.072 A  
HETATM    4  C   UNL     1      -7.081   7.048  67.336  1.00  0.00    -0.088 A  
HETATM    5  C   UNL     1      -8.011   7.016  68.396  1.00  0.00    -0.123 A  
HETATM    6  C   UNL     1      -7.787   7.895  69.640  1.00  0.00    -0.105 C  
HETATM    7  C   UNL     1      -9.083   6.113  68.293  1.00  0.00    -0.112 A  
HETATM    8  C   UNL     1      -8.869   8.995  69.870  1.00  0.00    -0.164 C  
HETATM    9  C   UNL     1      -9.227   5.277  67.183  1.00  0.00    -0.113 A  
HETATM   10  C   UNL     1      -7.298   7.174  70.905  1.00  0.00    -0.075 A  
HETATM   11  C   UNL     1      -7.135   5.781  70.978  1.00  0.00    -0.068 A  
HETATM   12  F   UNL     1      -5.662   5.379  74.273  1.00  0.00    -0.036 F  
HETATM   13  C   UNL     1      -6.882   7.938  72.012  1.00  0.00    -0.066 A  
HETATM   14  C   UNL     1      -6.597   5.174  72.119  1.00  0.00    -0.044 A  
HETATM   15  C   UNL     1      -6.202   5.961  73.195  1.00  0.00    -0.058 A  
HETATM   16  C   UNL     1      -6.342   7.338  73.154  1.00  0.00    -0.060 A  
ENDROOT
BRANCH   8  17
HETATM   17  C   UNL     1     -10.350   8.635  70.043  1.00  0.00    -0.213 C  
BRANCH  17  18
HETATM   18  C   UNL     1     -11.300   9.674  70.647  1.00  0.00    -0.312 C  
BRANCH  18  19
HETATM   19  N   UNL     1     -11.934  10.641  69.750  1.00  0.00    -0.299 NA 
HETATM   20  C   UNL     1     -10.669  12.885  69.397  1.00  0.00     0.144 C  
HETATM   21  C   UNL     1     -11.796  12.069  70.076  1.00  0.00    -0.314 C  
HETATM   22  C   UNL     1     -10.280  12.443  67.970  1.00  0.00    -0.219 C  
HETATM   23  C   UNL     1     -10.211  10.916  67.985  1.00  0.00    -0.202 C  
HETATM   24  C   UNL     1     -11.581  10.359  68.354  1.00  0.00    -0.052 C  
BRANCH  22  25
HETATM   25  N   UNL     1     -11.092  12.954  66.857  1.00  0.00    -0.270 N  
HETATM   26  C   UNL     1     -12.115  13.933  66.898  1.00  0.00    -0.430 C  
HETATM   27  O   UNL     1     -12.517  14.589  67.843  1.00  0.00    -0.072 OA 
HETATM   28  N   UNL     1     -12.627  14.040  65.595  1.00  0.00    -0.522 NA 
HETATM   29  C   UNL     1     -11.967  13.152  64.768  1.00  0.00    -0.388 A  
HETATM   30  C   UNL     1     -12.177  12.909  63.423  1.00  0.00    -0.574 A  
HETATM   31  C   UNL     1     -11.400  11.916  62.833  1.00  0.00     0.204 A  
HETATM   32  C   UNL     1     -10.442  11.207  63.583  1.00  0.00    -0.438 A  
HETATM   33  C   UNL     1     -10.228  11.497  64.939  1.00  0.00    -0.324 A  
HETATM   34  C   UNL     1     -11.017  12.470  65.524  1.00  0.00    -0.287 A  
ENDBRANCH  22  25
ENDBRANCH  18  19
ENDBRANCH  17  18
ENDBRANCH   8  17
TORSDOF 4
ENDMDL
MODEL      230
REMARK 921   NORMALIZED FREE ENERGY PREDICTED BY IDOCK:   -3.71 KCAL/MOL
REMARK 922        TOTAL FREE ENERGY PREDICTED BY IDOCK:   -5.37 KCAL/MOL
REMARK 923 INTER-LIGAND FREE ENERGY PREDICTED BY IDOCK:   -5.13 KCAL/MOL
REMARK 924 INTRA-LIGAND FREE ENERGY PREDICTED BY IDOCK:   -0.24 KCAL/MOL
REMARK 927      BINDING AFFINITY PREDICTED BY RF-SCORE:    0.00 PKD
ROOT
HETATM    1  F   UNL     1      -8.317   2.865  71.489  1.00  0.00    -0.060 F  
HETATM    2  C   UNL     1      -8.650   3.766  70.555  1.00  0.00    -0.070 A  
HETATM    3  C   UNL     1      -9.000   3.342  69.282  1.00  0.00    -0.178 A  
HETATM    4  C   UNL     1      -9.331   4.287  68.303  1.00  0.00    -0.207 A  
HETATM    5  C   UNL     1      -9.316   5.668  68.590  1.00  0.00    -0.142 A  
HETATM    6  C   UNL     1      -9.611   6.686  67.474  1.00  0.00    -0.142 C  
HETATM    7  C   UNL     1      -8.957   6.058  69.892  1.00  0.00    -0.144 A  
HETATM    8  C   UNL     1     -10.903   7.536  67.686  1.00  0.00    -0.197 C  
HETATM    9  C   UNL     1      -8.626   5.115  70.869  1.00  0.00    -0.129 A  
HETATM   10  C   UNL     1      -8.404   7.449  66.910  1.00  0.00    -0.122 A  
HETATM   11  C   UNL     1      -7.102   7.308  67.419  1.00  0.00    -0.088 A  
HETATM   12  F   UNL     1      -5.172   9.317  65.090  1.00  0.00    -0.039 F  
HETATM   13  C   UNL     1      -8.571   8.242  65.759  1.00  0.00    -0.182 A  
HETATM   14  C   UNL     1      -6.015   7.949  66.815  1.00  0.00    -0.048 A  
HETATM   15  C   UNL     1      -6.219   8.728  65.683  1.00  0.00    -0.052 A  
HETATM   16  C   UNL     1      -7.488   8.883  65.149  1.00  0.00    -0.097 A  
ENDROOT
BRANCH   8  17
HETATM   17  C   UNL     1     -11.083   8.418  68.928  1.00  0.00     0.255 C  
BRANCH  17  18
HETATM   18  C   UNL     1     -11.362   9.914  68.741  1.00  0.00     0.007 C  
BRANCH  18  19
HETATM   19  N   UNL     1     -10.238  10.796  68.421  1.00  0.00    -0.168 NA 
HETATM   20  C   UNL     1     -10.415  12.124  66.193  1.00  0.00    -0.281 C  
HETATM   21  C   UNL     1      -9.857  10.931  67.007  1.00  0.00    -0.183 C  
HETATM   22  C   UNL     1     -10.671  13.423  66.986  1.00  0.00    -0.268 C  
HETATM   23  C   UNL     1     -11.341  13.014  68.298  1.00  0.00    -0.323 C  
HETATM   24  C   UNL     1     -10.402  12.099  69.074  1.00  0.00     0.016 C  
BRANCH  22  25
HETATM   25  N   UNL     1      -9.527  14.322  67.201  1.00  0.00    -0.219 N  
HETATM   26  C   UNL     1      -8.156  13.983  67.305  1.00  0.00    -0.156 C  
HETATM   27  O   UNL     1      -7.621  12.893  67.201  1.00  0.00    -0.128 OA 
HETATM   28  N   UNL     1      -7.461  15.175  67.559  1.00  0.00    -0.181 NA 
HETATM   29  C   UNL     1      -8.358  16.223  67.633  1.00  0.00    -0.161 A  
HETATM   30  C   UNL     1      -8.106  17.557  67.896  1.00  0.00    -0.230 A  
HETATM   31  C   UNL     1      -9.207  18.406  67.963  1.00  0.00    -0.307 A  
HETATM   32  C   UNL     1     -10.511  17.915  67.757  1.00  0.00    -0.409 A  
HETATM   33  C   UNL     1     -10.735  16.562  67.460  1.00  0.00    -0.283 A  
HETATM   34  C   UNL     1      -9.639  15.721  67.416  1.00  0.00    -0.217 A  
ENDBRANCH  22  25
ENDBRANCH  18  19
ENDBRANCH  17  18
ENDBRANCH   8  17
TORSDOF 4
ENDMDL
MODEL      231
REMARK 921   NORMALIZED FREE ENERGY PREDICTED BY IDOCK:   -3.71 KCAL/MOL
REMARK 922        TOTAL FREE ENERGY PREDICTED BY IDOCK:   -5.36 KCAL/MOL
REMARK 923 INTER-LIGAND FREE ENERGY PREDICTED BY IDOCK:   -5.52 KCAL/MOL
REMARK 924 INTRA-LIGAND FREE ENERGY PREDICTED BY IDOCK:    0.16 KCAL/MOL
REMARK 927      BINDING AFFINITY PREDICTED BY RF-SCORE:    0.00 PKD
ROOT
HETATM    1  F   UNL     1     -11.433  13.330  63.618  1.00  0.00    -0.415 F  
HETATM    2  C   UNL     1     -11.190  12.510  64.648  1.00  0.00    -0.312 A  
HETATM    3  C   UNL     1     -11.794  12.744  65.875  1.00  0.00    -0.490 A  
HETATM    4  C   UNL     1     -11.524  11.895  66.955  1.00  0.00    -0.390 A  
HETATM    5  C   UNL     1     -10.646  10.800  66.817  1.00  0.00    -0.307 A  
HETATM    6  C   UNL     1     -10.311   9.929  68.042  1.00  0.00    -0.244 C  
HETATM    7  C   UNL     1     -10.053  10.595  65.560  1.00  0.00    -0.343 A  
HETATM    8  C   UNL     1     -10.790   8.447  67.943  1.00  0.00    -0.037 C  
HETATM    9  C   UNL     1     -10.322  11.442  64.481  1.00  0.00    -0.369 A  
HETATM   10  C   UNL     1      -8.922  10.134  68.665  1.00  0.00    -0.136 A  
HETATM   11  C   UNL     1      -7.960  11.001  68.122  1.00  0.00    -0.119 A  
HETATM   12  F   UNL     1      -5.330  10.849  70.622  1.00  0.00    -0.064 F  
HETATM   13  C   UNL     1      -8.626   9.521  69.898  1.00  0.00    -0.217 A  
HETATM   14  C   UNL     1      -6.742  11.231  68.775  1.00  0.00    -0.070 A  
HETATM   15  C   UNL     1      -6.484  10.604  69.987  1.00  0.00    -0.138 A  
HETATM   16  C   UNL     1      -7.413   9.749  70.555  1.00  0.00    -0.119 A  
ENDROOT
BRANCH   8  17
HETATM   17  C   UNL     1     -10.320   7.530  66.807  1.00  0.00    -0.332 C  
BRANCH  17  18
HETATM   18  C   UNL     1     -10.891   6.110  66.716  1.00  0.00    -0.285 C  
BRANCH  18  19
HETATM   19  N   UNL     1     -10.284   5.063  67.538  1.00  0.00    -0.157 NA 
HETATM   20  C   UNL     1      -7.921   4.255  66.811  1.00  0.00    -0.098 C  
HETATM   21  C   UNL     1      -9.456   4.055  66.858  1.00  0.00    -0.198 C  
HETATM   22  C   UNL     1      -7.298   4.987  68.020  1.00  0.00    -0.075 C  
HETATM   23  C   UNL     1      -8.212   6.170  68.338  1.00  0.00    -0.115 C  
HETATM   24  C   UNL     1      -9.598   5.647  68.696  1.00  0.00    -0.130 C  
BRANCH  22  25
HETATM   25  N   UNL     1      -6.989   4.184  69.212  1.00  0.00    -0.046 N  
HETATM   26  C   UNL     1      -6.992   2.774  69.341  1.00  0.00    -0.040 C  
HETATM   27  O   UNL     1      -7.210   1.922  68.497  1.00  0.00    -0.043 OA 
HETATM   28  N   UNL     1      -6.683   2.488  70.680  1.00  0.00    -0.032 NA 
HETATM   29  C   UNL     1      -6.510   3.671  71.374  1.00  0.00    -0.018 A  
HETATM   30  C   UNL     1      -6.228   3.849  72.715  1.00  0.00    -0.013 A  
HETATM   31  C   UNL     1      -6.152   5.161  73.175  1.00  0.00    -0.038 A  
HETATM   32  C   UNL     1      -6.347   6.245  72.298  1.00  0.00    -0.054 A  
HETATM   33  C   UNL     1      -6.600   6.035  70.934  1.00  0.00    -0.045 A  
HETATM   34  C   UNL     1      -6.695   4.730  70.489  1.00  0.00    -0.036 A  
ENDBRANCH  22  25
ENDBRANCH  18  19
ENDBRANCH  17  18
ENDBRANCH   8  17
TORSDOF 4
ENDMDL
MODEL      232
REMARK 921   NORMALIZED FREE ENERGY PREDICTED BY IDOCK:   -3.67 KCAL/MOL
REMARK 922        TOTAL FREE ENERGY PREDICTED BY IDOCK:   -5.32 KCAL/MOL
REMARK 923 INTER-LIGAND FREE ENERGY PREDICTED BY IDOCK:   -5.34 KCAL/MOL
REMARK 924 INTRA-LIGAND FREE ENERGY PREDICTED BY IDOCK:    0.02 KCAL/MOL
REMARK 927      BINDING AFFINITY PREDICTED BY RF-SCORE:    0.00 PKD
ROOT
HETATM    1  F   UNL     1     -10.268   5.308  72.327  1.00  0.00    -0.205 F  
HETATM    2  C   UNL     1     -10.265   6.531  71.781  1.00  0.00    -0.188 A  
HETATM    3  C   UNL     1      -9.329   7.468  72.193  1.00  0.00    -0.176 A  
HETATM    4  C   UNL     1      -9.338   8.751  71.633  1.00  0.00    -0.345 A  
HETATM    5  C   UNL     1     -10.284   9.109  70.651  1.00  0.00    -0.306 A  
HETATM    6  C   UNL     1     -10.318  10.549  70.107  1.00  0.00    -0.001 C  
HETATM    7  C   UNL     1     -11.216   8.133  70.258  1.00  0.00    -0.182 A  
HETATM    8  C   UNL     1      -9.977  10.686  68.591  1.00  0.00    -0.188 C  
HETATM    9  C   UNL     1     -11.208   6.852  70.817  1.00  0.00    -0.338 A  
HETATM   10  C   UNL     1     -11.463  11.442  70.610  1.00  0.00     0.162 A  
HETATM   11  C   UNL     1     -12.484  10.975  71.454  1.00  0.00    -0.436 A  
HETATM   12  F   UNL     1     -14.316  14.029  72.161  1.00  0.00    -0.524 F  
HETATM   13  C   UNL     1     -11.440  12.818  70.314  1.00  0.00     0.129 A  
HETATM   14  C   UNL     1     -13.454  11.845  71.965  1.00  0.00    -0.336 A  
HETATM   15  C   UNL     1     -13.402  13.196  71.647  1.00  0.00    -0.308 A  
HETATM   16  C   UNL     1     -12.405  13.692  70.824  1.00  0.00    -0.446 A  
ENDROOT
BRANCH   8  17
HETATM   17  C   UNL     1     -10.799   9.961  67.519  1.00  0.00    -0.307 C  
BRANCH  17  18
HETATM   18  C   UNL     1     -10.183   9.743  66.133  1.00  0.00    -0.208 C  
BRANCH  18  19
HETATM   19  N   UNL     1      -9.579   8.443  65.837  1.00  0.00    -0.125 NA 
HETATM   20  C   UNL     1      -6.991   8.302  66.050  1.00  0.00    -0.065 C  
HETATM   21  C   UNL     1      -8.263   8.435  65.179  1.00  0.00    -0.157 C  
HETATM   22  C   UNL     1      -7.142   7.473  67.344  1.00  0.00    -0.085 C  
HETATM   23  C   UNL     1      -8.465   7.891  67.985  1.00  0.00    -0.123 C  
HETATM   24  C   UNL     1      -9.605   7.580  67.023  1.00  0.00    -0.170 C  
BRANCH  22  25
HETATM   25  N   UNL     1      -7.013   6.012  67.231  1.00  0.00    -0.067 N  
HETATM   26  C   UNL     1      -7.391   5.026  68.174  1.00  0.00    -0.074 C  
HETATM   27  O   UNL     1      -7.934   5.161  69.256  1.00  0.00    -0.079 OA 
HETATM   28  N   UNL     1      -7.021   3.785  67.634  1.00  0.00    -0.054 NA 
HETATM   29  C   UNL     1      -6.416   3.980  66.407  1.00  0.00    -0.037 A  
HETATM   30  C   UNL     1      -5.876   3.036  65.552  1.00  0.00    -0.019 A  
HETATM   31  C   UNL     1      -5.277   3.509  64.389  1.00  0.00    -0.009 A  
HETATM   32  C   UNL     1      -5.240   4.887  64.104  1.00  0.00    -0.009 A  
HETATM   33  C   UNL     1      -5.824   5.821  64.974  1.00  0.00    -0.024 A  
HETATM   34  C   UNL     1      -6.399   5.346  66.138  1.00  0.00    -0.035 A  
ENDBRANCH  22  25
ENDBRANCH  18  19
ENDBRANCH  17  18
ENDBRANCH   8  17
TORSDOF 4
ENDMDL
MODEL      233
REMARK 921   NORMALIZED FREE ENERGY PREDICTED BY IDOCK:   -3.64 KCAL/MOL
REMARK 922        TOTAL FREE ENERGY PREDICTED BY IDOCK:   -5.28 KCAL/MOL
REMARK 923 INTER-LIGAND FREE ENERGY PREDICTED BY IDOCK:   -5.27 KCAL/MOL
REMARK 924 INTRA-LIGAND FREE ENERGY PREDICTED BY IDOCK:   -0.01 KCAL/MOL
REMARK 927      BINDING AFFINITY PREDICTED BY RF-SCORE:    0.00 PKD
ROOT
HETATM    1  F   UNL     1     -13.582  14.866  73.269  1.00  0.00    -0.516 F  
HETATM    2  C   UNL     1     -13.290  13.879  72.413  1.00  0.00    -0.529 A  
HETATM    3  C   UNL     1     -14.228  12.891  72.153  1.00  0.00     0.054 A  
HETATM    4  C   UNL     1     -13.914  11.850  71.271  1.00  0.00     1.773 A  
HETATM    5  C   UNL     1     -12.656  11.789  70.638  1.00  0.00    -0.289 A  
HETATM    6  C   UNL     1     -12.311  10.593  69.731  1.00  0.00    -0.263 C  
HETATM    7  C   UNL     1     -11.731  12.808  70.926  1.00  0.00     0.567 A  
HETATM    8  C   UNL     1     -12.084  10.952  68.230  1.00  0.00     0.158 C  
HETATM    9  C   UNL     1     -12.044  13.847  71.806  1.00  0.00     0.071 A  
HETATM   10  C   UNL     1     -11.346   9.550  70.315  1.00  0.00    -0.284 A  
HETATM   11  C   UNL     1     -10.731   9.693  71.569  1.00  0.00    -0.137 A  
HETATM   12  F   UNL     1      -9.015   6.512  71.921  1.00  0.00    -0.136 F  
HETATM   13  C   UNL     1     -11.147   8.339  69.625  1.00  0.00    -0.009 A  
HETATM   14  C   UNL     1      -9.933   8.675  72.105  1.00  0.00    -0.386 A  
HETATM   15  C   UNL     1      -9.756   7.495  71.393  1.00  0.00    -0.166 A  
HETATM   16  C   UNL     1     -10.353   7.317  70.156  1.00  0.00    -0.221 A  
ENDROOT
BRANCH   8  17
HETATM   17  C   UNL     1     -11.000  11.950  67.803  1.00  0.00    -0.278 C  
BRANCH  17  18
HETATM   18  C   UNL     1     -11.029  12.510  66.377  1.00  0.00    -0.273 C  
BRANCH  18  19
HETATM   19  N   UNL     1     -10.656  13.911  66.173  1.00  0.00    -0.287 NA 
HETATM   20  C   UNL     1     -10.553  15.397  68.304  1.00  0.00    -0.253 C  
HETATM   21  C   UNL     1     -11.294  14.920  67.031  1.00  0.00    -0.342 C  
HETATM   22  C   UNL     1      -9.011  15.406  68.225  1.00  0.00    -0.185 C  
HETATM   23  C   UNL     1      -8.597  14.102  67.544  1.00  0.00    -0.196 C  
HETATM   24  C   UNL     1      -9.197  14.057  66.144  1.00  0.00    -0.031 C  
BRANCH  22  25
HETATM   25  N   UNL     1      -8.372  16.581  67.616  1.00  0.00    -0.164 N  
HETATM   26  C   UNL     1      -7.101  16.662  66.995  1.00  0.00    -0.203 C  
HETATM   27  O   UNL     1      -6.283  15.782  66.795  1.00  0.00    -0.195 OA 
HETATM   28  N   UNL     1      -6.918  18.002  66.619  1.00  0.00    -0.196 NA 
HETATM   29  C   UNL     1      -8.020  18.742  67.003  1.00  0.00    -0.245 A  
HETATM   30  C   UNL     1      -8.240  20.099  66.857  1.00  0.00    -0.363 A  
HETATM   31  C   UNL     1      -9.426  20.606  67.381  1.00  0.00    -0.516 A  
HETATM   32  C   UNL     1     -10.353  19.760  68.019  1.00  0.00    -0.567 A  
HETATM   33  C   UNL     1     -10.118  18.380  68.125  1.00  0.00    -0.408 A  
HETATM   34  C   UNL     1      -8.929  17.887  67.621  1.00  0.00    -0.250 A  
ENDBRANCH  22  25
ENDBRANCH  18  19
ENDBRANCH  17  18
ENDBRANCH   8  17
TORSDOF 4
ENDMDL
MODEL      234
REMARK 921   NORMALIZED FREE ENERGY PREDICTED BY IDOCK:   -3.64 KCAL/MOL
REMARK 922        TOTAL FREE ENERGY PREDICTED BY IDOCK:   -5.28 KCAL/MOL
REMARK 923 INTER-LIGAND FREE ENERGY PREDICTED BY IDOCK:   -5.53 KCAL/MOL
REMARK 924 INTRA-LIGAND FREE ENERGY PREDICTED BY IDOCK:    0.25 KCAL/MOL
REMARK 927      BINDING AFFINITY PREDICTED BY RF-SCORE:    0.00 PKD
ROOT
HETATM    1  F   UNL     1      -9.802   5.410  71.934  1.00  0.00    -0.179 F  
HETATM    2  C   UNL     1      -9.713   6.549  71.234  1.00  0.00    -0.173 A  
HETATM    3  C   UNL     1      -8.740   7.483  71.556  1.00  0.00    -0.124 A  
HETATM    4  C   UNL     1      -8.660   8.680  70.834  1.00  0.00    -0.204 A  
HETATM    5  C   UNL     1      -9.554   8.953  69.778  1.00  0.00    -0.175 A  
HETATM    6  C   UNL     1      -9.490  10.309  69.052  1.00  0.00    -0.206 C  
HETATM    7  C   UNL     1     -10.526   7.982  69.481  1.00  0.00    -0.226 A  
HETATM    8  C   UNL     1      -9.095  10.227  67.545  1.00  0.00    -0.146 C  
HETATM    9  C   UNL     1     -10.606   6.788  70.201  1.00  0.00    -0.254 A  
HETATM   10  C   UNL     1     -10.598  11.317  69.390  1.00  0.00    -0.142 A  
HETATM   11  C   UNL     1     -11.670  11.018  70.248  1.00  0.00    -0.445 A  
HETATM   12  F   UNL     1     -13.350  14.229  70.482  1.00  0.00    -0.363 F  
HETATM   13  C   UNL     1     -10.490  12.639  68.919  1.00  0.00    -0.109 A  
HETATM   14  C   UNL     1     -12.606  11.997  70.605  1.00  0.00    -0.255 A  
HETATM   15  C   UNL     1     -12.469  13.290  70.116  1.00  0.00    -0.140 A  
HETATM   16  C   UNL     1     -11.420  13.621  69.273  1.00  0.00    -0.344 A  
ENDROOT
BRANCH   8  17
HETATM   17  C   UNL     1      -9.923   9.410  66.545  1.00  0.00    -0.339 C  
BRANCH  17  18
HETATM   18  C   UNL     1      -9.233   8.302  65.741  1.00  0.00    -0.078 C  
BRANCH  18  19
HETATM   19  N   UNL     1      -8.796   7.098  66.449  1.00  0.00    -0.141 NA 
HETATM   20  C   UNL     1     -10.326   5.008  66.215  1.00  0.00    -0.332 C  
HETATM   21  C   UNL     1      -9.835   6.231  67.027  1.00  0.00    -0.149 C  
HETATM   22  C   UNL     1      -9.279   4.344  65.295  1.00  0.00    -0.155 C  
HETATM   23  C   UNL     1      -8.529   5.475  64.592  1.00  0.00    -0.108 C  
HETATM   24  C   UNL     1      -7.837   6.341  65.638  1.00  0.00    -0.098 C  
BRANCH  22  25
HETATM   25  N   UNL     1      -8.368   3.363  65.903  1.00  0.00    -0.101 N  
HETATM   26  C   UNL     1      -7.699   2.284  65.276  1.00  0.00    -0.076 C  
HETATM   27  O   UNL     1      -7.697   1.956  64.102  1.00  0.00    -0.059 OA 
HETATM   28  N   UNL     1      -6.989   1.608  66.280  1.00  0.00    -0.041 NA 
HETATM   29  C   UNL     1      -7.215   2.223  67.496  1.00  0.00    -0.052 A  
HETATM   30  C   UNL     1      -6.739   1.866  68.744  1.00  0.00    -0.029 A  
HETATM   31  C   UNL     1      -7.162   2.634  69.824  1.00  0.00    -0.044 A  
HETATM   32  C   UNL     1      -8.029   3.728  69.637  1.00  0.00    -0.055 A  
HETATM   33  C   UNL     1      -8.472   4.087  68.355  1.00  0.00    -0.106 A  
HETATM   34  C   UNL     1      -8.064   3.307  67.289  1.00  0.00    -0.082 A  
ENDBRANCH  22  25
ENDBRANCH  18  19
ENDBRANCH  17  18
ENDBRANCH   8  17
TORSDOF 4
ENDMDL
MODEL      235
REMARK 921   NORMALIZED FREE ENERGY PREDICTED BY IDOCK:   -3.63 KCAL/MOL
REMARK 922        TOTAL FREE ENERGY PREDICTED BY IDOCK:   -5.27 KCAL/MOL
REMARK 923 INTER-LIGAND FREE ENERGY PREDICTED BY IDOCK:   -4.61 KCAL/MOL
REMARK 924 INTRA-LIGAND FREE ENERGY PREDICTED BY IDOCK:   -0.65 KCAL/MOL
REMARK 927      BINDING AFFINITY PREDICTED BY RF-SCORE:    0.00 PKD
ROOT
HETATM    1  F   UNL     1      -5.687  15.996  67.758  1.00  0.00    -0.108 F  
HETATM    2  C   UNL     1      -6.705  15.183  67.449  1.00  0.00    -0.100 A  
HETATM    3  C   UNL     1      -7.917  15.720  67.040  1.00  0.00    -0.272 A  
HETATM    4  C   UNL     1      -8.985  14.868  66.734  1.00  0.00    -0.295 A  
HETATM    5  C   UNL     1      -8.849  13.468  66.832  1.00  0.00    -0.194 A  
HETATM    6  C   UNL     1     -10.063  12.559  66.561  1.00  0.00    -0.250 C  
HETATM    7  C   UNL     1      -7.606  12.962  67.249  1.00  0.00    -0.104 A  
HETATM    8  C   UNL     1      -9.916  11.620  65.324  1.00  0.00    -0.292 C  
HETATM    9  C   UNL     1      -6.540  13.811  67.555  1.00  0.00    -0.113 A  
HETATM   10  C   UNL     1     -10.734  11.932  67.792  1.00  0.00    -0.243 A  
HETATM   11  C   UNL     1     -10.240  12.092  69.097  1.00  0.00     0.127 A  
HETATM   12  F   UNL     1     -12.816  10.457  71.067  1.00  0.00    -0.376 F  
HETATM   13  C   UNL     1     -11.960  11.258  67.636  1.00  0.00     0.071 A  
HETATM   14  C   UNL     1     -10.935  11.581  70.201  1.00  0.00     0.328 A  
HETATM   15  C   UNL     1     -12.140  10.918  70.007  1.00  0.00    -0.355 A  
HETATM   16  C   UNL     1     -12.659  10.749  68.734  1.00  0.00     0.947 A  
ENDROOT
BRANCH   8  17
HETATM   17  C   UNL     1      -8.773  10.600  65.227  1.00  0.00    -0.198 C  
BRANCH  17  18
HETATM   18  C   UNL     1      -9.071   9.124  65.512  1.00  0.00    -0.219 C  
BRANCH  18  19
HETATM   19  N   UNL     1      -9.497   8.748  66.861  1.00  0.00    -0.164 NA 
HETATM   20  C   UNL     1      -9.899   6.213  67.276  1.00  0.00    -0.158 C  
HETATM   21  C   UNL     1     -10.446   7.632  66.991  1.00  0.00    -0.349 C  
HETATM   22  C   UNL     1      -8.604   6.143  68.113  1.00  0.00    -0.115 C  
HETATM   23  C   UNL     1      -7.670   7.227  67.574  1.00  0.00    -0.111 C  
HETATM   24  C   UNL     1      -8.336   8.588  67.743  1.00  0.00    -0.130 C  
BRANCH  22  25
HETATM   25  N   UNL     1      -8.740   6.202  69.576  1.00  0.00    -0.129 N  
HETATM   26  C   UNL     1      -7.768   5.892  70.558  1.00  0.00    -0.100 C  
HETATM   27  O   UNL     1      -6.607   5.551  70.413  1.00  0.00    -0.039 OA 
HETATM   28  N   UNL     1      -8.387   6.050  71.807  1.00  0.00    -0.118 NA 
HETATM   29  C   UNL     1      -9.704   6.427  71.623  1.00  0.00    -0.160 A  
HETATM   30  C   UNL     1     -10.676   6.659  72.578  1.00  0.00    -0.259 A  
HETATM   31  C   UNL     1     -11.949   6.982  72.117  1.00  0.00    -0.299 A  
HETATM   32  C   UNL     1     -12.215   7.076  70.738  1.00  0.00    -0.343 A  
HETATM   33  C   UNL     1     -11.201   6.868  69.791  1.00  0.00    -0.315 A  
HETATM   34  C   UNL     1      -9.945   6.526  70.255  1.00  0.00    -0.174 A  
ENDBRANCH  22  25
ENDBRANCH  18  19
ENDBRANCH  17  18
ENDBRANCH   8  17
TORSDOF 4
ENDMDL
MODEL      236
REMARK 921   NORMALIZED FREE ENERGY PREDICTED BY IDOCK:   -3.56 KCAL/MOL
REMARK 922        TOTAL FREE ENERGY PREDICTED BY IDOCK:   -5.18 KCAL/MOL
REMARK 923 INTER-LIGAND FREE ENERGY PREDICTED BY IDOCK:   -5.19 KCAL/MOL
REMARK 924 INTRA-LIGAND FREE ENERGY PREDICTED BY IDOCK:    0.01 KCAL/MOL
REMARK 927      BINDING AFFINITY PREDICTED BY RF-SCORE:    0.00 PKD
ROOT
HETATM    1  F   UNL     1     -13.009  13.680  63.195  1.00  0.00    -0.032 F  
HETATM    2  C   UNL     1     -12.427  13.086  64.245  1.00  0.00    -0.315 A  
HETATM    3  C   UNL     1     -12.751  13.488  65.532  1.00  0.00    -0.493 A  
HETATM    4  C   UNL     1     -12.129  12.877  66.627  1.00  0.00    -0.360 A  
HETATM    5  C   UNL     1     -11.175  11.854  66.444  1.00  0.00    -0.387 A  
HETATM    6  C   UNL     1     -10.452  11.253  67.663  1.00  0.00    -0.225 C  
HETATM    7  C   UNL     1     -10.873  11.474  65.125  1.00  0.00    -0.326 A  
HETATM    8  C   UNL     1     -10.747   9.743  67.922  1.00  0.00    -0.312 C  
HETATM    9  C   UNL     1     -11.494  12.084  64.032  1.00  0.00    -0.484 A  
HETATM   10  C   UNL     1      -8.994  11.687  67.874  1.00  0.00    -0.170 A  
HETATM   11  C   UNL     1      -8.305  12.519  66.976  1.00  0.00    -0.144 A  
HETATM   12  F   UNL     1      -5.164  13.050  68.719  1.00  0.00    -0.065 F  
HETATM   13  C   UNL     1      -8.341  11.337  69.071  1.00  0.00    -0.014 A  
HETATM   14  C   UNL     1      -7.008  12.967  67.254  1.00  0.00    -0.067 A  
HETATM   15  C   UNL     1      -6.393  12.597  68.444  1.00  0.00    -0.069 A  
HETATM   16  C   UNL     1      -7.046  11.783  69.356  1.00  0.00     0.025 A  
ENDROOT
BRANCH   8  17
HETATM   17  C   UNL     1     -10.445   8.677  66.861  1.00  0.00    -0.329 C  
BRANCH  17  18
HETATM   18  C   UNL     1     -10.739   7.207  67.182  1.00  0.00    -0.352 C  
BRANCH  18  19
HETATM   19  N   UNL     1     -10.000   6.574  68.276  1.00  0.00    -0.138 NA 
HETATM   20  C   UNL     1      -9.843   3.979  68.206  1.00  0.00    -0.056 C  
HETATM   21  C   UNL     1     -10.484   5.273  68.764  1.00  0.00    -0.095 C  
HETATM   22  C   UNL     1      -8.353   4.080  67.812  1.00  0.00    -0.094 C  
HETATM   23  C   UNL     1      -8.184   5.400  67.061  1.00  0.00    -0.104 C  
HETATM   24  C   UNL     1      -8.563   6.551  67.984  1.00  0.00    -0.118 C  
BRANCH  22  25
HETATM   25  N   UNL     1      -7.358   3.914  68.881  1.00  0.00    -0.054 N  
HETATM   26  C   UNL     1      -5.976   4.224  68.845  1.00  0.00    -0.023 C  
HETATM   27  O   UNL     1      -5.322   4.727  67.949  1.00  0.00    -0.010 OA 
HETATM   28  N   UNL     1      -5.441   3.840  70.084  1.00  0.00    -0.012 NA 
HETATM   29  C   UNL     1      -6.441   3.291  70.866  1.00  0.00    -0.027 A  
HETATM   30  C   UNL     1      -6.345   2.758  72.138  1.00  0.00    -0.014 A  
HETATM   31  C   UNL     1      -7.506   2.220  72.685  1.00  0.00    -0.039 A  
HETATM   32  C   UNL     1      -8.717   2.235  71.967  1.00  0.00    -0.097 A  
HETATM   33  C   UNL     1      -8.792   2.811  70.690  1.00  0.00    -0.144 A  
HETATM   34  C   UNL     1      -7.631   3.325  70.144  1.00  0.00    -0.044 A  
ENDBRANCH  22  25
ENDBRANCH  18  19
ENDBRANCH  17  18
ENDBRANCH   8  17
TORSDOF 4
ENDMDL
MODEL      237
REMARK 921   NORMALIZED FREE ENERGY PREDICTED BY IDOCK:   -3.56 KCAL/MOL
REMARK 922        TOTAL FREE ENERGY PREDICTED BY IDOCK:   -5.18 KCAL/MOL
REMARK 923 INTER-LIGAND FREE ENERGY PREDICTED BY IDOCK:   -4.60 KCAL/MOL
REMARK 924 INTRA-LIGAND FREE ENERGY PREDICTED BY IDOCK:   -0.58 KCAL/MOL
REMARK 927      BINDING AFFINITY PREDICTED BY RF-SCORE:    0.00 PKD
ROOT
HETATM    1  F   UNL     1      -7.416   1.474  70.832  1.00  0.00    -0.032 F  
HETATM    2  C   UNL     1      -7.865   2.221  69.815  1.00  0.00    -0.042 A  
HETATM    3  C   UNL     1      -8.148   1.625  68.594  1.00  0.00    -0.060 A  
HETATM    4  C   UNL     1      -8.600   2.411  67.527  1.00  0.00    -0.122 A  
HETATM    5  C   UNL     1      -8.776   3.802  67.672  1.00  0.00    -0.121 A  
HETATM    6  C   UNL     1      -9.203   4.651  66.461  1.00  0.00    -0.132 C  
HETATM    7  C   UNL     1      -8.480   4.369  68.924  1.00  0.00    -0.095 A  
HETATM    8  C   UNL     1     -10.600   5.333  66.597  1.00  0.00    -0.334 C  
HETATM    9  C   UNL     1      -8.028   3.586  69.989  1.00  0.00    -0.052 A  
HETATM   10  C   UNL     1      -8.109   5.511  65.810  1.00  0.00    -0.112 A  
HETATM   11  C   UNL     1      -6.803   5.602  66.320  1.00  0.00    -0.059 A  
HETATM   12  F   UNL     1      -5.156   7.608  63.780  1.00  0.00    -0.031 F  
HETATM   13  C   UNL     1      -8.378   6.152  64.586  1.00  0.00    -0.044 A  
HETATM   14  C   UNL     1      -5.811   6.321  65.642  1.00  0.00    -0.025 A  
HETATM   15  C   UNL     1      -6.115   6.945  64.439  1.00  0.00    -0.036 A  
HETATM   16  C   UNL     1      -7.390   6.869  63.904  1.00  0.00    -0.080 A  
ENDROOT
BRANCH   8  17
HETATM   17  C   UNL     1     -10.905   6.305  67.744  1.00  0.00    -0.424 C  
BRANCH  17  18
HETATM   18  C   UNL     1     -10.967   7.807  67.446  1.00  0.00     0.010 C  
BRANCH  18  19
HETATM   19  N   UNL     1      -9.722   8.502  67.113  1.00  0.00    -0.175 NA 
HETATM   20  C   UNL     1      -9.950  10.614  65.613  1.00  0.00    -0.327 C  
HETATM   21  C   UNL     1      -9.617   9.111  65.778  1.00  0.00    -0.253 C  
HETATM   22  C   UNL     1      -9.639  11.512  66.830  1.00  0.00    -0.186 C  
HETATM   23  C   UNL     1     -10.117  10.757  68.070  1.00  0.00    -0.198 C  
HETATM   24  C   UNL     1      -9.355   9.442  68.177  1.00  0.00    -0.133 C  
BRANCH  22  25
HETATM   25  N   UNL     1      -8.261  12.005  66.973  1.00  0.00    -0.172 N  
HETATM   26  C   UNL     1      -7.064  11.400  66.519  1.00  0.00    -0.058 C  
HETATM   27  O   UNL     1      -6.913  10.371  65.883  1.00  0.00    -0.119 OA 
HETATM   28  N   UNL     1      -6.008  12.223  66.940  1.00  0.00    -0.260 NA 
HETATM   29  C   UNL     1      -6.516  13.296  67.647  1.00  0.00    -0.162 A  
HETATM   30  C   UNL     1      -5.828  14.325  68.263  1.00  0.00    -0.117 A  
HETATM   31  C   UNL     1      -6.585  15.262  68.959  1.00  0.00    -0.118 A  
HETATM   32  C   UNL     1      -7.988  15.159  69.015  1.00  0.00    -0.188 A  
HETATM   33  C   UNL     1      -8.663  14.121  68.354  1.00  0.00    -0.178 A  
HETATM   34  C   UNL     1      -7.903  13.182  67.682  1.00  0.00    -0.169 A  
ENDBRANCH  22  25
ENDBRANCH  18  19
ENDBRANCH  17  18
ENDBRANCH   8  17
TORSDOF 4
ENDMDL
MODEL      238
REMARK 921   NORMALIZED FREE ENERGY PREDICTED BY IDOCK:   -3.55 KCAL/MOL
REMARK 922        TOTAL FREE ENERGY PREDICTED BY IDOCK:   -5.17 KCAL/MOL
REMARK 923 INTER-LIGAND FREE ENERGY PREDICTED BY IDOCK:   -5.93 KCAL/MOL
REMARK 924 INTRA-LIGAND FREE ENERGY PREDICTED BY IDOCK:    0.76 KCAL/MOL
REMARK 927      BINDING AFFINITY PREDICTED BY RF-SCORE:    0.00 PKD
ROOT
HETATM    1  F   UNL     1      -7.713   3.884  74.382  1.00  0.00    -0.072 F  
HETATM    2  C   UNL     1      -7.992   4.348  73.157  1.00  0.00    -0.095 A  
HETATM    3  C   UNL     1      -7.635   3.606  72.041  1.00  0.00    -0.058 A  
HETATM    4  C   UNL     1      -7.912   4.101  70.761  1.00  0.00    -0.056 A  
HETATM    5  C   UNL     1      -8.555   5.344  70.585  1.00  0.00    -0.130 A  
HETATM    6  C   UNL     1      -8.780   5.897  69.166  1.00  0.00    -0.118 C  
HETATM    7  C   UNL     1      -8.902   6.066  71.740  1.00  0.00    -0.138 A  
HETATM    8  C   UNL     1     -10.276   6.042  68.749  1.00  0.00    -0.236 C  
HETATM    9  C   UNL     1      -8.625   5.573  73.018  1.00  0.00    -0.121 A  
HETATM   10  C   UNL     1      -7.856   7.042  68.725  1.00  0.00    -0.118 A  
HETATM   11  C   UNL     1      -6.906   7.630  69.576  1.00  0.00    -0.044 A  
HETATM   12  F   UNL     1      -5.200   9.907  67.320  1.00  0.00    -0.037 F  
HETATM   13  C   UNL     1      -7.872   7.457  67.380  1.00  0.00    -0.111 A  
HETATM   14  C   UNL     1      -6.019   8.606  69.106  1.00  0.00    -0.042 A  
HETATM   15  C   UNL     1      -6.068   8.994  67.773  1.00  0.00    -0.051 A  
HETATM   16  C   UNL     1      -6.988   8.430  66.904  1.00  0.00    -0.074 A  
ENDROOT
BRANCH   8  17
HETATM   17  C   UNL     1     -11.247   6.919  69.550  1.00  0.00    -0.246 C  
BRANCH  17  18
HETATM   18  C   UNL     1     -10.692   7.811  70.666  1.00  0.00    -0.231 C  
BRANCH  18  19
HETATM   19  N   UNL     1     -10.297   9.180  70.331  1.00  0.00    -0.207 NA 
HETATM   20  C   UNL     1     -11.424  10.220  68.231  1.00  0.00    -0.149 C  
HETATM   21  C   UNL     1     -10.211   9.536  68.906  1.00  0.00    -0.199 C  
HETATM   22  C   UNL     1     -12.278  11.131  69.140  1.00  0.00    -0.175 C  
HETATM   23  C   UNL     1     -12.460  10.388  70.463  1.00  0.00    -0.403 C  
HETATM   24  C   UNL     1     -11.093  10.148  71.092  1.00  0.00    -0.074 C  
BRANCH  22  25
HETATM   25  N   UNL     1     -11.820  12.514  69.334  1.00  0.00    -0.316 N  
HETATM   26  C   UNL     1     -12.207  13.430  70.343  1.00  0.00    -0.345 C  
HETATM   27  O   UNL     1     -12.965  13.267  71.283  1.00  0.00    -0.328 OA 
HETATM   28  N   UNL     1     -11.538  14.634  70.076  1.00  0.00    -0.272 NA 
HETATM   29  C   UNL     1     -10.772  14.492  68.934  1.00  0.00    -0.254 A  
HETATM   30  C   UNL     1      -9.983  15.435  68.303  1.00  0.00    -0.214 A  
HETATM   31  C   UNL     1      -9.349  15.042  67.128  1.00  0.00    -0.225 A  
HETATM   32  C   UNL     1      -9.506  13.736  66.625  1.00  0.00    -0.289 A  
HETATM   33  C   UNL     1     -10.287  12.789  67.304  1.00  0.00    -0.235 A  
HETATM   34  C   UNL     1     -10.931  13.193  68.459  1.00  0.00    -0.263 A  
ENDBRANCH  22  25
ENDBRANCH  18  19
ENDBRANCH  17  18
ENDBRANCH   8  17
TORSDOF 4
ENDMDL
MODEL      239
REMARK 921   NORMALIZED FREE ENERGY PREDICTED BY IDOCK:   -3.52 KCAL/MOL
REMARK 922        TOTAL FREE ENERGY PREDICTED BY IDOCK:   -5.13 KCAL/MOL
REMARK 923 INTER-LIGAND FREE ENERGY PREDICTED BY IDOCK:   -4.94 KCAL/MOL
REMARK 924 INTRA-LIGAND FREE ENERGY PREDICTED BY IDOCK:   -0.19 KCAL/MOL
REMARK 927      BINDING AFFINITY PREDICTED BY RF-SCORE:    0.00 PKD
ROOT
HETATM    1  F   UNL     1      -9.724  16.115  69.376  1.00  0.00    -0.222 F  
HETATM    2  C   UNL     1     -10.023  14.859  69.019  1.00  0.00    -0.235 A  
HETATM    3  C   UNL     1     -11.278  14.341  69.305  1.00  0.00    -0.309 A  
HETATM    4  C   UNL     1     -11.582  13.022  68.946  1.00  0.00    -0.355 A  
HETATM    5  C   UNL     1     -10.633  12.208  68.294  1.00  0.00    -0.236 A  
HETATM    6  C   UNL     1     -10.970  10.740  67.979  1.00  0.00    -0.336 C  
HETATM    7  C   UNL     1      -9.373  12.769  68.021  1.00  0.00    -0.213 A  
HETATM    8  C   UNL     1     -11.032  10.392  66.459  1.00  0.00    -0.016 C  
HETATM    9  C   UNL     1      -9.069  14.085  68.379  1.00  0.00    -0.191 A  
HETATM   10  C   UNL     1     -10.307   9.680  68.873  1.00  0.00    -0.220 A  
HETATM   11  C   UNL     1      -9.377   9.999  69.875  1.00  0.00    -0.207 A  
HETATM   12  F   UNL     1      -8.833   6.764  71.434  1.00  0.00    -0.130 F  
HETATM   13  C   UNL     1     -10.724   8.340  68.771  1.00  0.00    -0.076 A  
HETATM   14  C   UNL     1      -8.869   9.012  70.730  1.00  0.00    -0.281 A  
HETATM   15  C   UNL     1      -9.300   7.699  70.596  1.00  0.00    -0.163 A  
HETATM   16  C   UNL     1     -10.222   7.351  69.623  1.00  0.00    -0.210 A  
ENDROOT
BRANCH   8  17
HETATM   17  C   UNL     1      -9.821  10.607  65.541  1.00  0.00    -0.316 C  
BRANCH  17  18
HETATM   18  C   UNL     1      -8.586   9.718  65.723  1.00  0.00    -0.135 C  
BRANCH  18  19
HETATM   19  N   UNL     1      -8.608   8.371  65.151  1.00  0.00    -0.163 NA 
HETATM   20  C   UNL     1      -6.294   7.304  64.631  1.00  0.00    -0.037 C  
HETATM   21  C   UNL     1      -7.575   8.034  64.159  1.00  0.00    -0.122 C  
HETATM   22  C   UNL     1      -6.465   6.348  65.831  1.00  0.00    -0.043 C  
HETATM   23  C   UNL     1      -7.351   7.068  66.847  1.00  0.00    -0.078 C  
HETATM   24  C   UNL     1      -8.704   7.361  66.210  1.00  0.00    -0.149 C  
BRANCH  22  25
HETATM   25  N   UNL     1      -6.936   4.984  65.548  1.00  0.00    -0.061 N  
HETATM   26  C   UNL     1      -7.776   4.166  66.342  1.00  0.00    -0.090 C  
HETATM   27  O   UNL     1      -8.320   4.420  67.402  1.00  0.00    -0.100 OA 
HETATM   28  N   UNL     1      -7.895   2.937  65.675  1.00  0.00    -0.084 NA 
HETATM   29  C   UNL     1      -7.145   2.970  64.514  1.00  0.00    -0.053 A  
HETATM   30  C   UNL     1      -6.958   1.967  63.581  1.00  0.00    -0.036 A  
HETATM   31  C   UNL     1      -6.105   2.247  62.517  1.00  0.00    -0.009 A  
HETATM   32  C   UNL     1      -5.479   3.503  62.405  1.00  0.00    -0.005 A  
HETATM   33  C   UNL     1      -5.713   4.514  63.350  1.00  0.00    -0.017 A  
HETATM   34  C   UNL     1      -6.544   4.222  64.415  1.00  0.00    -0.043 A  
ENDBRANCH  22  25
ENDBRANCH  18  19
ENDBRANCH  17  18
ENDBRANCH   8  17
TORSDOF 4
ENDMDL
MODEL      240
REMARK 921   NORMALIZED FREE ENERGY PREDICTED BY IDOCK:   -3.51 KCAL/MOL
REMARK 922        TOTAL FREE ENERGY PREDICTED BY IDOCK:   -5.12 KCAL/MOL
REMARK 923 INTER-LIGAND FREE ENERGY PREDICTED BY IDOCK:   -5.27 KCAL/MOL
REMARK 924 INTRA-LIGAND FREE ENERGY PREDICTED BY IDOCK:    0.16 KCAL/MOL
REMARK 927      BINDING AFFINITY PREDICTED BY RF-SCORE:    0.00 PKD
ROOT
HETATM    1  F   UNL     1     -11.437  14.113  68.477  1.00  0.00    -0.261 F  
HETATM    2  C   UNL     1     -10.317  13.472  68.120  1.00  0.00    -0.247 A  
HETATM    3  C   UNL     1      -9.338  14.142  67.401  1.00  0.00    -0.215 A  
HETATM    4  C   UNL     1      -8.175  13.465  67.014  1.00  0.00    -0.051 A  
HETATM    5  C   UNL     1      -7.979  12.109  67.347  1.00  0.00    -0.168 A  
HETATM    6  C   UNL     1      -6.725  11.370  66.844  1.00  0.00    -0.145 C  
HETATM    7  C   UNL     1      -8.993  11.464  68.076  1.00  0.00    -0.163 A  
HETATM    8  C   UNL     1      -5.753  10.890  67.965  1.00  0.00    -0.042 C  
HETATM    9  C   UNL     1     -10.153  12.139  68.462  1.00  0.00    -0.192 A  
HETATM   10  C   UNL     1      -6.932  10.386  65.682  1.00  0.00    -0.132 A  
HETATM   11  C   UNL     1      -8.196  10.093  65.144  1.00  0.00    -0.151 A  
HETATM   12  F   UNL     1      -7.327   7.959  62.337  1.00  0.00    -0.087 F  
HETATM   13  C   UNL     1      -5.807   9.831  65.045  1.00  0.00    -0.079 A  
HETATM   14  C   UNL     1      -8.330   9.263  64.024  1.00  0.00    -0.179 A  
HETATM   15  C   UNL     1      -7.196   8.730  63.424  1.00  0.00    -0.094 A  
HETATM   16  C   UNL     1      -5.934   9.004  63.925  1.00  0.00    -0.072 A  
ENDROOT
BRANCH   8  17
HETATM   17  C   UNL     1      -6.219   9.933  69.070  1.00  0.00    -0.040 C  
BRANCH  17  18
HETATM   18  C   UNL     1      -6.130   8.422  68.830  1.00  0.00    -0.044 C  
BRANCH  18  19
HETATM   19  N   UNL     1      -7.158   7.563  69.418  1.00  0.00    -0.071 NA 
HETATM   20  C   UNL     1      -7.143   7.360  72.010  1.00  0.00    -0.063 C  
HETATM   21  C   UNL     1      -6.797   6.787  70.614  1.00  0.00    -0.058 C  
HETATM   22  C   UNL     1      -8.416   8.231  72.087  1.00  0.00    -0.179 C  
HETATM   23  C   UNL     1      -8.393   9.153  70.868  1.00  0.00    -0.231 C  
HETATM   24  C   UNL     1      -8.409   8.306  69.601  1.00  0.00    -0.123 C  
BRANCH  22  25
HETATM   25  N   UNL     1      -9.703   7.537  72.238  1.00  0.00    -0.155 N  
HETATM   26  C   UNL     1     -11.007   8.083  72.153  1.00  0.00    -0.295 C  
HETATM   27  O   UNL     1     -11.349   9.225  71.900  1.00  0.00    -0.374 OA 
HETATM   28  N   UNL     1     -11.904   7.037  72.420  1.00  0.00    -0.222 NA 
HETATM   29  C   UNL     1     -11.195   5.880  72.682  1.00  0.00    -0.291 A  
HETATM   30  C   UNL     1     -11.681   4.631  73.021  1.00  0.00    -0.145 A  
HETATM   31  C   UNL     1     -10.741   3.639  73.283  1.00  0.00    -0.291 A  
HETATM   32  C   UNL     1      -9.362   3.909  73.193  1.00  0.00    -0.127 A  
HETATM   33  C   UNL     1      -8.897   5.178  72.815  1.00  0.00    -0.118 A  
HETATM   34  C   UNL     1      -9.836   6.164  72.576  1.00  0.00    -0.167 A  
ENDBRANCH  22  25
ENDBRANCH  18  19
ENDBRANCH  17  18
ENDBRANCH   8  17
TORSDOF 4
ENDMDL
MODEL      241
REMARK 921   NORMALIZED FREE ENERGY PREDICTED BY IDOCK:   -3.49 KCAL/MOL
REMARK 922        TOTAL FREE ENERGY PREDICTED BY IDOCK:   -5.09 KCAL/MOL
REMARK 923 INTER-LIGAND FREE ENERGY PREDICTED BY IDOCK:   -5.00 KCAL/MOL
REMARK 924 INTRA-LIGAND FREE ENERGY PREDICTED BY IDOCK:   -0.09 KCAL/MOL
REMARK 927      BINDING AFFINITY PREDICTED BY RF-SCORE:    0.00 PKD
ROOT
HETATM    1  F   UNL     1     -12.731  13.987  69.402  1.00  0.00    -0.312 F  
HETATM    2  C   UNL     1     -11.565  13.466  68.999  1.00  0.00    -0.312 A  
HETATM    3  C   UNL     1     -10.677  14.243  68.269  1.00  0.00    -0.253 A  
HETATM    4  C   UNL     1      -9.467  13.690  67.834  1.00  0.00    -0.213 A  
HETATM    5  C   UNL     1      -9.130  12.353  68.129  1.00  0.00    -0.200 A  
HETATM    6  C   UNL     1      -7.827  11.750  67.574  1.00  0.00    -0.148 C  
HETATM    7  C   UNL     1     -10.055  11.598  68.871  1.00  0.00    -0.109 A  
HETATM    8  C   UNL     1      -6.780  11.343  68.657  1.00  0.00    -0.070 C  
HETATM    9  C   UNL     1     -11.264  12.148  69.305  1.00  0.00    -0.288 A  
HETATM   10  C   UNL     1      -7.973  10.775  66.396  1.00  0.00    -0.151 A  
HETATM   11  C   UNL     1      -9.217  10.372  65.886  1.00  0.00    -0.205 A  
HETATM   12  F   UNL     1      -8.231   8.391  63.007  1.00  0.00    -0.159 F  
HETATM   13  C   UNL     1      -6.818  10.346  65.715  1.00  0.00    -0.132 A  
HETATM   14  C   UNL     1      -9.304   9.556  64.751  1.00  0.00    -0.235 A  
HETATM   15  C   UNL     1      -8.143   9.148  64.108  1.00  0.00    -0.149 A  
HETATM   16  C   UNL     1      -6.898   9.533  64.580  1.00  0.00    -0.099 A  
ENDROOT
BRANCH   8  17
HETATM   17  C   UNL     1      -7.118  10.323  69.752  1.00  0.00    -0.140 C  
BRANCH  17  18
HETATM   18  C   UNL     1      -5.984   9.751  70.609  1.00  0.00    -0.078 C  
BRANCH  18  19
HETATM   19  N   UNL     1      -6.153   8.416  71.185  1.00  0.00    -0.035 NA 
HETATM   20  C   UNL     1      -8.568   7.773  71.905  1.00  0.00    -0.143 C  
HETATM   21  C   UNL     1      -7.142   8.259  72.263  1.00  0.00    -0.095 C  
HETATM   22  C   UNL     1      -8.672   6.812  70.701  1.00  0.00    -0.143 C  
HETATM   23  C   UNL     1      -7.761   7.374  69.609  1.00  0.00    -0.107 C  
HETATM   24  C   UNL     1      -6.329   7.416  70.127  1.00  0.00    -0.034 C  
BRANCH  22  25
HETATM   25  N   UNL     1      -8.429   5.384  70.951  1.00  0.00    -0.117 N  
HETATM   26  C   UNL     1      -7.813   4.786  72.077  1.00  0.00    -0.100 C  
HETATM   27  O   UNL     1      -7.389   5.308  73.092  1.00  0.00    -0.088 OA 
HETATM   28  N   UNL     1      -7.765   3.405  71.827  1.00  0.00    -0.053 NA 
HETATM   29  C   UNL     1      -8.312   3.143  70.585  1.00  0.00    -0.056 A  
HETATM   30  C   UNL     1      -8.435   1.929  69.937  1.00  0.00    -0.083 A  
HETATM   31  C   UNL     1      -8.984   1.949  68.659  1.00  0.00    -0.162 A  
HETATM   32  C   UNL     1      -9.400   3.159  68.070  1.00  0.00    -0.248 A  
HETATM   33  C   UNL     1      -9.292   4.374  68.764  1.00  0.00    -0.213 A  
HETATM   34  C   UNL     1      -8.727   4.349  70.025  1.00  0.00    -0.073 A  
ENDBRANCH  22  25
ENDBRANCH  18  19
ENDBRANCH  17  18
ENDBRANCH   8  17
TORSDOF 4
ENDMDL
MODEL      242
REMARK 921   NORMALIZED FREE ENERGY PREDICTED BY IDOCK:   -3.49 KCAL/MOL
REMARK 922        TOTAL FREE ENERGY PREDICTED BY IDOCK:   -5.09 KCAL/MOL
REMARK 923 INTER-LIGAND FREE ENERGY PREDICTED BY IDOCK:   -4.62 KCAL/MOL
REMARK 924 INTRA-LIGAND FREE ENERGY PREDICTED BY IDOCK:   -0.47 KCAL/MOL
REMARK 927      BINDING AFFINITY PREDICTED BY RF-SCORE:    0.00 PKD
ROOT
HETATM    1  F   UNL     1     -11.072  10.926  66.460  1.00  0.00    -0.310 F  
HETATM    2  C   UNL     1      -9.960  10.180  66.477  1.00  0.00    -0.224 A  
HETATM    3  C   UNL     1      -9.216  10.022  65.316  1.00  0.00    -0.268 A  
HETATM    4  C   UNL     1      -8.064   9.228  65.333  1.00  0.00    -0.122 A  
HETATM    5  C   UNL     1      -7.642   8.583  66.514  1.00  0.00    -0.088 A  
HETATM    6  C   UNL     1      -6.413   7.656  66.483  1.00  0.00    -0.049 C  
HETATM    7  C   UNL     1      -8.421   8.767  67.669  1.00  0.00    -0.125 A  
HETATM    8  C   UNL     1      -5.205   8.140  67.344  1.00  0.00    -0.033 C  
HETATM    9  C   UNL     1      -9.571   9.560  67.654  1.00  0.00    -0.163 A  
HETATM   10  C   UNL     1      -6.696   6.147  66.530  1.00  0.00    -0.060 A  
HETATM   11  C   UNL     1      -7.987   5.614  66.676  1.00  0.00    -0.101 A  
HETATM   12  F   UNL     1      -7.364   2.055  66.316  1.00  0.00    -0.055 F  
HETATM   13  C   UNL     1      -5.639   5.244  66.305  1.00  0.00    -0.017 A  
HETATM   14  C   UNL     1      -8.211   4.233  66.618  1.00  0.00    -0.102 A  
HETATM   15  C   UNL     1      -7.142   3.372  66.399  1.00  0.00    -0.062 A  
HETATM   16  C   UNL     1      -5.857   3.864  66.244  1.00  0.00    -0.023 A  
ENDROOT
BRANCH   8  17
HETATM   17  C   UNL     1      -5.344   8.375  68.854  1.00  0.00    -0.032 C  
BRANCH  17  18
HETATM   18  C   UNL     1      -5.409   7.163  69.790  1.00  0.00    -0.015 C  
BRANCH  18  19
HETATM   19  N   UNL     1      -6.695   6.486  69.963  1.00  0.00    -0.048 NA 
HETATM   20  C   UNL     1      -7.132   5.423  72.295  1.00  0.00    -0.086 C  
HETATM   21  C   UNL     1      -6.726   5.283  70.808  1.00  0.00    -0.043 C  
HETATM   22  C   UNL     1      -8.147   6.541  72.616  1.00  0.00    -0.103 C  
HETATM   23  C   UNL     1      -7.710   7.774  71.825  1.00  0.00    -0.095 C  
HETATM   24  C   UNL     1      -7.738   7.448  70.337  1.00  0.00    -0.093 C  
BRANCH  22  25
HETATM   25  N   UNL     1      -9.573   6.235  72.429  1.00  0.00    -0.151 N  
HETATM   26  C   UNL     1     -10.183   4.964  72.288  1.00  0.00    -0.196 C  
HETATM   27  O   UNL     1      -9.677   3.857  72.329  1.00  0.00    -0.138 OA 
HETATM   28  N   UNL     1     -11.553   5.193  72.082  1.00  0.00     0.135 NA 
HETATM   29  C   UNL     1     -11.796   6.553  72.075  1.00  0.00    -0.329 A  
HETATM   30  C   UNL     1     -12.994   7.213  71.874  1.00  0.00    -0.285 A  
HETATM   31  C   UNL     1     -12.954   8.604  71.867  1.00  0.00    -0.409 A  
HETATM   32  C   UNL     1     -11.742   9.293  72.067  1.00  0.00    -0.336 A  
HETATM   33  C   UNL     1     -10.546   8.597  72.301  1.00  0.00    -0.375 A  
HETATM   34  C   UNL     1     -10.590   7.216  72.286  1.00  0.00    -0.215 A  
ENDBRANCH  22  25
ENDBRANCH  18  19
ENDBRANCH  17  18
ENDBRANCH   8  17
TORSDOF 4
ENDMDL
MODEL      243
REMARK 921   NORMALIZED FREE ENERGY PREDICTED BY IDOCK:   -3.45 KCAL/MOL
REMARK 922        TOTAL FREE ENERGY PREDICTED BY IDOCK:   -5.05 KCAL/MOL
REMARK 923 INTER-LIGAND FREE ENERGY PREDICTED BY IDOCK:   -4.45 KCAL/MOL
REMARK 924 INTRA-LIGAND FREE ENERGY PREDICTED BY IDOCK:   -0.60 KCAL/MOL
REMARK 927      BINDING AFFINITY PREDICTED BY RF-SCORE:    0.00 PKD
ROOT
HETATM    1  F   UNL     1     -13.547   8.262  72.656  1.00  0.00    -0.226 F  
HETATM    2  C   UNL     1     -12.926   8.838  71.619  1.00  0.00    -0.349 A  
HETATM    3  C   UNL     1     -12.778   8.140  70.429  1.00  0.00     0.775 A  
HETATM    4  C   UNL     1     -12.113   8.738  69.352  1.00  0.00     1.598 A  
HETATM    5  C   UNL     1     -11.591  10.044  69.454  1.00  0.00    -0.084 A  
HETATM    6  C   UNL     1     -10.800  10.647  68.279  1.00  0.00    -0.287 C  
HETATM    7  C   UNL     1     -11.760  10.719  70.675  1.00  0.00    -0.442 A  
HETATM    8  C   UNL     1     -11.461  11.894  67.614  1.00  0.00    -0.387 C  
HETATM    9  C   UNL     1     -12.424  10.123  71.751  1.00  0.00    -0.455 A  
HETATM   10  C   UNL     1      -9.274  10.719  68.449  1.00  0.00    -0.164 A  
HETATM   11  C   UNL     1      -8.617  10.341  69.631  1.00  0.00    -0.126 A  
HETATM   12  F   UNL     1      -5.129  10.654  68.671  1.00  0.00    -0.042 F  
HETATM   13  C   UNL     1      -8.478  11.070  67.343  1.00  0.00    -0.132 A  
HETATM   14  C   UNL     1      -7.219  10.333  69.710  1.00  0.00    -0.147 A  
HETATM   15  C   UNL     1      -6.466  10.690  68.599  1.00  0.00    -0.051 A  
HETATM   16  C   UNL     1      -7.081  11.061  67.415  1.00  0.00    -0.095 A  
ENDROOT
BRANCH   8  17
HETATM   17  C   UNL     1     -11.772  13.160  68.424  1.00  0.00    -0.386 C  
BRANCH  17  18
HETATM   18  C   UNL     1     -11.541  14.529  67.776  1.00  0.00    -0.365 C  
BRANCH  18  19
HETATM   19  N   UNL     1     -10.525  15.410  68.356  1.00  0.00    -0.235 NA 
HETATM   20  C   UNL     1      -8.085  15.051  67.533  1.00  0.00    -0.200 C  
HETATM   21  C   UNL     1      -9.189  14.845  68.599  1.00  0.00    -0.193 C  
HETATM   22  C   UNL     1      -8.164  16.362  66.723  1.00  0.00    -0.251 C  
HETATM   23  C   UNL     1      -9.632  16.562  66.348  1.00  0.00    -0.309 C  
HETATM   24  C   UNL     1     -10.461  16.678  67.622  1.00  0.00    -0.320 C  
BRANCH  22  25
HETATM   25  N   UNL     1      -7.573  17.567  67.325  1.00  0.00    -0.193 N  
HETATM   26  C   UNL     1      -7.333  17.831  68.696  1.00  0.00    -0.269 C  
HETATM   27  O   UNL     1      -7.521  17.116  69.664  1.00  0.00     0.097 OA 
HETATM   28  N   UNL     1      -6.806  19.130  68.772  1.00  0.00    -0.293 NA 
HETATM   29  C   UNL     1      -6.735  19.672  67.503  1.00  0.00    -0.214 A  
HETATM   30  C   UNL     1      -6.308  20.932  67.127  1.00  0.00    -0.371 A  
HETATM   31  C   UNL     1      -6.384  21.246  65.774  1.00  0.00    -0.073 A  
HETATM   32  C   UNL     1      -6.866  20.308  64.841  1.00  0.00    -0.231 A  
HETATM   33  C   UNL     1      -7.262  19.024  65.246  1.00  0.00     0.186 A  
HETATM   34  C   UNL     1      -7.204  18.727  66.594  1.00  0.00    -0.217 A  
ENDBRANCH  22  25
ENDBRANCH  18  19
ENDBRANCH  17  18
ENDBRANCH   8  17
TORSDOF 4
ENDMDL
MODEL      244
REMARK 921   NORMALIZED FREE ENERGY PREDICTED BY IDOCK:   -3.44 KCAL/MOL
REMARK 922        TOTAL FREE ENERGY PREDICTED BY IDOCK:   -5.03 KCAL/MOL
REMARK 923 INTER-LIGAND FREE ENERGY PREDICTED BY IDOCK:   -5.31 KCAL/MOL
REMARK 924 INTRA-LIGAND FREE ENERGY PREDICTED BY IDOCK:    0.28 KCAL/MOL
REMARK 927      BINDING AFFINITY PREDICTED BY RF-SCORE:    0.00 PKD
ROOT
HETATM    1  F   UNL     1     -13.761   7.554  72.112  1.00  0.00    -0.297 F  
HETATM    2  C   UNL     1     -12.801   7.673  71.185  1.00  0.00    -0.185 A  
HETATM    3  C   UNL     1     -11.913   6.629  70.974  1.00  0.00    -0.415 A  
HETATM    4  C   UNL     1     -10.900   6.763  70.017  1.00  0.00    -0.311 A  
HETATM    5  C   UNL     1     -10.767   7.945  69.258  1.00  0.00    -0.145 A  
HETATM    6  C   UNL     1      -9.599   8.093  68.267  1.00  0.00    -0.154 C  
HETATM    7  C   UNL     1     -11.687   8.980  69.501  1.00  0.00     0.584 A  
HETATM    8  C   UNL     1     -10.020   8.207  66.769  1.00  0.00    -0.349 C  
HETATM    9  C   UNL     1     -12.698   8.847  70.456  1.00  0.00     0.466 A  
HETATM   10  C   UNL     1      -8.447   9.011  68.701  1.00  0.00    -0.128 A  
HETATM   11  C   UNL     1      -8.468   9.753  69.894  1.00  0.00    -0.217 A  
HETATM   12  F   UNL     1      -5.138  11.203  69.921  1.00  0.00    -0.044 F  
HETATM   13  C   UNL     1      -7.264   9.034  67.939  1.00  0.00    -0.080 A  
HETATM   14  C   UNL     1      -7.357  10.504  70.298  1.00  0.00     0.190 A  
HETATM   15  C   UNL     1      -6.208  10.506  69.517  1.00  0.00    -0.054 A  
HETATM   16  C   UNL     1      -6.150   9.780  68.339  1.00  0.00    -0.046 A  
ENDROOT
BRANCH   8  17
HETATM   17  C   UNL     1     -10.946   9.330  66.284  1.00  0.00     0.812 C  
BRANCH  17  18
HETATM   18  C   UNL     1     -10.983  10.649  67.064  1.00  0.00    -0.208 C  
BRANCH  18  19
HETATM   19  N   UNL     1     -10.937  11.904  66.310  1.00  0.00    -0.290 NA 
HETATM   20  C   UNL     1     -12.761  13.663  66.893  1.00  0.00     0.249 C  
HETATM   21  C   UNL     1     -12.217  12.544  65.972  1.00  0.00    -0.190 C  
HETATM   22  C   UNL     1     -11.699  14.531  67.601  1.00  0.00    -0.382 C  
HETATM   23  C   UNL     1     -10.620  13.577  68.114  1.00  0.00    -0.253 C  
HETATM   24  C   UNL     1      -9.999  12.844  66.931  1.00  0.00    -0.238 C  
BRANCH  22  25
HETATM   25  N   UNL     1     -11.134  15.659  66.846  1.00  0.00    -0.242 N  
HETATM   26  C   UNL     1     -10.909  15.752  65.451  1.00  0.00    -0.364 C  
HETATM   27  O   UNL     1     -11.166  14.947  64.573  1.00  0.00    -0.341 OA 
HETATM   28  N   UNL     1     -10.306  16.998  65.219  1.00  0.00    -0.634 NA 
HETATM   29  C   UNL     1     -10.140  17.659  66.422  1.00  0.00    -0.356 A  
HETATM   30  C   UNL     1      -9.563  18.893  66.654  1.00  0.00    -0.364 A  
HETATM   31  C   UNL     1      -9.475  19.309  67.979  1.00  0.00    -0.400 A  
HETATM   32  C   UNL     1      -9.967  18.503  69.023  1.00  0.00    -0.323 A  
HETATM   33  C   UNL     1     -10.577  17.268  68.756  1.00  0.00    -0.305 A  
HETATM   34  C   UNL     1     -10.642  16.852  67.439  1.00  0.00    -0.294 A  
ENDBRANCH  22  25
ENDBRANCH  18  19
ENDBRANCH  17  18
ENDBRANCH   8  17
TORSDOF 4
ENDMDL
MODEL      245
REMARK 921   NORMALIZED FREE ENERGY PREDICTED BY IDOCK:   -3.41 KCAL/MOL
REMARK 922        TOTAL FREE ENERGY PREDICTED BY IDOCK:   -5.00 KCAL/MOL
REMARK 923 INTER-LIGAND FREE ENERGY PREDICTED BY IDOCK:   -5.19 KCAL/MOL
REMARK 924 INTRA-LIGAND FREE ENERGY PREDICTED BY IDOCK:    0.19 KCAL/MOL
REMARK 927      BINDING AFFINITY PREDICTED BY RF-SCORE:    0.00 PKD
ROOT
HETATM    1  F   UNL     1     -12.136  11.388  71.397  1.00  0.00    -0.351 F  
HETATM    2  C   UNL     1     -11.550  10.529  70.554  1.00  0.00    -0.350 A  
HETATM    3  C   UNL     1     -12.268  10.012  69.485  1.00  0.00     0.272 A  
HETATM    4  C   UNL     1     -11.658   9.101  68.615  1.00  0.00     0.878 A  
HETATM    5  C   UNL     1     -10.320   8.698  68.805  1.00  0.00    -0.228 A  
HETATM    6  C   UNL     1      -9.699   7.638  67.876  1.00  0.00    -0.174 C  
HETATM    7  C   UNL     1      -9.625   9.243  69.898  1.00  0.00    -0.217 A  
HETATM    8  C   UNL     1      -8.514   8.148  67.000  1.00  0.00    -0.120 C  
HETATM    9  C   UNL     1     -10.233  10.153  70.767  1.00  0.00     0.220 A  
HETATM   10  C   UNL     1      -9.528   6.230  68.467  1.00  0.00    -0.123 A  
HETATM   11  C   UNL     1      -9.833   5.917  69.801  1.00  0.00    -0.217 A  
HETATM   12  F   UNL     1      -9.329   2.322  69.853  1.00  0.00    -0.159 F  
HETATM   13  C   UNL     1      -9.157   5.171  67.617  1.00  0.00    -0.117 A  
HETATM   14  C   UNL     1      -9.752   4.601  70.273  1.00  0.00    -0.295 A  
HETATM   15  C   UNL     1      -9.378   3.583  69.405  1.00  0.00    -0.173 A  
HETATM   16  C   UNL     1      -9.076   3.855  68.081  1.00  0.00    -0.187 A  
ENDROOT
BRANCH   8  17
HETATM   17  C   UNL     1      -7.249   8.742  67.634  1.00  0.00    -0.080 C  
BRANCH  17  18
HETATM   18  C   UNL     1      -6.361   9.664  66.792  1.00  0.00    -0.066 C  
BRANCH  18  19
HETATM   19  N   UNL     1      -6.984  10.804  66.117  1.00  0.00    -0.133 NA 
HETATM   20  C   UNL     1      -9.584  10.869  66.134  1.00  0.00    -0.239 C  
HETATM   21  C   UNL     1      -8.250  10.568  65.407  1.00  0.00    -0.152 C  
HETATM   22  C   UNL     1      -9.549  12.025  67.157  1.00  0.00    -0.192 C  
HETATM   23  C   UNL     1      -8.260  11.862  67.963  1.00  0.00    -0.157 C  
HETATM   24  C   UNL     1      -7.067  11.956  67.020  1.00  0.00    -0.116 C  
BRANCH  22  25
HETATM   25  N   UNL     1      -9.715  13.391  66.640  1.00  0.00    -0.268 N  
HETATM   26  C   UNL     1     -10.119  13.793  65.344  1.00  0.00    -0.286 C  
HETATM   27  O   UNL     1     -10.452  13.108  64.393  1.00  0.00    -0.393 OA 
HETATM   28  N   UNL     1     -10.076  15.196  65.322  1.00  0.00    -0.347 NA 
HETATM   29  C   UNL     1      -9.644  15.662  66.549  1.00  0.00    -0.270 A  
HETATM   30  C   UNL     1      -9.429  16.968  66.948  1.00  0.00    -0.266 A  
HETATM   31  C   UNL     1      -8.940  17.162  68.236  1.00  0.00    -0.248 A  
HETATM   32  C   UNL     1      -8.691  16.067  69.086  1.00  0.00    -0.248 A  
HETATM   33  C   UNL     1      -8.948  14.753  68.666  1.00  0.00    -0.185 A  
HETATM   34  C   UNL     1      -9.414  14.567  67.378  1.00  0.00    -0.202 A  
ENDBRANCH  22  25
ENDBRANCH  18  19
ENDBRANCH  17  18
ENDBRANCH   8  17
TORSDOF 4
ENDMDL
MODEL      246
REMARK 921   NORMALIZED FREE ENERGY PREDICTED BY IDOCK:   -3.39 KCAL/MOL
REMARK 922        TOTAL FREE ENERGY PREDICTED BY IDOCK:   -4.97 KCAL/MOL
REMARK 923 INTER-LIGAND FREE ENERGY PREDICTED BY IDOCK:   -4.54 KCAL/MOL
REMARK 924 INTRA-LIGAND FREE ENERGY PREDICTED BY IDOCK:   -0.44 KCAL/MOL
REMARK 927      BINDING AFFINITY PREDICTED BY RF-SCORE:    0.00 PKD
ROOT
HETATM    1  F   UNL     1     -11.471  16.472  71.686  1.00  0.00    -0.450 F  
HETATM    2  C   UNL     1     -11.538  15.489  70.778  1.00  0.00    -0.367 A  
HETATM    3  C   UNL     1     -12.723  14.790  70.605  1.00  0.00    -0.415 A  
HETATM    4  C   UNL     1     -12.785  13.752  69.667  1.00  0.00     0.180 A  
HETATM    5  C   UNL     1     -11.660  13.404  68.891  1.00  0.00    -0.356 A  
HETATM    6  C   UNL     1     -11.737  12.210  67.923  1.00  0.00    -0.403 C  
HETATM    7  C   UNL     1     -10.478  14.136  69.095  1.00  0.00    -0.143 A  
HETATM    8  C   UNL     1     -11.583  12.578  66.414  1.00  0.00    -0.449 C  
HETATM    9  C   UNL     1     -10.415  15.172  70.031  1.00  0.00    -0.207 A  
HETATM   10  C   UNL     1     -11.020  10.925  68.366  1.00  0.00    -0.288 A  
HETATM   11  C   UNL     1     -10.260  10.840  69.544  1.00  0.00    -0.146 A  
HETATM   12  F   UNL     1      -9.404   7.312  69.618  1.00  0.00    -0.152 F  
HETATM   13  C   UNL     1     -11.217   9.742  67.629  1.00  0.00     0.027 A  
HETATM   14  C   UNL     1      -9.703   9.624  69.959  1.00  0.00    -0.280 A  
HETATM   15  C   UNL     1      -9.914   8.478  69.203  1.00  0.00    -0.192 A  
HETATM   16  C   UNL     1     -10.665   8.524  68.039  1.00  0.00    -0.122 A  
ENDROOT
BRANCH   8  17
HETATM   17  C   UNL     1     -10.329  13.287  65.889  1.00  0.00    -0.293 C  
BRANCH  17  18
HETATM   18  C   UNL     1      -9.215  12.449  65.253  1.00  0.00     0.374 C  
BRANCH  18  19
HETATM   19  N   UNL     1      -8.635  11.355  66.035  1.00  0.00    -0.140 NA 
HETATM   20  C   UNL     1      -6.173  10.725  65.482  1.00  0.00    -0.044 C  
HETATM   21  C   UNL     1      -7.692  10.454  65.354  1.00  0.00    -0.136 C  
HETATM   22  C   UNL     1      -5.711  11.365  66.809  1.00  0.00    -0.131 C  
HETATM   23  C   UNL     1      -6.713  12.471  67.138  1.00  0.00    -0.060 C  
HETATM   24  C   UNL     1      -8.098  11.856  67.304  1.00  0.00    -0.171 C  
BRANCH  22  25
HETATM   25  N   UNL     1      -5.477  10.467  67.949  1.00  0.00    -0.041 N  
HETATM   26  C   UNL     1      -5.345   9.057  67.938  1.00  0.00    -0.035 C  
HETATM   27  O   UNL     1      -5.357   8.288  66.993  1.00  0.00    -0.034 OA 
HETATM   28  N   UNL     1      -5.187   8.654  69.273  1.00  0.00    -0.034 NA 
HETATM   29  C   UNL     1      -5.235   9.763  70.097  1.00  0.00    -0.036 A  
HETATM   30  C   UNL     1      -5.152   9.816  71.475  1.00  0.00    -0.071 A  
HETATM   31  C   UNL     1      -5.279  11.069  72.067  1.00  0.00     0.211 A  
HETATM   32  C   UNL     1      -5.472  12.222  71.282  1.00  0.00     0.005 A  
HETATM   33  C   UNL     1      -5.520  12.142  69.882  1.00  0.00    -0.100 A  
HETATM   34  C   UNL     1      -5.414  10.892  69.302  1.00  0.00    -0.040 A  
ENDBRANCH  22  25
ENDBRANCH  18  19
ENDBRANCH  17  18
ENDBRANCH   8  17
TORSDOF 4
ENDMDL
MODEL      247
REMARK 921   NORMALIZED FREE ENERGY PREDICTED BY IDOCK:   -3.38 KCAL/MOL
REMARK 922        TOTAL FREE ENERGY PREDICTED BY IDOCK:   -4.96 KCAL/MOL
REMARK 923 INTER-LIGAND FREE ENERGY PREDICTED BY IDOCK:   -4.78 KCAL/MOL
REMARK 924 INTRA-LIGAND FREE ENERGY PREDICTED BY IDOCK:   -0.18 KCAL/MOL
REMARK 927      BINDING AFFINITY PREDICTED BY RF-SCORE:    0.00 PKD
ROOT
HETATM    1  F   UNL     1     -13.451  15.853  72.574  1.00  0.00    -0.492 F  
HETATM    2  C   UNL     1     -12.753  15.435  71.510  1.00  0.00    -0.411 A  
HETATM    3  C   UNL     1     -13.288  15.573  70.237  1.00  0.00     0.216 A  
HETATM    4  C   UNL     1     -12.564  15.119  69.128  1.00  0.00     0.167 A  
HETATM    5  C   UNL     1     -11.295  14.524  69.281  1.00  0.00    -0.317 A  
HETATM    6  C   UNL     1     -10.555  13.968  68.051  1.00  0.00    -0.250 C  
HETATM    7  C   UNL     1     -10.787  14.402  70.586  1.00  0.00     0.461 A  
HETATM    8  C   UNL     1      -9.217  14.692  67.707  1.00  0.00    -0.196 C  
HETATM    9  C   UNL     1     -11.509  14.855  71.694  1.00  0.00    -0.288 A  
HETATM   10  C   UNL     1     -10.538  12.439  67.899  1.00  0.00    -0.231 A  
HETATM   11  C   UNL     1     -11.085  11.568  68.856  1.00  0.00    -0.288 A  
HETATM   12  F   UNL     1     -10.717   8.347  67.222  1.00  0.00    -0.345 F  
HETATM   13  C   UNL     1     -10.058  11.874  66.703  1.00  0.00    -0.225 A  
HETATM   14  C   UNL     1     -11.132  10.187  68.634  1.00  0.00    -0.254 A  
HETATM   15  C   UNL     1     -10.644   9.665  67.442  1.00  0.00    -0.268 A  
HETATM   16  C   UNL     1     -10.105  10.496  66.474  1.00  0.00    -0.280 A  
ENDROOT
BRANCH   8  17
HETATM   17  C   UNL     1      -8.066  14.765  68.718  1.00  0.00    -0.158 C  
BRANCH  17  18
HETATM   18  C   UNL     1      -6.909  13.768  68.598  1.00  0.00    -0.102 C  
BRANCH  18  19
HETATM   19  N   UNL     1      -7.181  12.454  68.013  1.00  0.00    -0.094 NA 
HETATM   20  C   UNL     1      -5.139  10.865  67.751  1.00  0.00    -0.039 C  
HETATM   21  C   UNL     1      -6.151  11.867  67.143  1.00  0.00    -0.152 C  
HETATM   22  C   UNL     1      -5.665   9.996  68.914  1.00  0.00    -0.034 C  
HETATM   23  C   UNL     1      -6.466  10.922  69.830  1.00  0.00    -0.128 C  
HETATM   24  C   UNL     1      -7.631  11.513  69.045  1.00  0.00    -0.058 C  
BRANCH  22  25
HETATM   25  N   UNL     1      -6.408   8.776  68.566  1.00  0.00    -0.053 N  
HETATM   26  C   UNL     1      -6.236   7.941  67.436  1.00  0.00    -0.054 C  
HETATM   27  O   UNL     1      -5.421   8.021  66.534  1.00  0.00    -0.028 OA 
HETATM   28  N   UNL     1      -7.212   6.936  67.521  1.00  0.00    -0.088 NA 
HETATM   29  C   UNL     1      -7.983   7.139  68.650  1.00  0.00    -0.123 A  
HETATM   30  C   UNL     1      -9.067   6.407  69.096  1.00  0.00    -0.131 A  
HETATM   31  C   UNL     1      -9.703   6.860  70.249  1.00  0.00    -0.176 A  
HETATM   32  C   UNL     1      -9.242   8.007  70.924  1.00  0.00    -0.163 A  
HETATM   33  C   UNL     1      -8.119   8.712  70.467  1.00  0.00    -0.115 A  
HETATM   34  C   UNL     1      -7.506   8.269  69.310  1.00  0.00    -0.085 A  
ENDBRANCH  22  25
ENDBRANCH  18  19
ENDBRANCH  17  18
ENDBRANCH   8  17
TORSDOF 4
ENDMDL
MODEL      248
REMARK 921   NORMALIZED FREE ENERGY PREDICTED BY IDOCK:   -3.36 KCAL/MOL
REMARK 922        TOTAL FREE ENERGY PREDICTED BY IDOCK:   -4.93 KCAL/MOL
REMARK 923 INTER-LIGAND FREE ENERGY PREDICTED BY IDOCK:   -5.00 KCAL/MOL
REMARK 924 INTRA-LIGAND FREE ENERGY PREDICTED BY IDOCK:    0.07 KCAL/MOL
REMARK 927      BINDING AFFINITY PREDICTED BY RF-SCORE:    0.00 PKD
ROOT
HETATM    1  F   UNL     1     -11.906  13.717  62.498  1.00  0.00     0.275 F  
HETATM    2  C   UNL     1     -11.765  13.324  63.770  1.00  0.00    -0.421 A  
HETATM    3  C   UNL     1     -12.730  12.516  64.354  1.00  0.00    -0.447 A  
HETATM    4  C   UNL     1     -12.588  12.121  65.689  1.00  0.00     0.724 A  
HETATM    5  C   UNL     1     -11.476  12.528  66.455  1.00  0.00    -0.418 A  
HETATM    6  C   UNL     1     -11.385  12.140  67.942  1.00  0.00    -0.361 C  
HETATM    7  C   UNL     1     -10.519  13.346  65.828  1.00  0.00    -0.291 A  
HETATM    8  C   UNL     1     -10.194  11.198  68.302  1.00  0.00    -0.197 C  
HETATM    9  C   UNL     1     -10.660  13.741  64.495  1.00  0.00    -0.405 A  
HETATM   10  C   UNL     1     -11.676  13.255  68.957  1.00  0.00    -0.368 A  
HETATM   11  C   UNL     1     -11.932  14.584  68.582  1.00  0.00    -0.320 A  
HETATM   12  F   UNL     1     -12.767  16.105  71.772  1.00  0.00    -0.491 F  
HETATM   13  C   UNL     1     -11.807  12.925  70.319  1.00  0.00    -0.291 A  
HETATM   14  C   UNL     1     -12.285  15.549  69.534  1.00  0.00    -0.264 A  
HETATM   15  C   UNL     1     -12.400  15.187  70.870  1.00  0.00    -0.354 A  
HETATM   16  C   UNL     1     -12.162  13.883  71.273  1.00  0.00    -0.353 A  
ENDROOT
BRANCH   8  17
HETATM   17  C   UNL     1      -8.742  11.606  68.027  1.00  0.00    -0.157 C  
BRANCH  17  18
HETATM   18  C   UNL     1      -7.699  10.512  67.775  1.00  0.00    -0.093 C  
BRANCH  18  19
HETATM   19  N   UNL     1      -7.886   9.211  68.420  1.00  0.00    -0.101 NA 
HETATM   20  C   UNL     1      -5.903   7.540  68.235  1.00  0.00    -0.028 C  
HETATM   21  C   UNL     1      -7.293   8.034  67.767  1.00  0.00    -0.093 C  
HETATM   22  C   UNL     1      -5.572   7.766  69.726  1.00  0.00    -0.023 C  
HETATM   23  C   UNL     1      -6.034   9.182  70.070  1.00  0.00    -0.031 C  
HETATM   24  C   UNL     1      -7.537   9.285  69.842  1.00  0.00    -0.093 C  
BRANCH  22  25
HETATM   25  N   UNL     1      -6.064   6.769  70.688  1.00  0.00    -0.027 N  
HETATM   26  C   UNL     1      -6.208   6.903  72.090  1.00  0.00    -0.042 C  
HETATM   27  O   UNL     1      -5.998   7.872  72.798  1.00  0.00    -0.044 OA 
HETATM   28  N   UNL     1      -6.663   5.666  72.572  1.00  0.00    -0.070 NA 
HETATM   29  C   UNL     1      -6.784   4.779  71.518  1.00  0.00    -0.039 A  
HETATM   30  C   UNL     1      -7.169   3.452  71.550  1.00  0.00    -0.036 A  
HETATM   31  C   UNL     1      -7.159   2.764  70.340  1.00  0.00    -0.033 A  
HETATM   32  C   UNL     1      -6.782   3.408  69.146  1.00  0.00    -0.037 A  
HETATM   33  C   UNL     1      -6.427   4.765  69.139  1.00  0.00    -0.039 A  
HETATM   34  C   UNL     1      -6.419   5.437  70.347  1.00  0.00    -0.034 A  
ENDBRANCH  22  25
ENDBRANCH  18  19
ENDBRANCH  17  18
ENDBRANCH   8  17
TORSDOF 4
ENDMDL
MODEL      249
REMARK 921   NORMALIZED FREE ENERGY PREDICTED BY IDOCK:   -3.30 KCAL/MOL
REMARK 922        TOTAL FREE ENERGY PREDICTED BY IDOCK:   -4.86 KCAL/MOL
REMARK 923 INTER-LIGAND FREE ENERGY PREDICTED BY IDOCK:   -4.77 KCAL/MOL
REMARK 924 INTRA-LIGAND FREE ENERGY PREDICTED BY IDOCK:   -0.09 KCAL/MOL
REMARK 927      BINDING AFFINITY PREDICTED BY RF-SCORE:    0.00 PKD
ROOT
HETATM    1  F   UNL     1      -9.725  11.423  64.691  1.00  0.00    -0.244 F  
HETATM    2  C   UNL     1      -8.818  10.463  64.911  1.00  0.00    -0.190 A  
HETATM    3  C   UNL     1      -7.561  10.554  64.330  1.00  0.00     0.065 A  
HETATM    4  C   UNL     1      -6.621   9.540  64.548  1.00  0.00    -0.095 A  
HETATM    5  C   UNL     1      -6.929   8.424  65.352  1.00  0.00    -0.074 A  
HETATM    6  C   UNL     1      -5.901   7.288  65.513  1.00  0.00    -0.037 C  
HETATM    7  C   UNL     1      -8.212   8.367  65.923  1.00  0.00    -0.123 A  
HETATM    8  C   UNL     1      -5.358   7.095  66.962  1.00  0.00    -0.021 C  
HETATM    9  C   UNL     1      -9.151   9.378  65.706  1.00  0.00    -0.249 A  
HETATM   10  C   UNL     1      -6.187   5.994  64.736  1.00  0.00    -0.030 A  
HETATM   11  C   UNL     1      -7.354   5.798  63.980  1.00  0.00    -0.060 A  
HETATM   12  F   UNL     1      -6.694   2.584  62.422  1.00  0.00    -0.019 F  
HETATM   13  C   UNL     1      -5.196   4.997  64.677  1.00  0.00    -0.009 A  
HETATM   14  C   UNL     1      -7.532   4.641  63.211  1.00  0.00    -0.054 A  
HETATM   15  C   UNL     1      -6.533   3.676  63.181  1.00  0.00    -0.026 A  
HETATM   16  C   UNL     1      -5.366   3.841  63.909  1.00  0.00    -0.009 A  
ENDROOT
BRANCH   8  17
HETATM   17  C   UNL     1      -6.301   6.790  68.134  1.00  0.00    -0.037 C  
BRANCH  17  18
HETATM   18  C   UNL     1      -7.027   5.441  68.169  1.00  0.00    -0.061 C  
BRANCH  18  19
HETATM   19  N   UNL     1      -8.244   5.327  68.974  1.00  0.00    -0.085 NA 
HETATM   20  C   UNL     1      -8.067   6.119  71.445  1.00  0.00    -0.118 C  
HETATM   21  C   UNL     1      -8.093   4.981  70.396  1.00  0.00    -0.085 C  
HETATM   22  C   UNL     1      -8.906   7.370  71.105  1.00  0.00    -0.142 C  
HETATM   23  C   UNL     1      -8.650   7.685  69.631  1.00  0.00    -0.136 C  
HETATM   24  C   UNL     1      -9.101   6.502  68.783  1.00  0.00    -0.126 C  
BRANCH  22  25
HETATM   25  N   UNL     1     -10.340   7.332  71.427  1.00  0.00    -0.199 N  
HETATM   26  C   UNL     1     -11.169   6.196  71.595  1.00  0.00    -0.286 C  
HETATM   27  O   UNL     1     -10.876   5.014  71.550  1.00  0.00    -0.110 OA 
HETATM   28  N   UNL     1     -12.466   6.673  71.840  1.00  0.00    -0.333 NA 
HETATM   29  C   UNL     1     -12.461   8.054  71.809  1.00  0.00    -0.324 A  
HETATM   30  C   UNL     1     -13.524   8.923  71.968  1.00  0.00    -0.482 A  
HETATM   31  C   UNL     1     -13.253  10.282  71.842  1.00  0.00    -0.550 A  
HETATM   32  C   UNL     1     -11.947  10.736  71.574  1.00  0.00    -0.061 A  
HETATM   33  C   UNL     1     -10.880   9.833  71.449  1.00  0.00    -0.180 A  
HETATM   34  C   UNL     1     -11.161   8.484  71.555  1.00  0.00    -0.279 A  
ENDBRANCH  22  25
ENDBRANCH  18  19
ENDBRANCH  17  18
ENDBRANCH   8  17
TORSDOF 4
ENDMDL
MODEL      250
REMARK 921   NORMALIZED FREE ENERGY PREDICTED BY IDOCK:   -3.29 KCAL/MOL
REMARK 922        TOTAL FREE ENERGY PREDICTED BY IDOCK:   -4.84 KCAL/MOL
REMARK 923 INTER-LIGAND FREE ENERGY PREDICTED BY IDOCK:   -4.96 KCAL/MOL
REMARK 924 INTRA-LIGAND FREE ENERGY PREDICTED BY IDOCK:    0.12 KCAL/MOL
REMARK 927      BINDING AFFINITY PREDICTED BY RF-SCORE:    0.00 PKD
ROOT
HETATM    1  F   UNL     1      -7.758  16.137  69.271  1.00  0.00    -0.204 F  
HETATM    2  C   UNL     1      -7.940  14.880  68.845  1.00  0.00    -0.163 A  
HETATM    3  C   UNL     1      -8.864  14.617  67.844  1.00  0.00    -0.170 A  
HETATM    4  C   UNL     1      -9.064  13.301  67.413  1.00  0.00    -0.216 A  
HETATM    5  C   UNL     1      -8.338  12.232  67.977  1.00  0.00    -0.165 A  
HETATM    6  C   UNL     1      -8.633  10.787  67.536  1.00  0.00    -0.125 C  
HETATM    7  C   UNL     1      -7.410  12.538  68.988  1.00  0.00     0.043 A  
HETATM    8  C   UNL     1      -7.453  10.069  66.811  1.00  0.00    -0.096 C  
HETATM    9  C   UNL     1      -7.210  13.852  69.419  1.00  0.00     0.077 A  
HETATM   10  C   UNL     1      -9.427   9.920  68.524  1.00  0.00    -0.149 A  
HETATM   11  C   UNL     1      -9.805  10.366  69.801  1.00  0.00    -0.134 A  
HETATM   12  F   UNL     1     -11.848   7.602  70.976  1.00  0.00    -0.292 F  
HETATM   13  C   UNL     1      -9.902   8.663  68.105  1.00  0.00    -0.192 A  
HETATM   14  C   UNL     1     -10.609   9.578  70.634  1.00  0.00    -0.374 A  
HETATM   15  C   UNL     1     -11.055   8.340  70.188  1.00  0.00    -0.189 A  
HETATM   16  C   UNL     1     -10.708   7.873  68.931  1.00  0.00    -0.098 A  
ENDROOT
BRANCH   8  17
HETATM   17  C   UNL     1      -6.091   9.883  67.493  1.00  0.00    -0.058 C  
BRANCH  17  18
HETATM   18  C   UNL     1      -5.831   8.601  68.292  1.00  0.00    -0.042 C  
BRANCH  18  19
HETATM   19  N   UNL     1      -6.942   8.012  69.041  1.00  0.00    -0.057 NA 
HETATM   20  C   UNL     1      -6.354   5.992  70.569  1.00  0.00    -0.036 C  
HETATM   21  C   UNL     1      -6.930   6.556  69.247  1.00  0.00    -0.071 C  
HETATM   22  C   UNL     1      -6.530   6.883  71.817  1.00  0.00    -0.049 C  
HETATM   23  C   UNL     1      -6.197   8.312  71.389  1.00  0.00    -0.039 C  
HETATM   24  C   UNL     1      -7.165   8.743  70.293  1.00  0.00    -0.049 C  
BRANCH  22  25
HETATM   25  N   UNL     1      -7.810   6.800  72.535  1.00  0.00    -0.100 N  
HETATM   26  C   UNL     1      -8.348   7.713  73.473  1.00  0.00    -0.173 C  
HETATM   27  O   UNL     1      -7.897   8.777  73.860  1.00  0.00    -0.411 OA 
HETATM   28  N   UNL     1      -9.565   7.171  73.917  1.00  0.00    -0.256 NA 
HETATM   29  C   UNL     1      -9.778   5.954  73.297  1.00  0.00    -0.152 A  
HETATM   30  C   UNL     1     -10.831   5.074  73.467  1.00  0.00    -0.369 A  
HETATM   31  C   UNL     1     -10.778   3.882  72.751  1.00  0.00    -0.165 A  
HETATM   32  C   UNL     1      -9.700   3.605  71.888  1.00  0.00    -0.236 A  
HETATM   33  C   UNL     1      -8.660   4.531  71.711  1.00  0.00    -0.125 A  
HETATM   34  C   UNL     1      -8.709   5.704  72.442  1.00  0.00    -0.128 A  
ENDBRANCH  22  25
ENDBRANCH  18  19
ENDBRANCH  17  18
ENDBRANCH   8  17
TORSDOF 4
ENDMDL
MODEL      251
REMARK 921   NORMALIZED FREE ENERGY PREDICTED BY IDOCK:   -3.22 KCAL/MOL
REMARK 922        TOTAL FREE ENERGY PREDICTED BY IDOCK:   -4.76 KCAL/MOL
REMARK 923 INTER-LIGAND FREE ENERGY PREDICTED BY IDOCK:   -4.29 KCAL/MOL
REMARK 924 INTRA-LIGAND FREE ENERGY PREDICTED BY IDOCK:   -0.47 KCAL/MOL
REMARK 927      BINDING AFFINITY PREDICTED BY RF-SCORE:    0.00 PKD
ROOT
HETATM    1  F   UNL     1     -11.184  15.035  69.411  1.00  0.00    -0.234 F  
HETATM    2  C   UNL     1     -11.067  13.757  69.028  1.00  0.00    -0.259 A  
HETATM    3  C   UNL     1     -12.159  12.907  69.117  1.00  0.00    -0.216 A  
HETATM    4  C   UNL     1     -12.029  11.567  68.732  1.00  0.00    -0.335 A  
HETATM    5  C   UNL     1     -10.802  11.064  68.251  1.00  0.00    -0.261 A  
HETATM    6  C   UNL     1     -10.669   9.570  67.907  1.00  0.00    -0.285 C  
HETATM    7  C   UNL     1      -9.718  11.956  68.176  1.00  0.00    -0.194 A  
HETATM    8  C   UNL     1     -10.392   9.266  66.401  1.00  0.00    -0.238 C  
HETATM    9  C   UNL     1      -9.848  13.293  68.560  1.00  0.00    -0.169 A  
HETATM   10  C   UNL     1      -9.890   8.705  68.909  1.00  0.00    -0.184 A  
HETATM   11  C   UNL     1      -9.253   9.234  70.044  1.00  0.00    -0.231 A  
HETATM   12  F   UNL     1      -8.094   6.225  71.713  1.00  0.00    -0.100 F  
HETATM   13  C   UNL     1      -9.901   7.305  68.760  1.00  0.00    -0.161 A  
HETATM   14  C   UNL     1      -8.635   8.399  70.982  1.00  0.00    -0.181 A  
HETATM   15  C   UNL     1      -8.662   7.022  70.799  1.00  0.00    -0.148 A  
HETATM   16  C   UNL     1      -9.287   6.466  69.695  1.00  0.00    -0.148 A  
ENDROOT
BRANCH   8  17
HETATM   17  C   UNL     1      -9.159   9.832  65.686  1.00  0.00    -0.222 C  
BRANCH  17  18
HETATM   18  C   UNL     1      -8.780   9.275  64.310  1.00  0.00    -0.175 C  
BRANCH  18  19
HETATM   19  N   UNL     1      -8.179   7.942  64.240  1.00  0.00    -0.090 NA 
HETATM   20  C   UNL     1      -5.581   7.849  64.242  1.00  0.00    -0.044 C  
HETATM   21  C   UNL     1      -6.928   7.795  63.481  1.00  0.00    -0.072 C  
HETATM   22  C   UNL     1      -5.600   7.311  65.689  1.00  0.00    -0.032 C  
HETATM   23  C   UNL     1      -6.868   7.856  66.345  1.00  0.00    -0.062 C  
HETATM   24  C   UNL     1      -8.084   7.349  65.578  1.00  0.00    -0.131 C  
BRANCH  22  25
HETATM   25  N   UNL     1      -5.455   5.860  65.874  1.00  0.00    -0.009 N  
HETATM   26  C   UNL     1      -5.325   4.860  64.879  1.00  0.00    -0.013 C  
HETATM   27  O   UNL     1      -5.265   4.980  63.668  1.00  0.00    -0.009 OA 
HETATM   28  N   UNL     1      -5.269   3.627  65.547  1.00  0.00    -0.009 NA 
HETATM   29  C   UNL     1      -5.379   3.837  66.909  1.00  0.00    -0.013 A  
HETATM   30  C   UNL     1      -5.402   2.901  67.926  1.00  0.00    -0.013 A  
HETATM   31  C   UNL     1      -5.572   3.381  69.221  1.00  0.00    -0.017 A  
HETATM   32  C   UNL     1      -5.703   4.761  69.468  1.00  0.00    -0.016 A  
HETATM   33  C   UNL     1      -5.644   5.691  68.419  1.00  0.00    -0.008 A  
HETATM   34  C   UNL     1      -5.495   5.206  67.134  1.00  0.00    -0.013 A  
ENDBRANCH  22  25
ENDBRANCH  18  19
ENDBRANCH  17  18
ENDBRANCH   8  17
TORSDOF 4
ENDMDL
MODEL      252
REMARK 921   NORMALIZED FREE ENERGY PREDICTED BY IDOCK:   -3.22 KCAL/MOL
REMARK 922        TOTAL FREE ENERGY PREDICTED BY IDOCK:   -4.75 KCAL/MOL
REMARK 923 INTER-LIGAND FREE ENERGY PREDICTED BY IDOCK:   -4.59 KCAL/MOL
REMARK 924 INTRA-LIGAND FREE ENERGY PREDICTED BY IDOCK:   -0.16 KCAL/MOL
REMARK 927      BINDING AFFINITY PREDICTED BY RF-SCORE:    0.00 PKD
ROOT
HETATM    1  F   UNL     1     -10.386  15.684  69.868  1.00  0.00    -0.247 F  
HETATM    2  C   UNL     1     -10.533  14.513  69.235  1.00  0.00    -0.173 A  
HETATM    3  C   UNL     1     -11.751  13.850  69.284  1.00  0.00    -0.381 A  
HETATM    4  C   UNL     1     -11.896  12.618  68.636  1.00  0.00    -0.342 A  
HETATM    5  C   UNL     1     -10.822  12.037  67.929  1.00  0.00    -0.254 A  
HETATM    6  C   UNL     1     -10.989  10.646  67.290  1.00  0.00    -0.348 C  
HETATM    7  C   UNL     1      -9.605  12.738  67.903  1.00  0.00    -0.211 A  
HETATM    8  C   UNL     1     -10.893  10.624  65.733  1.00  0.00    -0.010 C  
HETATM    9  C   UNL     1      -9.459  13.968  68.549  1.00  0.00    -0.191 A  
HETATM   10  C   UNL     1     -10.301   9.476  68.011  1.00  0.00    -0.260 A  
HETATM   11  C   UNL     1      -9.491   9.647  69.145  1.00  0.00    -0.172 A  
HETATM   12  F   UNL     1      -8.764   6.208  70.059  1.00  0.00    -0.128 F  
HETATM   13  C   UNL     1     -10.577   8.159  67.598  1.00  0.00    -0.258 A  
HETATM   14  C   UNL     1      -8.960   8.545  69.827  1.00  0.00    -0.145 A  
HETATM   15  C   UNL     1      -9.250   7.260  69.387  1.00  0.00    -0.148 A  
HETATM   16  C   UNL     1     -10.052   7.055  68.277  1.00  0.00    -0.185 A  
ENDROOT
BRANCH   8  17
HETATM   17  C   UNL     1      -9.639  11.121  65.003  1.00  0.00    -0.278 C  
BRANCH  17  18
HETATM   18  C   UNL     1      -9.503  10.858  63.500  1.00  0.00    -0.294 C  
BRANCH  18  19
HETATM   19  N   UNL     1      -8.656   9.746  63.063  1.00  0.00    -0.178 NA 
HETATM   20  C   UNL     1      -6.318   9.571  64.187  1.00  0.00    -0.098 C  
HETATM   21  C   UNL     1      -7.206   9.982  62.988  1.00  0.00    -0.131 C  
HETATM   22  C   UNL     1      -6.797   8.345  64.994  1.00  0.00    -0.067 C  
HETATM   23  C   UNL     1      -8.306   8.501  65.180  1.00  0.00    -0.178 C  
HETATM   24  C   UNL     1      -8.977   8.527  63.812  1.00  0.00     0.579 C  
BRANCH  22  25
HETATM   25  N   UNL     1      -6.432   7.015  64.484  1.00  0.00    -0.036 N  
HETATM   26  C   UNL     1      -5.693   6.698  63.318  1.00  0.00    -0.034 C  
HETATM   27  O   UNL     1      -5.168   7.444  62.511  1.00  0.00    -0.036 OA 
HETATM   28  N   UNL     1      -5.653   5.297  63.231  1.00  0.00    -0.013 NA 
HETATM   29  C   UNL     1      -6.355   4.751  64.289  1.00  0.00    -0.033 A  
HETATM   30  C   UNL     1      -6.592   3.418  64.569  1.00  0.00    -0.035 A  
HETATM   31  C   UNL     1      -7.379   3.138  65.683  1.00  0.00    -0.072 A  
HETATM   32  C   UNL     1      -7.893   4.176  66.483  1.00  0.00    -0.094 A  
HETATM   33  C   UNL     1      -7.610   5.519  66.194  1.00  0.00    -0.091 A  
HETATM   34  C   UNL     1      -6.845   5.791  65.075  1.00  0.00    -0.051 A  
ENDBRANCH  22  25
ENDBRANCH  18  19
ENDBRANCH  17  18
ENDBRANCH   8  17
TORSDOF 4
ENDMDL
MODEL      253
REMARK 921   NORMALIZED FREE ENERGY PREDICTED BY IDOCK:   -3.19 KCAL/MOL
REMARK 922        TOTAL FREE ENERGY PREDICTED BY IDOCK:   -4.73 KCAL/MOL
REMARK 923 INTER-LIGAND FREE ENERGY PREDICTED BY IDOCK:   -4.39 KCAL/MOL
REMARK 924 INTRA-LIGAND FREE ENERGY PREDICTED BY IDOCK:   -0.33 KCAL/MOL
REMARK 927      BINDING AFFINITY PREDICTED BY RF-SCORE:    0.00 PKD
ROOT
HETATM    1  F   UNL     1     -11.079  10.851  66.455  1.00  0.00    -0.297 F  
HETATM    2  C   UNL     1     -10.124  10.026  66.006  1.00  0.00    -0.248 A  
HETATM    3  C   UNL     1      -9.723  10.093  64.679  1.00  0.00    -0.377 A  
HETATM    4  C   UNL     1      -8.737   9.218  64.208  1.00  0.00    -0.204 A  
HETATM    5  C   UNL     1      -8.140   8.267  65.062  1.00  0.00    -0.148 A  
HETATM    6  C   UNL     1      -7.113   7.269  64.498  1.00  0.00    -0.058 C  
HETATM    7  C   UNL     1      -8.573   8.230  66.399  1.00  0.00    -0.144 A  
HETATM    8  C   UNL     1      -5.671   7.415  65.076  1.00  0.00    -0.037 C  
HETATM    9  C   UNL     1      -9.557   9.103  66.870  1.00  0.00    -0.233 A  
HETATM   10  C   UNL     1      -7.601   5.826  64.298  1.00  0.00    -0.082 A  
HETATM   11  C   UNL     1      -8.883   5.393  64.677  1.00  0.00     0.005 A  
HETATM   12  F   UNL     1      -8.917   1.990  63.410  1.00  0.00    -0.086 F  
HETATM   13  C   UNL     1      -6.783   4.915  63.604  1.00  0.00    -0.042 A  
HETATM   14  C   UNL     1      -9.321   4.094  64.390  1.00  0.00    -0.160 A  
HETATM   15  C   UNL     1      -8.484   3.221  63.707  1.00  0.00    -0.090 A  
HETATM   16  C   UNL     1      -7.217   3.618  63.313  1.00  0.00    -0.050 A  
ENDROOT
BRANCH   8  17
HETATM   17  C   UNL     1      -5.396   7.283  66.580  1.00  0.00    -0.023 C  
BRANCH  17  18
HETATM   18  C   UNL     1      -5.582   5.918  67.251  1.00  0.00    -0.016 C  
BRANCH  18  19
HETATM   19  N   UNL     1      -6.890   5.599  67.827  1.00  0.00    -0.059 NA 
HETATM   20  C   UNL     1      -6.915   3.786  69.690  1.00  0.00    -0.042 C  
HETATM   21  C   UNL     1      -7.143   4.204  68.217  1.00  0.00    -0.055 C  
HETATM   22  C   UNL     1      -7.177   4.878  70.750  1.00  0.00    -0.059 C  
HETATM   23  C   UNL     1      -6.553   6.168  70.219  1.00  0.00    -0.045 C  
HETATM   24  C   UNL     1      -7.223   6.540  68.902  1.00  0.00    -0.084 C  
BRANCH  22  25
HETATM   25  N   UNL     1      -8.565   5.071  71.195  1.00  0.00    -0.122 N  
HETATM   26  C   UNL     1      -9.653   4.173  71.079  1.00  0.00    -0.183 C  
HETATM   27  O   UNL     1      -9.674   3.041  70.627  1.00  0.00    -0.159 OA 
HETATM   28  N   UNL     1     -10.779   4.829  71.600  1.00  0.00    -0.021 NA 
HETATM   29  C   UNL     1     -10.420   6.098  72.013  1.00  0.00    -0.211 A  
HETATM   30  C   UNL     1     -11.221   7.087  72.554  1.00  0.00    -0.312 A  
HETATM   31  C   UNL     1     -10.613   8.305  72.840  1.00  0.00    -0.218 A  
HETATM   32  C   UNL     1      -9.241   8.503  72.593  1.00  0.00    -0.269 A  
HETATM   33  C   UNL     1      -8.445   7.471  72.073  1.00  0.00    -0.123 A  
HETATM   34  C   UNL     1      -9.060   6.271  71.772  1.00  0.00    -0.144 A  
ENDBRANCH  22  25
ENDBRANCH  18  19
ENDBRANCH  17  18
ENDBRANCH   8  17
TORSDOF 4
ENDMDL
MODEL      254
REMARK 921   NORMALIZED FREE ENERGY PREDICTED BY IDOCK:   -3.15 KCAL/MOL
REMARK 922        TOTAL FREE ENERGY PREDICTED BY IDOCK:   -4.67 KCAL/MOL
REMARK 923 INTER-LIGAND FREE ENERGY PREDICTED BY IDOCK:   -4.38 KCAL/MOL
REMARK 924 INTRA-LIGAND FREE ENERGY PREDICTED BY IDOCK:   -0.29 KCAL/MOL
REMARK 927      BINDING AFFINITY PREDICTED BY RF-SCORE:    0.00 PKD
ROOT
HETATM    1  F   UNL     1      -8.169   2.769  72.518  1.00  0.00    -0.058 F  
HETATM    2  C   UNL     1      -8.529   3.740  71.669  1.00  0.00    -0.081 A  
HETATM    3  C   UNL     1      -9.270   3.429  70.538  1.00  0.00    -0.212 A  
HETATM    4  C   UNL     1      -9.629   4.444  69.643  1.00  0.00    -0.275 A  
HETATM    5  C   UNL     1      -9.252   5.783  69.873  1.00  0.00    -0.166 A  
HETATM    6  C   UNL     1      -9.597   6.865  68.834  1.00  0.00    -0.139 C  
HETATM    7  C   UNL     1      -8.502   6.059  71.029  1.00  0.00    -0.124 A  
HETATM    8  C   UNL     1     -10.584   7.965  69.335  1.00  0.00    -0.209 C  
HETATM    9  C   UNL     1      -8.143   5.047  71.923  1.00  0.00    -0.115 A  
HETATM   10  C   UNL     1      -8.437   7.367  67.960  1.00  0.00    -0.123 A  
HETATM   11  C   UNL     1      -7.110   6.941  68.132  1.00  0.00    -0.085 A  
HETATM   12  F   UNL     1      -5.450   8.546  65.329  1.00  0.00    -0.034 F  
HETATM   13  C   UNL     1      -8.718   8.203  66.862  1.00  0.00    -0.136 A  
HETATM   14  C   UNL     1      -6.099   7.351  67.253  1.00  0.00    -0.046 A  
HETATM   15  C   UNL     1      -6.413   8.180  66.183  1.00  0.00    -0.046 A  
HETATM   16  C   UNL     1      -7.713   8.613  65.980  1.00  0.00    -0.100 A  
ENDROOT
BRANCH   8  17
HETATM   17  C   UNL     1     -10.255   8.838  70.553  1.00  0.00    -0.240 C  
BRANCH  17  18
HETATM   18  C   UNL     1     -10.473  10.352  70.460  1.00  0.00     0.173 C  
BRANCH  18  19
HETATM   19  N   UNL     1     -10.833  10.924  69.162  1.00  0.00    -0.220 NA 
HETATM   20  C   UNL     1     -12.775  12.654  69.167  1.00  0.00     0.909 C  
HETATM   21  C   UNL     1     -12.253  11.218  68.916  1.00  0.00    -0.093 C  
HETATM   22  C   UNL     1     -11.762  13.793  68.921  1.00  0.00    -0.336 C  
HETATM   23  C   UNL     1     -10.436  13.345  69.536  1.00  0.00     0.394 C  
HETATM   24  C   UNL     1      -9.972  12.069  68.845  1.00  0.00     0.023 C  
BRANCH  22  25
HETATM   25  N   UNL     1     -11.603  14.272  67.540  1.00  0.00    -0.344 N  
HETATM   26  C   UNL     1     -11.934  13.600  66.338  1.00  0.00    -0.426 C  
HETATM   27  O   UNL     1     -12.454  12.509  66.182  1.00  0.00    -0.522 OA 
HETATM   28  N   UNL     1     -11.549  14.442  65.283  1.00  0.00    -0.342 NA 
HETATM   29  C   UNL     1     -10.979  15.591  65.797  1.00  0.00    -0.283 A  
HETATM   30  C   UNL     1     -10.439  16.665  65.114  1.00  0.00    -0.117 A  
HETATM   31  C   UNL     1      -9.879  17.683  65.880  1.00  0.00    -0.090 A  
HETATM   32  C   UNL     1      -9.881  17.612  67.287  1.00  0.00    -0.303 A  
HETATM   33  C   UNL     1     -10.466  16.526  67.955  1.00  0.00    -0.313 A  
HETATM   34  C   UNL     1     -11.001  15.508  67.187  1.00  0.00    -0.295 A  
ENDBRANCH  22  25
ENDBRANCH  18  19
ENDBRANCH  17  18
ENDBRANCH   8  17
TORSDOF 4
ENDMDL
MODEL      255
REMARK 921   NORMALIZED FREE ENERGY PREDICTED BY IDOCK:   -3.09 KCAL/MOL
REMARK 922        TOTAL FREE ENERGY PREDICTED BY IDOCK:   -4.61 KCAL/MOL
REMARK 923 INTER-LIGAND FREE ENERGY PREDICTED BY IDOCK:   -4.22 KCAL/MOL
REMARK 924 INTRA-LIGAND FREE ENERGY PREDICTED BY IDOCK:   -0.39 KCAL/MOL
REMARK 927      BINDING AFFINITY PREDICTED BY RF-SCORE:    0.00 PKD
ROOT
HETATM    1  F   UNL     1      -6.272  15.652  70.093  1.00  0.00    -0.155 F  
HETATM    2  C   UNL     1      -6.899  14.667  69.437  1.00  0.00    -0.159 A  
HETATM    3  C   UNL     1      -8.213  14.839  69.026  1.00  0.00    -0.141 A  
HETATM    4  C   UNL     1      -8.872  13.801  68.356  1.00  0.00    -0.165 A  
HETATM    5  C   UNL     1      -8.220  12.580  68.087  1.00  0.00    -0.170 A  
HETATM    6  C   UNL     1      -8.993  11.430  67.416  1.00  0.00    -0.154 C  
HETATM    7  C   UNL     1      -6.889  12.443  68.519  1.00  0.00    -0.082 A  
HETATM    8  C   UNL     1      -8.470  11.025  66.003  1.00  0.00    -0.158 C  
HETATM    9  C   UNL     1      -6.231  13.478  69.188  1.00  0.00    -0.097 A  
HETATM   10  C   UNL     1      -9.410  10.264  68.325  1.00  0.00    -0.140 A  
HETATM   11  C   UNL     1      -9.048  10.184  69.680  1.00  0.00    -0.195 A  
HETATM   12  F   UNL     1     -10.868   7.231  70.757  1.00  0.00    -0.231 F  
HETATM   13  C   UNL     1     -10.287   9.284  67.824  1.00  0.00    -0.292 A  
HETATM   14  C   UNL     1      -9.528   9.153  70.497  1.00  0.00    -0.291 A  
HETATM   15  C   UNL     1     -10.388   8.199  69.966  1.00  0.00    -0.215 A  
HETATM   16  C   UNL     1     -10.771   8.253  68.636  1.00  0.00    -0.068 A  
ENDROOT
BRANCH   8  17
HETATM   17  C   UNL     1      -7.025  10.555  65.792  1.00  0.00    -0.125 C  
BRANCH  17  18
HETATM   18  C   UNL     1      -6.622   9.158  66.277  1.00  0.00    -0.066 C  
BRANCH  18  19
HETATM   19  N   UNL     1      -7.374   8.005  65.779  1.00  0.00    -0.077 NA 
HETATM   20  C   UNL     1      -5.966   5.987  64.940  1.00  0.00    -0.025 C  
HETATM   21  C   UNL     1      -6.806   7.254  64.649  1.00  0.00    -0.050 C  
HETATM   22  C   UNL     1      -6.368   5.183  66.195  1.00  0.00    -0.039 C  
HETATM   23  C   UNL     1      -6.625   6.200  67.307  1.00  0.00    -0.055 C  
HETATM   24  C   UNL     1      -7.761   7.124  66.886  1.00  0.00    -0.106 C  
BRANCH  22  25
HETATM   25  N   UNL     1      -7.469   4.218  66.057  1.00  0.00    -0.084 N  
HETATM   26  C   UNL     1      -8.233   3.610  67.083  1.00  0.00    -0.091 C  
HETATM   27  O   UNL     1      -8.178   3.778  68.288  1.00  0.00    -0.081 OA 
HETATM   28  N   UNL     1      -9.126   2.728  66.455  1.00  0.00    -0.146 NA 
HETATM   29  C   UNL     1      -8.921   2.762  65.089  1.00  0.00    -0.135 A  
HETATM   30  C   UNL     1      -9.559   2.030  64.104  1.00  0.00    -0.132 A  
HETATM   31  C   UNL     1      -9.124   2.222  62.795  1.00  0.00    -0.087 A  
HETATM   32  C   UNL     1      -8.089   3.130  62.504  1.00  0.00    -0.072 A  
HETATM   33  C   UNL     1      -7.481   3.883  63.520  1.00  0.00    -0.051 A  
HETATM   34  C   UNL     1      -7.904   3.673  64.820  1.00  0.00    -0.082 A  
ENDBRANCH  22  25
ENDBRANCH  18  19
ENDBRANCH  17  18
ENDBRANCH   8  17
TORSDOF 4
ENDMDL
MODEL      256
REMARK 921   NORMALIZED FREE ENERGY PREDICTED BY IDOCK:   -3.04 KCAL/MOL
REMARK 922        TOTAL FREE ENERGY PREDICTED BY IDOCK:   -4.54 KCAL/MOL
REMARK 923 INTER-LIGAND FREE ENERGY PREDICTED BY IDOCK:   -5.84 KCAL/MOL
REMARK 924 INTRA-LIGAND FREE ENERGY PREDICTED BY IDOCK:    1.30 KCAL/MOL
REMARK 927      BINDING AFFINITY PREDICTED BY RF-SCORE:    0.00 PKD
ROOT
HETATM    1  F   UNL     1     -12.679  13.772  67.299  1.00  0.00    -0.237 F  
HETATM    2  C   UNL     1     -11.802  12.836  66.914  1.00  0.00    -0.371 A  
HETATM    3  C   UNL     1     -11.779  12.414  65.593  1.00  0.00    -0.468 A  
HETATM    4  C   UNL     1     -10.874  11.422  65.197  1.00  0.00    -0.302 A  
HETATM    5  C   UNL     1      -9.978  10.844  66.120  1.00  0.00    -0.282 A  
HETATM    6  C   UNL     1      -9.046   9.704  65.673  1.00  0.00    -0.236 C  
HETATM    7  C   UNL     1     -10.031  11.298  67.450  1.00  0.00    -0.206 A  
HETATM    8  C   UNL     1      -7.524  10.042  65.725  1.00  0.00    -0.121 C  
HETATM    9  C   UNL     1     -10.935  12.287  67.846  1.00  0.00    -0.265 A  
HETATM   10  C   UNL     1      -9.425   8.290  66.138  1.00  0.00    -0.241 A  
HETATM   11  C   UNL     1     -10.508   8.030  66.994  1.00  0.00    -0.410 A  
HETATM   12  F   UNL     1     -10.543   4.400  67.064  1.00  0.00    -0.149 F  
HETATM   13  C   UNL     1      -8.736   7.185  65.604  1.00  0.00    -0.088 A  
HETATM   14  C   UNL     1     -10.876   6.719  67.318  1.00  0.00    -0.443 A  
HETATM   15  C   UNL     1     -10.170   5.653  66.775  1.00  0.00    -0.230 A  
HETATM   16  C   UNL     1      -9.101   5.872  65.921  1.00  0.00    -0.135 A  
ENDROOT
BRANCH   8  17
HETATM   17  C   UNL     1      -6.844  10.465  67.034  1.00  0.00    -0.085 C  
BRANCH  17  18
HETATM   18  C   UNL     1      -6.105   9.407  67.861  1.00  0.00    -0.053 C  
BRANCH  18  19
HETATM   19  N   UNL     1      -6.782   8.138  68.130  1.00  0.00    -0.060 NA 
HETATM   20  C   UNL     1      -5.282   6.193  68.985  1.00  0.00    -0.004 C  
HETATM   21  C   UNL     1      -6.048   6.897  67.838  1.00  0.00    -0.033 C  
HETATM   22  C   UNL     1      -5.893   6.341  70.395  1.00  0.00    -0.018 C  
HETATM   23  C   UNL     1      -6.313   7.803  70.543  1.00  0.00    -0.037 C  
HETATM   24  C   UNL     1      -7.354   8.133  69.481  1.00  0.00    -0.081 C  
BRANCH  22  25
HETATM   25  N   UNL     1      -6.969   5.411  70.768  1.00  0.00    -0.054 N  
HETATM   26  C   UNL     1      -6.902   4.003  70.898  1.00  0.00    -0.032 C  
HETATM   27  O   UNL     1      -5.943   3.261  70.771  1.00  0.00    -0.016 OA 
HETATM   28  N   UNL     1      -8.195   3.562  71.219  1.00  0.00    -0.066 NA 
HETATM   29  C   UNL     1      -9.050   4.647  71.272  1.00  0.00    -0.134 A  
HETATM   30  C   UNL     1     -10.409   4.661  71.523  1.00  0.00    -0.174 A  
HETATM   31  C   UNL     1     -11.048   5.896  71.468  1.00  0.00    -0.314 A  
HETATM   32  C   UNL     1     -10.326   7.070  71.179  1.00  0.00    -0.222 A  
HETATM   33  C   UNL     1      -8.941   7.030  70.960  1.00  0.00    -0.151 A  
HETATM   34  C   UNL     1      -8.317   5.798  70.996  1.00  0.00    -0.123 A  
ENDBRANCH  22  25
ENDBRANCH  18  19
ENDBRANCH  17  18
ENDBRANCH   8  17
TORSDOF 4
ENDMDL
MODEL      257
REMARK 921   NORMALIZED FREE ENERGY PREDICTED BY IDOCK:   -2.97 KCAL/MOL
REMARK 922        TOTAL FREE ENERGY PREDICTED BY IDOCK:   -4.46 KCAL/MOL
REMARK 923 INTER-LIGAND FREE ENERGY PREDICTED BY IDOCK:   -4.70 KCAL/MOL
REMARK 924 INTRA-LIGAND FREE ENERGY PREDICTED BY IDOCK:    0.25 KCAL/MOL
REMARK 927      BINDING AFFINITY PREDICTED BY RF-SCORE:    0.00 PKD
ROOT
HETATM    1  F   UNL     1     -13.780  14.308  65.208  1.00  0.00    -0.124 F  
HETATM    2  C   UNL     1     -12.605  14.438  65.839  1.00  0.00    -0.254 A  
HETATM    3  C   UNL     1     -12.578  14.812  67.175  1.00  0.00     0.688 A  
HETATM    4  C   UNL     1     -11.349  14.965  67.828  1.00  0.00    -0.341 A  
HETATM    5  C   UNL     1     -10.133  14.741  67.150  1.00  0.00    -0.240 A  
HETATM    6  C   UNL     1      -8.796  14.988  67.873  1.00  0.00    -0.171 C  
HETATM    7  C   UNL     1     -10.201  14.363  65.798  1.00  0.00    -0.355 A  
HETATM    8  C   UNL     1      -7.916  13.716  68.078  1.00  0.00    -0.154 C  
HETATM    9  C   UNL     1     -11.428  14.211  65.146  1.00  0.00    -0.336 A  
HETATM   10  C   UNL     1      -8.034  16.263  67.480  1.00  0.00    -0.171 A  
HETATM   11  C   UNL     1      -8.465  17.130  66.463  1.00  0.00    -0.309 A  
HETATM   12  F   UNL     1      -6.063  19.840  66.733  1.00  0.00    -0.176 F  
HETATM   13  C   UNL     1      -6.914  16.652  68.238  1.00  0.00    -0.155 A  
HETATM   14  C   UNL     1      -7.792  18.330  66.201  1.00  0.00    -0.239 A  
HETATM   15  C   UNL     1      -6.687  18.679  66.967  1.00  0.00    -0.193 A  
HETATM   16  C   UNL     1      -6.239  17.850  67.983  1.00  0.00    -0.169 A  
ENDROOT
BRANCH   8  17
HETATM   17  C   UNL     1      -7.442  12.873  66.888  1.00  0.00     0.249 C  
BRANCH  17  18
HETATM   18  C   UNL     1      -6.582  11.633  67.154  1.00  0.00    -0.134 C  
BRANCH  18  19
HETATM   19  N   UNL     1      -7.252  10.339  67.292  1.00  0.00    -0.088 NA 
HETATM   20  C   UNL     1      -8.496   9.457  65.186  1.00  0.00    -0.166 C  
HETATM   21  C   UNL     1      -8.520  10.146  66.572  1.00  0.00    -0.127 C  
HETATM   22  C   UNL     1      -7.394   8.396  64.978  1.00  0.00    -0.086 C  
HETATM   23  C   UNL     1      -6.107   8.977  65.563  1.00  0.00    -0.055 C  
HETATM   24  C   UNL     1      -6.310   9.241  67.050  1.00  0.00    -0.066 C  
BRANCH  22  25
HETATM   25  N   UNL     1      -7.664   7.035  65.463  1.00  0.00    -0.098 N  
HETATM   26  C   UNL     1      -6.944   5.848  65.183  1.00  0.00    -0.059 C  
HETATM   27  O   UNL     1      -5.934   5.697  64.519  1.00  0.00    -0.023 OA 
HETATM   28  N   UNL     1      -7.618   4.802  65.832  1.00  0.00    -0.089 NA 
HETATM   29  C   UNL     1      -8.729   5.304  66.482  1.00  0.00    -0.115 A  
HETATM   30  C   UNL     1      -9.683   4.620  67.212  1.00  0.00    -0.216 A  
HETATM   31  C   UNL     1     -10.739   5.367  67.726  1.00  0.00    -0.109 A  
HETATM   32  C   UNL     1     -10.813   6.756  67.511  1.00  0.00    -0.388 A  
HETATM   33  C   UNL     1      -9.814   7.430  66.792  1.00  0.00    -0.290 A  
HETATM   34  C   UNL     1      -8.779   6.679  66.267  1.00  0.00    -0.145 A  
ENDBRANCH  22  25
ENDBRANCH  18  19
ENDBRANCH  17  18
ENDBRANCH   8  17
TORSDOF 4
ENDMDL
MODEL      258
REMARK 921   NORMALIZED FREE ENERGY PREDICTED BY IDOCK:   -2.97 KCAL/MOL
REMARK 922        TOTAL FREE ENERGY PREDICTED BY IDOCK:   -4.45 KCAL/MOL
REMARK 923 INTER-LIGAND FREE ENERGY PREDICTED BY IDOCK:   -5.37 KCAL/MOL
REMARK 924 INTRA-LIGAND FREE ENERGY PREDICTED BY IDOCK:    0.92 KCAL/MOL
REMARK 927      BINDING AFFINITY PREDICTED BY RF-SCORE:    0.00 PKD
ROOT
HETATM    1  F   UNL     1      -9.848   3.280  73.924  1.00  0.00    -0.116 F  
HETATM    2  C   UNL     1      -9.410   4.115  72.973  1.00  0.00    -0.110 A  
HETATM    3  C   UNL     1      -8.257   3.810  72.264  1.00  0.00    -0.084 A  
HETATM    4  C   UNL     1      -7.792   4.693  71.282  1.00  0.00    -0.086 A  
HETATM    5  C   UNL     1      -8.480   5.891  70.997  1.00  0.00    -0.124 A  
HETATM    6  C   UNL     1      -7.904   6.877  69.965  1.00  0.00    -0.110 C  
HETATM    7  C   UNL     1      -9.643   6.165  71.736  1.00  0.00    -0.165 A  
HETATM    8  C   UNL     1      -8.785   7.085  68.694  1.00  0.00    -0.123 C  
HETATM    9  C   UNL     1     -10.108   5.284  72.716  1.00  0.00    -0.202 A  
HETATM   10  C   UNL     1      -7.246   8.147  70.527  1.00  0.00    -0.048 A  
HETATM   11  C   UNL     1      -7.228   8.457  71.897  1.00  0.00    -0.111 A  
HETATM   12  F   UNL     1      -5.156  11.439  71.953  1.00  0.00    -0.102 F  
HETATM   13  C   UNL     1      -6.526   8.988  69.658  1.00  0.00    -0.042 A  
HETATM   14  C   UNL     1      -6.535   9.576  72.376  1.00  0.00     0.535 A  
HETATM   15  C   UNL     1      -5.840  10.386  71.488  1.00  0.00     0.244 A  
HETATM   16  C   UNL     1      -5.830  10.105  70.131  1.00  0.00    -0.059 A  
ENDROOT
BRANCH   8  17
HETATM   17  C   UNL     1     -10.228   7.594  68.797  1.00  0.00    -0.210 C  
BRANCH  17  18
HETATM   18  C   UNL     1     -10.780   7.984  70.173  1.00  0.00    -0.244 C  
BRANCH  18  19
HETATM   19  N   UNL     1     -10.707   9.388  70.579  1.00  0.00    -0.252 NA 
HETATM   20  C   UNL     1     -11.833  11.107  68.985  1.00  0.00    -0.418 C  
HETATM   21  C   UNL     1     -10.564  10.399  69.519  1.00  0.00    -0.246 C  
HETATM   22  C   UNL     1     -12.976  11.303  70.003  1.00  0.00     0.261 C  
HETATM   23  C   UNL     1     -13.104   9.994  70.781  1.00  0.00    -0.316 C  
HETATM   24  C   UNL     1     -11.794   9.715  71.507  1.00  0.00    -0.407 C  
BRANCH  22  25
HETATM   25  N   UNL     1     -12.900  12.474  70.889  1.00  0.00    -0.163 N  
HETATM   26  C   UNL     1     -13.485  12.642  72.168  1.00  0.00    -0.460 C  
HETATM   27  O   UNL     1     -14.137  11.852  72.828  1.00  0.00     0.536 OA 
HETATM   28  N   UNL     1     -13.173  13.944  72.589  1.00  0.00    -0.507 NA 
HETATM   29  C   UNL     1     -12.438  14.580  71.608  1.00  0.00    -0.352 A  
HETATM   30  C   UNL     1     -11.954  15.875  71.597  1.00  0.00    -0.553 A  
HETATM   31  C   UNL     1     -11.279  16.287  70.452  1.00  0.00    -0.336 A  
HETATM   32  C   UNL     1     -11.097  15.409  69.366  1.00  0.00    -0.283 A  
HETATM   33  C   UNL     1     -11.571  14.090  69.417  1.00  0.00    -0.349 A  
HETATM   34  C   UNL     1     -12.258  13.694  70.549  1.00  0.00    -0.368 A  
ENDBRANCH  22  25
ENDBRANCH  18  19
ENDBRANCH  17  18
ENDBRANCH   8  17
TORSDOF 4
ENDMDL
MODEL      259
REMARK 921   NORMALIZED FREE ENERGY PREDICTED BY IDOCK:   -2.91 KCAL/MOL
REMARK 922        TOTAL FREE ENERGY PREDICTED BY IDOCK:   -4.38 KCAL/MOL
REMARK 923 INTER-LIGAND FREE ENERGY PREDICTED BY IDOCK:   -3.57 KCAL/MOL
REMARK 924 INTRA-LIGAND FREE ENERGY PREDICTED BY IDOCK:   -0.81 KCAL/MOL
REMARK 927      BINDING AFFINITY PREDICTED BY RF-SCORE:    0.00 PKD
ROOT
HETATM    1  F   UNL     1      -5.618  16.048  67.704  1.00  0.00    -0.120 F  
HETATM    2  C   UNL     1      -6.676  15.275  67.424  1.00  0.00    -0.123 A  
HETATM    3  C   UNL     1      -7.897  15.860  67.124  1.00  0.00    -0.249 A  
HETATM    4  C   UNL     1      -9.005  15.050  66.849  1.00  0.00    -0.276 A  
HETATM    5  C   UNL     1      -8.901  13.644  66.871  1.00  0.00    -0.201 A  
HETATM    6  C   UNL     1     -10.154  12.779  66.639  1.00  0.00    -0.248 C  
HETATM    7  C   UNL     1      -7.647  13.088  67.179  1.00  0.00    -0.023 A  
HETATM    8  C   UNL     1     -10.113  11.898  65.351  1.00  0.00    -0.285 C  
HETATM    9  C   UNL     1      -6.541  13.896  67.453  1.00  0.00     0.044 A  
HETATM   10  C   UNL     1     -10.759  12.107  67.880  1.00  0.00    -0.237 A  
HETATM   11  C   UNL     1     -10.177  12.191  69.156  1.00  0.00     0.151 A  
HETATM   12  F   UNL     1     -12.661  10.522  71.213  1.00  0.00    -0.386 F  
HETATM   13  C   UNL     1     -12.011  11.472  67.774  1.00  0.00    -0.100 A  
HETATM   14  C   UNL     1     -10.812  11.643  70.278  1.00  0.00     0.870 A  
HETATM   15  C   UNL     1     -12.044  11.019  70.134  1.00  0.00    -0.356 A  
HETATM   16  C   UNL     1     -12.650  10.925  68.892  1.00  0.00     0.666 A  
ENDROOT
BRANCH   8  17
HETATM   17  C   UNL     1      -9.008  10.858  65.130  1.00  0.00    -0.195 C  
BRANCH  17  18
HETATM   18  C   UNL     1      -9.301   9.387  65.443  1.00  0.00    -0.247 C  
BRANCH  18  19
HETATM   19  N   UNL     1      -9.717   9.035  66.801  1.00  0.00    -0.196 NA 
HETATM   20  C   UNL     1     -10.036   6.500  67.285  1.00  0.00    -0.212 C  
HETATM   21  C   UNL     1     -10.630   7.892  66.961  1.00  0.00    -0.311 C  
HETATM   22  C   UNL     1      -8.742   6.497  68.127  1.00  0.00    -0.117 C  
HETATM   23  C   UNL     1      -7.843   7.595  67.559  1.00  0.00    -0.119 C  
HETATM   24  C   UNL     1      -8.553   8.937  67.689  1.00  0.00    -0.124 C  
BRANCH  22  25
HETATM   25  N   UNL     1      -8.883   6.591  69.587  1.00  0.00    -0.138 N  
HETATM   26  C   UNL     1     -10.060   6.830  70.338  1.00  0.00    -0.183 C  
HETATM   27  O   UNL     1     -11.207   6.969  69.951  1.00  0.00    -0.272 OA 
HETATM   28  N   UNL     1      -9.677   6.883  71.687  1.00  0.00    -0.162 NA 
HETATM   29  C   UNL     1      -8.310   6.704  71.784  1.00  0.00    -0.111 A  
HETATM   30  C   UNL     1      -7.517   6.715  72.917  1.00  0.00    -0.088 A  
HETATM   31  C   UNL     1      -6.147   6.558  72.730  1.00  0.00    -0.050 A  
HETATM   32  C   UNL     1      -5.610   6.384  71.440  1.00  0.00    -0.027 A  
HETATM   33  C   UNL     1      -6.442   6.345  70.310  1.00  0.00    -0.040 A  
HETATM   34  C   UNL     1      -7.799   6.523  70.502  1.00  0.00    -0.106 A  
ENDBRANCH  22  25
ENDBRANCH  18  19
ENDBRANCH  17  18
ENDBRANCH   8  17
TORSDOF 4
ENDMDL
MODEL      260
REMARK 921   NORMALIZED FREE ENERGY PREDICTED BY IDOCK:   -2.91 KCAL/MOL
REMARK 922        TOTAL FREE ENERGY PREDICTED BY IDOCK:   -4.37 KCAL/MOL
REMARK 923 INTER-LIGAND FREE ENERGY PREDICTED BY IDOCK:   -4.45 KCAL/MOL
REMARK 924 INTRA-LIGAND FREE ENERGY PREDICTED BY IDOCK:    0.08 KCAL/MOL
REMARK 927      BINDING AFFINITY PREDICTED BY RF-SCORE:    0.00 PKD
ROOT
HETATM    1  F   UNL     1      -6.892   4.587  62.350  1.00  0.00    -0.028 F  
HETATM    2  C   UNL     1      -6.977   5.511  63.316  1.00  0.00    -0.038 A  
HETATM    3  C   UNL     1      -5.991   6.480  63.432  1.00  0.00    -0.034 A  
HETATM    4  C   UNL     1      -6.073   7.434  64.454  1.00  0.00    -0.037 A  
HETATM    5  C   UNL     1      -7.145   7.429  65.369  1.00  0.00    -0.061 A  
HETATM    6  C   UNL     1      -7.170   8.444  66.527  1.00  0.00    -0.076 C  
HETATM    7  C   UNL     1      -8.125   6.432  65.219  1.00  0.00    -0.133 A  
HETATM    8  C   UNL     1      -8.348   9.465  66.479  1.00  0.00    -0.119 C  
HETATM    9  C   UNL     1      -8.043   5.480  64.200  1.00  0.00    -0.124 A  
HETATM   10  C   UNL     1      -6.824   7.897  67.921  1.00  0.00    -0.072 A  
HETATM   11  C   UNL     1      -6.578   6.537  68.170  1.00  0.00    -0.059 A  
HETATM   12  F   UNL     1      -5.585   6.594  71.663  1.00  0.00    -0.029 F  
HETATM   13  C   UNL     1      -6.632   8.801  68.983  1.00  0.00    -0.048 A  
HETATM   14  C   UNL     1      -6.174   6.096  69.436  1.00  0.00    -0.033 A  
HETATM   15  C   UNL     1      -5.999   7.017  70.462  1.00  0.00    -0.027 A  
HETATM   16  C   UNL     1      -6.226   8.366  70.248  1.00  0.00    -0.034 A  
ENDROOT
BRANCH   8  17
HETATM   17  C   UNL     1      -9.809   8.999  66.482  1.00  0.00    -0.338 C  
BRANCH  17  18
HETATM   18  C   UNL     1     -10.223   7.862  67.423  1.00  0.00    -0.251 C  
BRANCH  18  19
HETATM   19  N   UNL     1      -9.722   7.882  68.799  1.00  0.00    -0.156 NA 
HETATM   20  C   UNL     1     -11.442   8.526  70.640  1.00  0.00    -0.249 C  
HETATM   21  C   UNL     1     -10.264   8.903  69.708  1.00  0.00    -0.202 C  
HETATM   22  C   UNL     1     -11.483   7.058  71.116  1.00  0.00    -0.294 C  
HETATM   23  C   UNL     1     -11.166   6.190  69.898  1.00  0.00    -0.484 C  
HETATM   24  C   UNL     1      -9.774   6.539  69.386  1.00  0.00    -0.146 C  
BRANCH  22  25
HETATM   25  N   UNL     1     -10.665   6.702  72.284  1.00  0.00    -0.215 N  
HETATM   26  C   UNL     1      -9.866   7.554  73.085  1.00  0.00    -0.262 C  
HETATM   27  O   UNL     1      -9.712   8.760  73.011  1.00  0.00    -0.004 OA 
HETATM   28  N   UNL     1      -9.239   6.741  74.042  1.00  0.00    -0.177 NA 
HETATM   29  C   UNL     1      -9.612   5.425  73.843  1.00  0.00    -0.142 A  
HETATM   30  C   UNL     1      -9.206   4.300  74.536  1.00  0.00    -0.115 A  
HETATM   31  C   UNL     1      -9.699   3.075  74.095  1.00  0.00    -0.139 A  
HETATM   32  C   UNL     1     -10.579   3.004  72.999  1.00  0.00    -0.240 A  
HETATM   33  C   UNL     1     -11.000   4.166  72.333  1.00  0.00     0.129 A  
HETATM   34  C   UNL     1     -10.490   5.376  72.763  1.00  0.00    -0.213 A  
ENDBRANCH  22  25
ENDBRANCH  18  19
ENDBRANCH  17  18
ENDBRANCH   8  17
TORSDOF 4
ENDMDL
MODEL      261
REMARK 921   NORMALIZED FREE ENERGY PREDICTED BY IDOCK:   -2.84 KCAL/MOL
REMARK 922        TOTAL FREE ENERGY PREDICTED BY IDOCK:   -4.29 KCAL/MOL
REMARK 923 INTER-LIGAND FREE ENERGY PREDICTED BY IDOCK:   -3.78 KCAL/MOL
REMARK 924 INTRA-LIGAND FREE ENERGY PREDICTED BY IDOCK:   -0.51 KCAL/MOL
REMARK 927      BINDING AFFINITY PREDICTED BY RF-SCORE:    0.00 PKD
ROOT
HETATM    1  F   UNL     1     -11.106   1.693  74.475  1.00  0.00    -0.172 F  
HETATM    2  C   UNL     1     -10.523   2.487  73.568  1.00  0.00    -0.139 A  
HETATM    3  C   UNL     1      -9.413   2.036  72.868  1.00  0.00    -0.122 A  
HETATM    4  C   UNL     1      -8.795   2.875  71.933  1.00  0.00    -0.116 A  
HETATM    5  C   UNL     1      -9.283   4.175  71.687  1.00  0.00    -0.186 A  
HETATM    6  C   UNL     1      -8.538   5.101  70.708  1.00  0.00    -0.131 C  
HETATM    7  C   UNL     1     -10.409   4.596  72.415  1.00  0.00    -0.262 A  
HETATM    8  C   UNL     1      -9.345   5.491  69.431  1.00  0.00    -0.154 C  
HETATM    9  C   UNL     1     -11.027   3.760  73.349  1.00  0.00    -0.317 A  
HETATM   10  C   UNL     1      -7.707   6.230  71.335  1.00  0.00    -0.100 A  
HETATM   11  C   UNL     1      -7.676   6.481  72.717  1.00  0.00    -0.102 A  
HETATM   12  F   UNL     1      -5.173   9.102  72.938  1.00  0.00    -0.060 F  
HETATM   13  C   UNL     1      -6.846   6.984  70.516  1.00  0.00    -0.057 A  
HETATM   14  C   UNL     1      -6.832   7.459  73.256  1.00  0.00    -0.068 A  
HETATM   15  C   UNL     1      -5.999   8.187  72.415  1.00  0.00    -0.049 A  
HETATM   16  C   UNL     1      -5.999   7.961  71.049  1.00  0.00    -0.034 A  
ENDROOT
BRANCH   8  17
HETATM   17  C   UNL     1     -10.695   6.212  69.529  1.00  0.00    -0.386 C  
BRANCH  17  18
HETATM   18  C   UNL     1     -10.732   7.646  70.069  1.00  0.00    -0.241 C  
BRANCH  18  19
HETATM   19  N   UNL     1     -11.119   8.723  69.155  1.00  0.00     0.062 NA 
HETATM   20  C   UNL     1     -11.743  10.995  70.254  1.00  0.00    -0.445 C  
HETATM   21  C   UNL     1     -12.164   9.656  69.603  1.00  0.00     0.638 C  
HETATM   22  C   UNL     1     -10.417  11.605  69.749  1.00  0.00     0.569 C  
HETATM   23  C   UNL     1      -9.414  10.456  69.649  1.00  0.00    -0.118 C  
HETATM   24  C   UNL     1      -9.933   9.426  68.654  1.00  0.00    -0.173 C  
BRANCH  22  25
HETATM   25  N   UNL     1     -10.468  12.411  68.520  1.00  0.00    -0.230 N  
HETATM   26  C   UNL     1     -11.442  12.380  67.493  1.00  0.00    -0.346 C  
HETATM   27  O   UNL     1     -12.462  11.718  67.418  1.00  0.00     0.084 OA 
HETATM   28  N   UNL     1     -11.026  13.292  66.511  1.00  0.00    -0.284 NA 
HETATM   29  C   UNL     1      -9.827  13.863  66.893  1.00  0.00    -0.268 A  
HETATM   30  C   UNL     1      -9.055  14.784  66.210  1.00  0.00    -0.231 A  
HETATM   31  C   UNL     1      -7.854  15.163  66.801  1.00  0.00     0.020 A  
HETATM   32  C   UNL     1      -7.462  14.631  68.044  1.00  0.00    -0.137 A  
HETATM   33  C   UNL     1      -8.281  13.722  68.731  1.00  0.00    -0.002 A  
HETATM   34  C   UNL     1      -9.462  13.334  68.128  1.00  0.00    -0.222 A  
ENDBRANCH  22  25
ENDBRANCH  18  19
ENDBRANCH  17  18
ENDBRANCH   8  17
TORSDOF 4
ENDMDL
MODEL      262
REMARK 921   NORMALIZED FREE ENERGY PREDICTED BY IDOCK:   -2.83 KCAL/MOL
REMARK 922        TOTAL FREE ENERGY PREDICTED BY IDOCK:   -4.27 KCAL/MOL
REMARK 923 INTER-LIGAND FREE ENERGY PREDICTED BY IDOCK:   -5.43 KCAL/MOL
REMARK 924 INTRA-LIGAND FREE ENERGY PREDICTED BY IDOCK:    1.16 KCAL/MOL
REMARK 927      BINDING AFFINITY PREDICTED BY RF-SCORE:    0.00 PKD
ROOT
HETATM    1  F   UNL     1      -6.923  11.325  70.075  1.00  0.00    -0.134 F  
HETATM    2  C   UNL     1      -7.432  12.195  69.193  1.00  0.00     0.121 A  
HETATM    3  C   UNL     1      -6.581  12.933  68.383  1.00  0.00    -0.085 A  
HETATM    4  C   UNL     1      -7.114  13.855  67.474  1.00  0.00    -0.175 A  
HETATM    5  C   UNL     1      -8.507  14.046  67.365  1.00  0.00    -0.209 A  
HETATM    6  C   UNL     1      -9.061  15.120  66.411  1.00  0.00    -0.331 C  
HETATM    7  C   UNL     1      -9.337  13.281  68.203  1.00  0.00    -0.220 A  
HETATM    8  C   UNL     1      -9.917  14.569  65.229  1.00  0.00    -0.322 C  
HETATM    9  C   UNL     1      -8.805  12.360  69.110  1.00  0.00     0.665 A  
HETATM   10  C   UNL     1      -9.587  16.407  67.064  1.00  0.00    -0.244 A  
HETATM   11  C   UNL     1      -9.649  16.590  68.455  1.00  0.00    -0.233 A  
HETATM   12  F   UNL     1     -10.724  20.050  68.701  1.00  0.00    -0.494 F  
HETATM   13  C   UNL     1      -9.920  17.504  66.247  1.00  0.00    -0.316 A  
HETATM   14  C   UNL     1     -10.047  17.814  69.007  1.00  0.00    -0.294 A  
HETATM   15  C   UNL     1     -10.372  18.873  68.169  1.00  0.00    -0.366 A  
HETATM   16  C   UNL     1     -10.315  18.730  66.792  1.00  0.00    -0.464 A  
ENDROOT
BRANCH   8  17
HETATM   17  C   UNL     1     -11.180  13.735  65.479  1.00  0.00    -0.303 C  
BRANCH  17  18
HETATM   18  C   UNL     1     -11.798  12.957  64.312  1.00  0.00    -0.395 C  
BRANCH  18  19
HETATM   19  N   UNL     1     -11.253  11.637  63.990  1.00  0.00    -0.374 NA 
HETATM   20  C   UNL     1      -8.697  11.531  63.520  1.00  0.00     0.375 C  
HETATM   21  C   UNL     1     -10.158  11.571  63.010  1.00  0.00    -0.291 C  
HETATM   22  C   UNL     1      -8.475  10.833  64.880  1.00  0.00    -0.055 C  
HETATM   23  C   UNL     1      -9.595  11.307  65.807  1.00  0.00    -0.256 C  
HETATM   24  C   UNL     1     -10.938  10.895  65.216  1.00  0.00     0.037 C  
BRANCH  22  25
HETATM   25  N   UNL     1      -8.336   9.370  64.874  1.00  0.00    -0.140 N  
HETATM   26  C   UNL     1      -9.014   8.424  65.681  1.00  0.00    -0.134 C  
HETATM   27  O   UNL     1      -9.880   8.605  66.519  1.00  0.00    -0.237 OA 
HETATM   28  N   UNL     1      -8.503   7.161  65.343  1.00  0.00    -0.119 NA 
HETATM   29  C   UNL     1      -7.527   7.305  64.375  1.00  0.00    -0.097 A  
HETATM   30  C   UNL     1      -6.750   6.327  63.784  1.00  0.00    -0.037 A  
HETATM   31  C   UNL     1      -5.796   6.750  62.862  1.00  0.00    -0.039 A  
HETATM   32  C   UNL     1      -5.650   8.115  62.550  1.00  0.00    -0.070 A  
HETATM   33  C   UNL     1      -6.476   9.084  63.141  1.00  0.00    -0.090 A  
HETATM   34  C   UNL     1      -7.406   8.658  64.071  1.00  0.00    -0.106 A  
ENDBRANCH  22  25
ENDBRANCH  18  19
ENDBRANCH  17  18
ENDBRANCH   8  17
TORSDOF 4
ENDMDL
MODEL      263
REMARK 921   NORMALIZED FREE ENERGY PREDICTED BY IDOCK:   -2.82 KCAL/MOL
REMARK 922        TOTAL FREE ENERGY PREDICTED BY IDOCK:   -4.27 KCAL/MOL
REMARK 923 INTER-LIGAND FREE ENERGY PREDICTED BY IDOCK:   -3.53 KCAL/MOL
REMARK 924 INTRA-LIGAND FREE ENERGY PREDICTED BY IDOCK:   -0.74 KCAL/MOL
REMARK 927      BINDING AFFINITY PREDICTED BY RF-SCORE:    0.00 PKD
ROOT
HETATM    1  F   UNL     1     -12.510  14.574  69.695  1.00  0.00    -0.347 F  
HETATM    2  C   UNL     1     -11.382  14.074  69.174  1.00  0.00    -0.281 A  
HETATM    3  C   UNL     1     -10.524  14.900  68.463  1.00  0.00    -0.242 A  
HETATM    4  C   UNL     1      -9.355  14.370  67.905  1.00  0.00    -0.203 A  
HETATM    5  C   UNL     1      -9.029  13.007  68.057  1.00  0.00    -0.199 A  
HETATM    6  C   UNL     1      -7.775  12.437  67.370  1.00  0.00    -0.170 C  
HETATM    7  C   UNL     1      -9.923  12.201  68.784  1.00  0.00    -0.066 A  
HETATM    8  C   UNL     1      -6.673  11.917  68.344  1.00  0.00    -0.067 C  
HETATM    9  C   UNL     1     -11.091  12.729  69.341  1.00  0.00    -0.129 A  
HETATM   10  C   UNL     1      -8.013  11.576  66.120  1.00  0.00     0.093 A  
HETATM   11  C   UNL     1      -9.295  11.240  65.654  1.00  0.00    -0.245 A  
HETATM   12  F   UNL     1      -8.527   9.515  62.552  1.00  0.00    -0.138 F  
HETATM   13  C   UNL     1      -6.911  11.192  65.332  1.00  0.00     0.447 A  
HETATM   14  C   UNL     1      -9.468  10.533  64.458  1.00  0.00    -0.329 A  
HETATM   15  C   UNL     1      -8.356  10.167  63.709  1.00  0.00    -0.171 A  
HETATM   16  C   UNL     1      -7.078  10.488  64.135  1.00  0.00     0.126 A  
ENDROOT
BRANCH   8  17
HETATM   17  C   UNL     1      -6.966  10.807  69.361  1.00  0.00    -0.116 C  
BRANCH  17  18
HETATM   18  C   UNL     1      -6.486   9.382  69.063  1.00  0.00    -0.046 C  
BRANCH  18  19
HETATM   19  N   UNL     1      -7.484   8.313  68.994  1.00  0.00    -0.089 NA 
HETATM   20  C   UNL     1      -8.691   8.011  66.711  1.00  0.00    -0.142 C  
HETATM   21  C   UNL     1      -8.676   8.544  68.164  1.00  0.00    -0.142 C  
HETATM   22  C   UNL     1      -7.891   6.715  66.458  1.00  0.00    -0.104 C  
HETATM   23  C   UNL     1      -6.564   6.863  67.202  1.00  0.00    -0.051 C  
HETATM   24  C   UNL     1      -6.844   7.028  68.691  1.00  0.00    -0.076 C  
BRANCH  22  25
HETATM   25  N   UNL     1      -8.558   5.439  66.754  1.00  0.00    -0.110 N  
HETATM   26  C   UNL     1      -9.937   5.205  66.979  1.00  0.00    -0.196 C  
HETATM   27  O   UNL     1     -10.869   5.988  66.938  1.00  0.00    -0.313 OA 
HETATM   28  N   UNL     1     -10.073   3.839  67.273  1.00  0.00     0.205 NA 
HETATM   29  C   UNL     1      -8.829   3.238  67.254  1.00  0.00    -0.134 A  
HETATM   30  C   UNL     1      -8.504   1.920  67.517  1.00  0.00    -0.094 A  
HETATM   31  C   UNL     1      -7.155   1.583  67.476  1.00  0.00    -0.035 A  
HETATM   32  C   UNL     1      -6.178   2.549  67.168  1.00  0.00    -0.028 A  
HETATM   33  C   UNL     1      -6.539   3.873  66.874  1.00  0.00    -0.046 A  
HETATM   34  C   UNL     1      -7.879   4.205  66.937  1.00  0.00    -0.097 A  
ENDBRANCH  22  25
ENDBRANCH  18  19
ENDBRANCH  17  18
ENDBRANCH   8  17
TORSDOF 4
ENDMDL
MODEL      264
REMARK 921   NORMALIZED FREE ENERGY PREDICTED BY IDOCK:   -2.82 KCAL/MOL
REMARK 922        TOTAL FREE ENERGY PREDICTED BY IDOCK:   -4.26 KCAL/MOL
REMARK 923 INTER-LIGAND FREE ENERGY PREDICTED BY IDOCK:   -4.76 KCAL/MOL
REMARK 924 INTRA-LIGAND FREE ENERGY PREDICTED BY IDOCK:    0.50 KCAL/MOL
REMARK 927      BINDING AFFINITY PREDICTED BY RF-SCORE:    0.00 PKD
ROOT
HETATM    1  F   UNL     1     -11.606  13.409  68.436  1.00  0.00    -0.284 F  
HETATM    2  C   UNL     1     -11.607  12.269  69.139  1.00  0.00    -0.318 A  
HETATM    3  C   UNL     1     -12.316  12.193  70.330  1.00  0.00    -0.269 A  
HETATM    4  C   UNL     1     -12.301  11.006  71.071  1.00  0.00    -0.490 A  
HETATM    5  C   UNL     1     -11.578   9.879  70.627  1.00  0.00    -0.413 A  
HETATM    6  C   UNL     1     -11.520   8.613  71.500  1.00  0.00    -0.363 C  
HETATM    7  C   UNL     1     -10.873   9.994  69.416  1.00  0.00    -0.270 A  
HETATM    8  C   UNL     1     -12.190   7.351  70.872  1.00  0.00    -0.265 C  
HETATM    9  C   UNL     1     -10.887  11.179  68.676  1.00  0.00    -0.251 A  
HETATM   10  C   UNL     1     -10.201   8.358  72.246  1.00  0.00    -0.396 A  
HETATM   11  C   UNL     1      -9.067   9.172  72.095  1.00  0.00     0.416 A  
HETATM   12  F   UNL     1      -6.807   7.758  74.560  1.00  0.00    -0.104 F  
HETATM   13  C   UNL     1     -10.147   7.336  73.213  1.00  0.00    -0.341 A  
HETATM   14  C   UNL     1      -7.917   8.961  72.865  1.00  0.00     0.390 A  
HETATM   15  C   UNL     1      -7.898   7.939  73.806  1.00  0.00    -0.176 A  
HETATM   16  C   UNL     1      -9.002   7.122  73.986  1.00  0.00    -0.246 A  
ENDROOT
BRANCH   8  17
HETATM   17  C   UNL     1     -11.723   6.787  69.525  1.00  0.00    -0.096 C  
BRANCH  17  18
HETATM   18  C   UNL     1     -10.287   6.265  69.397  1.00  0.00    -0.216 C  
BRANCH  18  19
HETATM   19  N   UNL     1      -9.645   6.312  68.083  1.00  0.00    -0.116 NA 
HETATM   20  C   UNL     1     -10.441   8.198  66.480  1.00  0.00    -0.041 C  
HETATM   21  C   UNL     1     -10.469   6.718  66.934  1.00  0.00    -0.280 C  
HETATM   22  C   UNL     1      -9.109   8.947  66.697  1.00  0.00    -0.156 C  
HETATM   23  C   UNL     1      -8.613   8.568  68.092  1.00  0.00    -0.138 C  
HETATM   24  C   UNL     1      -8.386   7.062  68.149  1.00  0.00    -0.123 C  
BRANCH  22  25
HETATM   25  N   UNL     1      -8.067   8.787  65.672  1.00  0.00    -0.103 N  
HETATM   26  C   UNL     1      -7.014   9.677  65.350  1.00  0.00    -0.095 C  
HETATM   27  O   UNL     1      -6.715  10.738  65.868  1.00  0.00    -0.127 OA 
HETATM   28  N   UNL     1      -6.318   9.109  64.271  1.00  0.00    -0.075 NA 
HETATM   29  C   UNL     1      -6.920   7.917  63.912  1.00  0.00    -0.063 A  
HETATM   30  C   UNL     1      -6.580   7.054  62.888  1.00  0.00    -0.048 A  
HETATM   31  C   UNL     1      -7.388   5.936  62.710  1.00  0.00    -0.055 A  
HETATM   32  C   UNL     1      -8.493   5.703  63.551  1.00  0.00     0.020 A  
HETATM   33  C   UNL     1      -8.797   6.579  64.604  1.00  0.00     0.469 A  
HETATM   34  C   UNL     1      -8.001   7.699  64.762  1.00  0.00    -0.137 A  
ENDBRANCH  22  25
ENDBRANCH  18  19
ENDBRANCH  17  18
ENDBRANCH   8  17
TORSDOF 4
ENDMDL
MODEL      265
REMARK 921   NORMALIZED FREE ENERGY PREDICTED BY IDOCK:   -2.78 KCAL/MOL
REMARK 922        TOTAL FREE ENERGY PREDICTED BY IDOCK:   -4.22 KCAL/MOL
REMARK 923 INTER-LIGAND FREE ENERGY PREDICTED BY IDOCK:   -4.13 KCAL/MOL
REMARK 924 INTRA-LIGAND FREE ENERGY PREDICTED BY IDOCK:   -0.09 KCAL/MOL
REMARK 927      BINDING AFFINITY PREDICTED BY RF-SCORE:    0.00 PKD
ROOT
HETATM    1  F   UNL     1      -8.463  18.468  68.987  1.00  0.00    -0.303 F  
HETATM    2  C   UNL     1      -9.247  17.442  68.632  1.00  0.00    -0.265 A  
HETATM    3  C   UNL     1     -10.388  17.158  69.369  1.00  0.00    -0.195 A  
HETATM    4  C   UNL     1     -11.196  16.074  69.007  1.00  0.00    -0.347 A  
HETATM    5  C   UNL     1     -10.872  15.264  67.900  1.00  0.00    -0.288 A  
HETATM    6  C   UNL     1     -11.738  14.034  67.570  1.00  0.00    -0.421 C  
HETATM    7  C   UNL     1      -9.709  15.583  67.177  1.00  0.00    -0.226 A  
HETATM    8  C   UNL     1     -12.485  14.106  66.202  1.00  0.00    -0.426 C  
HETATM    9  C   UNL     1      -8.902  16.664  67.539  1.00  0.00    -0.202 A  
HETATM   10  C   UNL     1     -11.143  12.664  67.927  1.00  0.00    -0.285 A  
HETATM   11  C   UNL     1      -9.849  12.504  68.450  1.00  0.00    -0.202 A  
HETATM   12  F   UNL     1      -9.769   8.943  69.155  1.00  0.00    -0.159 F  
HETATM   13  C   UNL     1     -11.957  11.519  67.840  1.00  0.00    -0.145 A  
HETATM   14  C   UNL     1      -9.380  11.247  68.851  1.00  0.00    -0.084 A  
HETATM   15  C   UNL     1     -10.211  10.139  68.745  1.00  0.00    -0.186 A  
HETATM   16  C   UNL     1     -11.495  10.261  68.241  1.00  0.00    -0.149 A  
ENDROOT
BRANCH   8  17
HETATM   17  C   UNL     1     -11.719  14.273  64.883  1.00  0.00    -0.399 C  
BRANCH  17  18
HETATM   18  C   UNL     1     -11.798  13.159  63.833  1.00  0.00    -0.472 C  
BRANCH  18  19
HETATM   19  N   UNL     1     -11.259  11.842  64.176  1.00  0.00    -0.357 NA 
HETATM   20  C   UNL     1      -9.369  10.936  62.637  1.00  0.00    -0.343 C  
HETATM   21  C   UNL     1     -10.855  10.960  63.070  1.00  0.00     0.529 C  
HETATM   22  C   UNL     1      -8.335  11.191  63.755  1.00  0.00     0.407 C  
HETATM   23  C   UNL     1      -8.867  12.355  64.591  1.00  0.00     1.389 C  
HETATM   24  C   UNL     1     -10.210  11.962  65.194  1.00  0.00    -0.277 C  
BRANCH  22  25
HETATM   25  N   UNL     1      -7.938  10.043  64.584  1.00  0.00    -0.141 N  
HETATM   26  C   UNL     1      -8.196   8.670  64.356  1.00  0.00    -0.162 C  
HETATM   27  O   UNL     1      -8.760   8.136  63.418  1.00  0.00     0.129 OA 
HETATM   28  N   UNL     1      -7.663   7.970  65.451  1.00  0.00    -0.090 NA 
HETATM   29  C   UNL     1      -7.108   8.867  66.343  1.00  0.00    -0.083 A  
HETATM   30  C   UNL     1      -6.507   8.611  67.561  1.00  0.00    -0.058 A  
HETATM   31  C   UNL     1      -6.071   9.711  68.294  1.00  0.00    -0.051 A  
HETATM   32  C   UNL     1      -6.232  11.019  67.797  1.00  0.00    -0.051 A  
HETATM   33  C   UNL     1      -6.817  11.248  66.543  1.00  0.00    -0.101 A  
HETATM   34  C   UNL     1      -7.267  10.152  65.830  1.00  0.00    -0.121 A  
ENDBRANCH  22  25
ENDBRANCH  18  19
ENDBRANCH  17  18
ENDBRANCH   8  17
TORSDOF 4
ENDMDL
MODEL      266
REMARK 921   NORMALIZED FREE ENERGY PREDICTED BY IDOCK:   -2.70 KCAL/MOL
REMARK 922        TOTAL FREE ENERGY PREDICTED BY IDOCK:   -4.12 KCAL/MOL
REMARK 923 INTER-LIGAND FREE ENERGY PREDICTED BY IDOCK:   -5.06 KCAL/MOL
REMARK 924 INTRA-LIGAND FREE ENERGY PREDICTED BY IDOCK:    0.94 KCAL/MOL
REMARK 927      BINDING AFFINITY PREDICTED BY RF-SCORE:    0.00 PKD
ROOT
HETATM    1  F   UNL     1     -10.114  16.651  66.028  1.00  0.00    -0.291 F  
HETATM    2  C   UNL     1     -10.173  15.313  66.067  1.00  0.00    -0.317 A  
HETATM    3  C   UNL     1     -11.313  14.659  65.622  1.00  0.00    -0.338 A  
HETATM    4  C   UNL     1     -11.379  13.262  65.680  1.00  0.00    -0.325 A  
HETATM    5  C   UNL     1     -10.302  12.504  66.184  1.00  0.00    -0.274 A  
HETATM    6  C   UNL     1     -10.432  10.975  66.305  1.00  0.00    -0.310 C  
HETATM    7  C   UNL     1      -9.164  13.202  66.625  1.00  0.00    -0.220 A  
HETATM    8  C   UNL     1      -9.456  10.159  65.402  1.00  0.00    -0.296 C  
HETATM    9  C   UNL     1      -9.098  14.596  66.567  1.00  0.00    -0.267 A  
HETATM   10  C   UNL     1     -10.643  10.418  67.722  1.00  0.00    -0.294 A  
HETATM   11  C   UNL     1     -10.638  11.226  68.870  1.00  0.00    -0.239 A  
HETATM   12  F   UNL     1     -11.545   8.844  71.456  1.00  0.00    -0.296 F  
HETATM   13  C   UNL     1     -10.968   9.058  67.882  1.00  0.00    -0.001 A  
HETATM   14  C   UNL     1     -10.928  10.693  70.132  1.00  0.00    -0.292 A  
HETATM   15  C   UNL     1     -11.240   9.344  70.252  1.00  0.00    -0.246 A  
HETATM   16  C   UNL     1     -11.261   8.520  69.139  1.00  0.00     0.315 A  
ENDROOT
BRANCH   8  17
HETATM   17  C   UNL     1      -7.935  10.323  65.519  1.00  0.00    -0.151 C  
BRANCH  17  18
HETATM   18  C   UNL     1      -7.031   9.147  65.131  1.00  0.00    -0.087 C  
BRANCH  18  19
HETATM   19  N   UNL     1      -6.390   8.381  66.201  1.00  0.00    -0.049 NA 
HETATM   20  C   UNL     1      -6.452   9.444  68.573  1.00  0.00    -0.053 C  
HETATM   21  C   UNL     1      -5.697   9.132  67.258  1.00  0.00    -0.042 C  
HETATM   22  C   UNL     1      -7.498   8.398  69.016  1.00  0.00    -0.093 C  
HETATM   23  C   UNL     1      -8.279   7.998  67.764  1.00  0.00    -0.129 C  
HETATM   24  C   UNL     1      -7.318   7.387  66.751  1.00  0.00    -0.092 C  
BRANCH  22  25
HETATM   25  N   UNL     1      -7.013   7.231  69.767  1.00  0.00    -0.056 N  
HETATM   26  C   UNL     1      -6.243   6.142  69.290  1.00  0.00    -0.033 C  
HETATM   27  O   UNL     1      -5.784   5.950  68.178  1.00  0.00    -0.011 OA 
HETATM   28  N   UNL     1      -6.077   5.259  70.369  1.00  0.00    -0.021 NA 
HETATM   29  C   UNL     1      -6.731   5.761  71.478  1.00  0.00    -0.058 A  
HETATM   30  C   UNL     1      -6.848   5.200  72.736  1.00  0.00    -0.076 A  
HETATM   31  C   UNL     1      -7.611   5.896  73.669  1.00  0.00    -0.097 A  
HETATM   32  C   UNL     1      -8.220   7.120  73.334  1.00  0.00    -0.131 A  
HETATM   33  C   UNL     1      -8.058   7.683  72.058  1.00  0.00    -0.115 A  
HETATM   34  C   UNL     1      -7.316   6.975  71.131  1.00  0.00    -0.076 A  
ENDBRANCH  22  25
ENDBRANCH  18  19
ENDBRANCH  17  18
ENDBRANCH   8  17
TORSDOF 4
ENDMDL
MODEL      267
REMARK 921   NORMALIZED FREE ENERGY PREDICTED BY IDOCK:   -2.69 KCAL/MOL
REMARK 922        TOTAL FREE ENERGY PREDICTED BY IDOCK:   -4.10 KCAL/MOL
REMARK 923 INTER-LIGAND FREE ENERGY PREDICTED BY IDOCK:   -4.67 KCAL/MOL
REMARK 924 INTRA-LIGAND FREE ENERGY PREDICTED BY IDOCK:    0.56 KCAL/MOL
REMARK 927      BINDING AFFINITY PREDICTED BY RF-SCORE:    0.00 PKD
ROOT
HETATM    1  F   UNL     1     -13.794  10.243  70.358  1.00  0.00    -0.168 F  
HETATM    2  C   UNL     1     -12.845  11.106  69.972  1.00  0.00     0.056 A  
HETATM    3  C   UNL     1     -12.679  12.301  70.657  1.00  0.00    -0.139 A  
HETATM    4  C   UNL     1     -11.698  13.208  70.241  1.00  0.00    -0.203 A  
HETATM    5  C   UNL     1     -10.869  12.927  69.135  1.00  0.00    -0.126 A  
HETATM    6  C   UNL     1      -9.849  13.976  68.656  1.00  0.00    -0.191 C  
HETATM    7  C   UNL     1     -11.066  11.706  68.468  1.00  0.00    -0.286 A  
HETATM    8  C   UNL     1      -8.355  13.546  68.786  1.00  0.00     0.067 C  
HETATM    9  C   UNL     1     -12.046  10.800  68.882  1.00  0.00    -0.107 A  
HETATM   10  C   UNL     1     -10.207  14.739  67.371  1.00  0.00    -0.236 A  
HETATM   11  C   UNL     1     -11.354  14.459  66.609  1.00  0.00    -0.359 A  
HETATM   12  F   UNL     1     -11.235  17.083  64.102  1.00  0.00    -0.165 F  
HETATM   13  C   UNL     1      -9.424  15.844  66.989  1.00  0.00    -0.234 A  
HETATM   14  C   UNL     1     -11.693  15.240  65.498  1.00  0.00     0.025 A  
HETATM   15  C   UNL     1     -10.892  16.320  65.148  1.00  0.00    -0.318 A  
HETATM   16  C   UNL     1      -9.758  16.629  65.881  1.00  0.00    -0.269 A  
ENDROOT
BRANCH   8  17
HETATM   17  C   UNL     1      -7.821  12.291  68.084  1.00  0.00    -0.148 C  
BRANCH  17  18
HETATM   18  C   UNL     1      -8.185  12.053  66.614  1.00  0.00    -0.056 C  
BRANCH  18  19
HETATM   19  N   UNL     1      -8.618  10.713  66.214  1.00  0.00    -0.147 NA 
HETATM   20  C   UNL     1      -6.741   9.065  65.493  1.00  0.00    -0.072 C  
HETATM   21  C   UNL     1      -7.877  10.051  65.129  1.00  0.00    -0.136 C  
HETATM   22  C   UNL     1      -6.924   8.279  66.810  1.00  0.00    -0.070 C  
HETATM   23  C   UNL     1      -7.431   9.276  67.851  1.00  0.00    -0.084 C  
HETATM   24  C   UNL     1      -8.766   9.846  67.388  1.00  0.00    -0.128 C  
BRANCH  22  25
HETATM   25  N   UNL     1      -7.741   7.058  66.761  1.00  0.00    -0.097 N  
HETATM   26  C   UNL     1      -8.362   6.378  67.837  1.00  0.00    -0.118 C  
HETATM   27  O   UNL     1      -8.392   6.670  69.020  1.00  0.00    -0.118 OA 
HETATM   28  N   UNL     1      -8.983   5.242  67.295  1.00  0.00    -0.112 NA 
HETATM   29  C   UNL     1      -8.747   5.195  65.934  1.00  0.00    -0.135 A  
HETATM   30  C   UNL     1      -9.147   4.234  65.024  1.00  0.00    -0.146 A  
HETATM   31  C   UNL     1      -8.730   4.402  63.706  1.00  0.00    -0.129 A  
HETATM   32  C   UNL     1      -7.947   5.512  63.333  1.00  0.00    -0.101 A  
HETATM   33  C   UNL     1      -7.583   6.488  64.272  1.00  0.00    -0.100 A  
HETATM   34  C   UNL     1      -7.983   6.304  65.582  1.00  0.00    -0.115 A  
ENDBRANCH  22  25
ENDBRANCH  18  19
ENDBRANCH  17  18
ENDBRANCH   8  17
TORSDOF 4
ENDMDL
MODEL      268
REMARK 921   NORMALIZED FREE ENERGY PREDICTED BY IDOCK:   -2.55 KCAL/MOL
REMARK 922        TOTAL FREE ENERGY PREDICTED BY IDOCK:   -3.94 KCAL/MOL
REMARK 923 INTER-LIGAND FREE ENERGY PREDICTED BY IDOCK:   -4.98 KCAL/MOL
REMARK 924 INTRA-LIGAND FREE ENERGY PREDICTED BY IDOCK:    1.05 KCAL/MOL
REMARK 927      BINDING AFFINITY PREDICTED BY RF-SCORE:    0.00 PKD
ROOT
HETATM    1  F   UNL     1      -8.167   4.292  64.776  1.00  0.00    -0.096 F  
HETATM    2  C   UNL     1      -8.181   5.101  65.844  1.00  0.00    -0.115 A  
HETATM    3  C   UNL     1      -7.011   5.722  66.255  1.00  0.00    -0.060 A  
HETATM    4  C   UNL     1      -7.026   6.553  67.381  1.00  0.00    -0.078 A  
HETATM    5  C   UNL     1      -8.214   6.772  68.108  1.00  0.00    -0.114 A  
HETATM    6  C   UNL     1      -8.184   7.630  69.386  1.00  0.00    -0.129 C  
HETATM    7  C   UNL     1      -9.379   6.125  67.661  1.00  0.00    -0.112 A  
HETATM    8  C   UNL     1      -9.010   8.952  69.308  1.00  0.00    -0.144 C  
HETATM    9  C   UNL     1      -9.365   5.296  66.536  1.00  0.00    -0.146 A  
HETATM   10  C   UNL     1      -8.273   6.873  70.719  1.00  0.00    -0.122 A  
HETATM   11  C   UNL     1      -8.456   5.482  70.799  1.00  0.00    -0.122 A  
HETATM   12  F   UNL     1      -8.173   4.902  74.372  1.00  0.00    -0.100 F  
HETATM   13  C   UNL     1      -8.050   7.571  71.921  1.00  0.00    -0.103 A  
HETATM   14  C   UNL     1      -8.437   4.820  72.032  1.00  0.00    -0.119 A  
HETATM   15  C   UNL     1      -8.219   5.543  73.198  1.00  0.00    -0.118 A  
HETATM   16  C   UNL     1      -8.028   6.915  73.155  1.00  0.00    -0.110 A  
ENDROOT
BRANCH   8  17
HETATM   17  C   UNL     1     -10.516   8.936  69.014  1.00  0.00    -0.231 C  
BRANCH  17  18
HETATM   18  C   UNL     1     -11.389  10.070  69.561  1.00  0.00    -0.169 C  
BRANCH  18  19
HETATM   19  N   UNL     1     -11.650  11.225  68.700  1.00  0.00    -0.295 NA 
HETATM   20  C   UNL     1      -9.979  13.207  68.898  1.00  0.00     0.066 C  
HETATM   21  C   UNL     1     -11.344  12.559  69.236  1.00  0.00    -0.245 C  
HETATM   22  C   UNL     1      -9.380  12.841  67.523  1.00  0.00    -0.189 C  
HETATM   23  C   UNL     1      -9.575  11.335  67.344  1.00  0.00    -0.182 C  
HETATM   24  C   UNL     1     -11.065  11.019  67.371  1.00  0.00    -0.305 C  
BRANCH  22  25
HETATM   25  N   UNL     1      -9.843  13.606  66.357  1.00  0.00    -0.290 N  
HETATM   26  C   UNL     1     -10.127  13.129  65.054  1.00  0.00    -0.222 C  
HETATM   27  O   UNL     1     -10.089  11.989  64.625  1.00  0.00    -0.269 OA 
HETATM   28  N   UNL     1     -10.484  14.245  64.281  1.00  0.00    -0.020 NA 
HETATM   29  C   UNL     1     -10.411  15.385  65.060  1.00  0.00    -0.329 A  
HETATM   30  C   UNL     1     -10.648  16.696  64.691  1.00  0.00     0.453 A  
HETATM   31  C   UNL     1     -10.453  17.670  65.666  1.00  0.00    -0.150 A  
HETATM   32  C   UNL     1     -10.044  17.318  66.967  1.00  0.00    -0.303 A  
HETATM   33  C   UNL     1      -9.842  15.976  67.322  1.00  0.00    -0.236 A  
HETATM   34  C   UNL     1     -10.017  15.016  66.343  1.00  0.00    -0.279 A  
ENDBRANCH  22  25
ENDBRANCH  18  19
ENDBRANCH  17  18
ENDBRANCH   8  17
TORSDOF 4
ENDMDL
MODEL      269
REMARK 921   NORMALIZED FREE ENERGY PREDICTED BY IDOCK:   -2.52 KCAL/MOL
REMARK 922        TOTAL FREE ENERGY PREDICTED BY IDOCK:   -3.89 KCAL/MOL
REMARK 923 INTER-LIGAND FREE ENERGY PREDICTED BY IDOCK:   -4.80 KCAL/MOL
REMARK 924 INTRA-LIGAND FREE ENERGY PREDICTED BY IDOCK:    0.90 KCAL/MOL
REMARK 927      BINDING AFFINITY PREDICTED BY RF-SCORE:    0.00 PKD
ROOT
HETATM    1  F   UNL     1      -6.894   4.586  62.346  1.00  0.00    -0.028 F  
HETATM    2  C   UNL     1      -7.016   5.488  63.329  1.00  0.00    -0.038 A  
HETATM    3  C   UNL     1      -6.048   6.468  63.491  1.00  0.00    -0.030 A  
HETATM    4  C   UNL     1      -6.169   7.398  64.530  1.00  0.00    -0.037 A  
HETATM    5  C   UNL     1      -7.264   7.359  65.417  1.00  0.00    -0.069 A  
HETATM    6  C   UNL     1      -7.333   8.348  66.595  1.00  0.00    -0.082 C  
HETATM    7  C   UNL     1      -8.225   6.352  65.221  1.00  0.00    -0.137 A  
HETATM    8  C   UNL     1      -8.524   9.354  66.539  1.00  0.00    -0.137 C  
HETATM    9  C   UNL     1      -8.104   5.422  64.185  1.00  0.00    -0.123 A  
HETATM   10  C   UNL     1      -7.015   7.777  67.985  1.00  0.00    -0.080 A  
HETATM   11  C   UNL     1      -6.755   6.416  68.213  1.00  0.00    -0.068 A  
HETATM   12  F   UNL     1      -5.852   6.412  71.730  1.00  0.00    -0.032 F  
HETATM   13  C   UNL     1      -6.863   8.661  69.071  1.00  0.00    -0.056 A  
HETATM   14  C   UNL     1      -6.376   5.953  69.479  1.00  0.00    -0.041 A  
HETATM   15  C   UNL     1      -6.241   6.854  70.528  1.00  0.00    -0.028 A  
HETATM   16  C   UNL     1      -6.483   8.205  70.337  1.00  0.00    -0.036 A  
ENDROOT
BRANCH   8  17
HETATM   17  C   UNL     1      -9.978   8.867  66.494  1.00  0.00    -0.358 C  
BRANCH  17  18
HETATM   18  C   UNL     1     -10.400   7.708  67.404  1.00  0.00    -0.277 C  
BRANCH  18  19
HETATM   19  N   UNL     1      -9.919   7.698  68.786  1.00  0.00    -0.169 NA 
HETATM   20  C   UNL     1     -11.670   8.284  70.618  1.00  0.00    -0.153 C  
HETATM   21  C   UNL     1     -10.482   8.693  69.712  1.00  0.00    -0.220 C  
HETATM   22  C   UNL     1     -11.706   6.805  71.058  1.00  0.00    -0.355 C  
HETATM   23  C   UNL     1     -11.364   5.969  69.824  1.00  0.00    -0.344 C  
HETATM   24  C   UNL     1      -9.968   6.341  69.341  1.00  0.00    -0.159 C  
BRANCH  22  25
HETATM   25  N   UNL     1     -10.901   6.427  72.228  1.00  0.00    -0.229 N  
HETATM   26  C   UNL     1     -11.129   5.369  73.142  1.00  0.00    -0.308 C  
HETATM   27  O   UNL     1     -12.007   4.525  73.141  1.00  0.00    -0.135 OA 
HETATM   28  N   UNL     1     -10.119   5.447  74.114  1.00  0.00    -0.214 NA 
HETATM   29  C   UNL     1      -9.297   6.523  73.836  1.00  0.00    -0.166 A  
HETATM   30  C   UNL     1      -8.204   6.978  74.550  1.00  0.00    -0.189 A  
HETATM   31  C   UNL     1      -7.573   8.124  74.075  1.00  0.00    -0.244 A  
HETATM   32  C   UNL     1      -8.033   8.772  72.912  1.00  0.00     0.180 A  
HETATM   33  C   UNL     1      -9.125   8.269  72.189  1.00  0.00    -0.279 A  
HETATM   34  C   UNL     1      -9.759   7.142  72.679  1.00  0.00    -0.157 A  
ENDBRANCH  22  25
ENDBRANCH  18  19
ENDBRANCH  17  18
ENDBRANCH   8  17
TORSDOF 4
ENDMDL
MODEL      270
REMARK 921   NORMALIZED FREE ENERGY PREDICTED BY IDOCK:   -2.39 KCAL/MOL
REMARK 922        TOTAL FREE ENERGY PREDICTED BY IDOCK:   -3.73 KCAL/MOL
REMARK 923 INTER-LIGAND FREE ENERGY PREDICTED BY IDOCK:   -4.65 KCAL/MOL
REMARK 924 INTRA-LIGAND FREE ENERGY PREDICTED BY IDOCK:    0.92 KCAL/MOL
REMARK 927      BINDING AFFINITY PREDICTED BY RF-SCORE:    0.00 PKD
ROOT
HETATM    1  F   UNL     1     -11.471  16.527  71.687  1.00  0.00    -0.450 F  
HETATM    2  C   UNL     1     -11.577  15.451  70.896  1.00  0.00    -0.358 A  
HETATM    3  C   UNL     1     -12.789  14.784  70.796  1.00  0.00    -0.418 A  
HETATM    4  C   UNL     1     -12.891  13.650  69.982  1.00  0.00     0.123 A  
HETATM    5  C   UNL     1     -11.780  13.172  69.257  1.00  0.00    -0.376 A  
HETATM    6  C   UNL     1     -11.903  11.879  68.430  1.00  0.00    -0.352 C  
HETATM    7  C   UNL     1     -10.569  13.874  69.384  1.00  0.00     0.019 A  
HETATM    8  C   UNL     1     -11.733  12.068  66.890  1.00  0.00    -0.342 C  
HETATM    9  C   UNL     1     -10.466  15.006  70.197  1.00  0.00    -0.108 A  
HETATM   10  C   UNL     1     -11.240  10.626  69.020  1.00  0.00    -0.324 A  
HETATM   11  C   UNL     1     -10.486  10.644  70.204  1.00  0.00     0.031 A  
HETATM   12  F   UNL     1      -9.773   7.116  70.683  1.00  0.00    -0.174 F  
HETATM   13  C   UNL     1     -11.483   9.375  68.420  1.00  0.00     0.494 A  
HETATM   14  C   UNL     1      -9.979   9.462  70.758  1.00  0.00    -0.358 A  
HETATM   15  C   UNL     1     -10.235   8.247  70.135  1.00  0.00    -0.199 A  
HETATM   16  C   UNL     1     -10.981   8.191  68.970  1.00  0.00     0.093 A  
ENDROOT
BRANCH   8  17
HETATM   17  C   UNL     1     -10.450  12.662  66.296  1.00  0.00    -0.270 C  
BRANCH  17  18
HETATM   18  C   UNL     1      -9.104  12.016  66.642  1.00  0.00    -0.205 C  
BRANCH  18  19
HETATM   19  N   UNL     1      -8.558  12.224  67.984  1.00  0.00    -0.168 NA 
HETATM   20  C   UNL     1      -6.026  11.716  68.288  1.00  0.00    -0.045 C  
HETATM   21  C   UNL     1      -7.509  11.301  68.445  1.00  0.00    -0.108 C  
HETATM   22  C   UNL     1      -5.733  13.229  68.386  1.00  0.00    -0.084 C  
HETATM   23  C   UNL     1      -6.815  13.941  67.573  1.00  0.00    -0.148 C  
HETATM   24  C   UNL     1      -8.179  13.627  68.176  1.00  0.00    -0.158 C  
BRANCH  22  25
HETATM   25  N   UNL     1      -5.577  13.802  69.731  1.00  0.00    -0.096 N  
HETATM   26  C   UNL     1      -5.639  13.135  70.978  1.00  0.00    -0.175 C  
HETATM   27  O   UNL     1      -5.793  11.950  71.212  1.00  0.00    -0.363 OA 
HETATM   28  N   UNL     1      -5.482  14.115  71.971  1.00  0.00    -0.210 NA 
HETATM   29  C   UNL     1      -5.346  15.355  71.375  1.00  0.00     0.007 A  
HETATM   30  C   UNL     1      -5.200  16.590  71.979  1.00  0.00     0.652 A  
HETATM   31  C   UNL     1      -5.133  17.698  71.140  1.00  0.00    -0.168 A  
HETATM   32  C   UNL     1      -5.199  17.550  69.741  1.00  0.00    -0.191 A  
HETATM   33  C   UNL     1      -5.314  16.281  69.154  1.00  0.00    -0.112 A  
HETATM   34  C   UNL     1      -5.402  15.187  69.994  1.00  0.00    -0.113 A  
ENDBRANCH  22  25
ENDBRANCH  18  19
ENDBRANCH  17  18
ENDBRANCH   8  17
TORSDOF 4
ENDMDL
MODEL      271
REMARK 921   NORMALIZED FREE ENERGY PREDICTED BY IDOCK:   -2.37 KCAL/MOL
REMARK 922        TOTAL FREE ENERGY PREDICTED BY IDOCK:   -3.72 KCAL/MOL
REMARK 923 INTER-LIGAND FREE ENERGY PREDICTED BY IDOCK:   -3.39 KCAL/MOL
REMARK 924 INTRA-LIGAND FREE ENERGY PREDICTED BY IDOCK:   -0.33 KCAL/MOL
REMARK 927      BINDING AFFINITY PREDICTED BY RF-SCORE:    0.00 PKD
ROOT
HETATM    1  F   UNL     1      -8.729   2.736  65.450  1.00  0.00    -0.102 F  
HETATM    2  C   UNL     1      -8.810   3.385  66.619  1.00  0.00    -0.137 A  
HETATM    3  C   UNL     1      -9.714   2.960  67.582  1.00  0.00     0.125 A  
HETATM    4  C   UNL     1      -9.809   3.651  68.796  1.00  0.00     0.088 A  
HETATM    5  C   UNL     1      -8.998   4.774  69.059  1.00  0.00    -0.139 A  
HETATM    6  C   UNL     1      -9.178   5.558  70.372  1.00  0.00    -0.182 C  
HETATM    7  C   UNL     1      -8.095   5.174  68.059  1.00  0.00    -0.098 A  
HETATM    8  C   UNL     1      -7.946   5.526  71.329  1.00  0.00    -0.111 C  
HETATM    9  C   UNL     1      -7.999   4.485  66.847  1.00  0.00    -0.102 A  
HETATM   10  C   UNL     1      -9.897   6.911  70.266  1.00  0.00    -0.186 A  
HETATM   11  C   UNL     1     -10.306   7.467  69.043  1.00  0.00    -0.214 A  
HETATM   12  F   UNL     1     -12.118  10.417  70.138  1.00  0.00    -0.303 F  
HETATM   13  C   UNL     1     -10.272   7.583  71.445  1.00  0.00    -0.201 A  
HETATM   14  C   UNL     1     -11.043   8.657  68.999  1.00  0.00     0.191 A  
HETATM   15  C   UNL     1     -11.390   9.294  70.183  1.00  0.00    -0.164 A  
HETATM   16  C   UNL     1     -11.009   8.770  71.408  1.00  0.00    -0.360 A  
ENDROOT
BRANCH   8  17
HETATM   17  C   UNL     1      -6.572   6.040  70.880  1.00  0.00    -0.045 C  
BRANCH  17  18
HETATM   18  C   UNL     1      -6.138   7.451  71.290  1.00  0.00    -0.036 C  
BRANCH  18  19
HETATM   19  N   UNL     1      -6.830   8.593  70.690  1.00  0.00    -0.041 NA 
HETATM   20  C   UNL     1      -5.320  10.491  69.753  1.00  0.00    -0.039 C  
HETATM   21  C   UNL     1      -6.232   9.925  70.868  1.00  0.00    -0.070 C  
HETATM   22  C   UNL     1      -5.664  10.055  68.312  1.00  0.00    -0.042 C  
HETATM   23  C   UNL     1      -5.965   8.558  68.364  1.00  0.00    -0.042 C  
HETATM   24  C   UNL     1      -7.155   8.320  69.286  1.00  0.00    -0.060 C  
BRANCH  22  25
HETATM   25  N   UNL     1      -6.710  10.811  67.608  1.00  0.00    -0.068 N  
HETATM   26  C   UNL     1      -7.424  10.438  66.443  1.00  0.00    -0.120 C  
HETATM   27  O   UNL     1      -7.361   9.407  65.797  1.00  0.00    -0.092 OA 
HETATM   28  N   UNL     1      -8.275  11.510  66.128  1.00  0.00    -0.052 NA 
HETATM   29  C   UNL     1      -8.092  12.526  67.046  1.00  0.00    -0.105 A  
HETATM   30  C   UNL     1      -8.701  13.767  67.091  1.00  0.00    -0.231 A  
HETATM   31  C   UNL     1      -8.297  14.632  68.103  1.00  0.00    -0.144 A  
HETATM   32  C   UNL     1      -7.319  14.243  69.038  1.00  0.00    -0.117 A  
HETATM   33  C   UNL     1      -6.740  12.965  68.988  1.00  0.00    -0.095 A  
HETATM   34  C   UNL     1      -7.131  12.119  67.968  1.00  0.00    -0.096 A  
ENDBRANCH  22  25
ENDBRANCH  18  19
ENDBRANCH  17  18
ENDBRANCH   8  17
TORSDOF 4
ENDMDL
MODEL      272
REMARK 921   NORMALIZED FREE ENERGY PREDICTED BY IDOCK:   -2.25 KCAL/MOL
REMARK 922        TOTAL FREE ENERGY PREDICTED BY IDOCK:   -3.57 KCAL/MOL
REMARK 923 INTER-LIGAND FREE ENERGY PREDICTED BY IDOCK:   -3.35 KCAL/MOL
REMARK 924 INTRA-LIGAND FREE ENERGY PREDICTED BY IDOCK:   -0.21 KCAL/MOL
REMARK 927      BINDING AFFINITY PREDICTED BY RF-SCORE:    0.00 PKD
ROOT
HETATM    1  F   UNL     1      -7.536  11.021  63.911  1.00  0.00     0.151 F  
HETATM    2  C   UNL     1      -8.476  11.061  64.865  1.00  0.00     0.112 A  
HETATM    3  C   UNL     1      -9.745  11.533  64.564  1.00  0.00    -0.236 A  
HETATM    4  C   UNL     1     -10.720  11.591  65.567  1.00  0.00    -0.328 A  
HETATM    5  C   UNL     1     -10.434  11.172  66.883  1.00  0.00    -0.289 A  
HETATM    6  C   UNL     1     -11.503  11.316  67.982  1.00  0.00    -0.369 C  
HETATM    7  C   UNL     1      -9.137  10.699  67.149  1.00  0.00    -0.154 A  
HETATM    8  C   UNL     1     -12.008   9.970  68.587  1.00  0.00     0.685 C  
HETATM    9  C   UNL     1      -8.164  10.642  66.149  1.00  0.00    -0.156 A  
HETATM   10  C   UNL     1     -11.296  12.457  68.990  1.00  0.00    -0.336 A  
HETATM   11  C   UNL     1     -10.162  13.287  68.985  1.00  0.00     0.071 A  
HETATM   12  F   UNL     1     -11.005  15.707  71.557  1.00  0.00    -0.385 F  
HETATM   13  C   UNL     1     -12.330  12.771  69.893  1.00  0.00    -0.138 A  
HETATM   14  C   UNL     1     -10.058  14.374  69.861  1.00  0.00     0.468 A  
HETATM   15  C   UNL     1     -11.096  14.650  70.741  1.00  0.00     0.051 A  
HETATM   16  C   UNL     1     -12.232  13.857  70.768  1.00  0.00    -0.441 A  
ENDROOT
BRANCH   8  17
HETATM   17  C   UNL     1     -11.043   8.985  69.260  1.00  0.00     0.037 C  
BRANCH  17  18
HETATM   18  C   UNL     1     -11.074   8.842  70.785  1.00  0.00    -0.260 C  
BRANCH  18  19
HETATM   19  N   UNL     1      -9.835   8.479  71.475  1.00  0.00    -0.214 NA 
HETATM   20  C   UNL     1     -10.099   7.126  73.680  1.00  0.00    -0.389 C  
HETATM   21  C   UNL     1      -9.850   8.466  72.945  1.00  0.00    -0.162 C  
HETATM   22  C   UNL     1      -9.584   5.858  72.964  1.00  0.00    -0.154 C  
HETATM   23  C   UNL     1      -9.959   6.001  71.489  1.00  0.00    -0.212 C  
HETATM   24  C   UNL     1      -9.279   7.240  70.920  1.00  0.00    -0.155 C  
BRANCH  22  25
HETATM   25  N   UNL     1      -8.169   5.504  73.149  1.00  0.00    -0.118 N  
HETATM   26  C   UNL     1      -7.139   6.288  73.724  1.00  0.00    -0.083 C  
HETATM   27  O   UNL     1      -7.202   7.398  74.222  1.00  0.00    -0.100 OA 
HETATM   28  N   UNL     1      -5.957   5.538  73.627  1.00  0.00    -0.049 NA 
HETATM   29  C   UNL     1      -6.224   4.337  72.999  1.00  0.00    -0.017 A  
HETATM   30  C   UNL     1      -5.346   3.320  72.675  1.00  0.00     0.000 A  
HETATM   31  C   UNL     1      -5.871   2.226  71.993  1.00  0.00    -0.009 A  
HETATM   32  C   UNL     1      -7.239   2.169  71.666  1.00  0.00    -0.032 A  
HETATM   33  C   UNL     1      -8.114   3.201  72.036  1.00  0.00    -0.062 A  
HETATM   34  C   UNL     1      -7.582   4.293  72.694  1.00  0.00    -0.079 A  
ENDBRANCH  22  25
ENDBRANCH  18  19
ENDBRANCH  17  18
ENDBRANCH   8  17
TORSDOF 4
ENDMDL
MODEL      273
REMARK 921   NORMALIZED FREE ENERGY PREDICTED BY IDOCK:   -2.22 KCAL/MOL
REMARK 922        TOTAL FREE ENERGY PREDICTED BY IDOCK:   -3.53 KCAL/MOL
REMARK 923 INTER-LIGAND FREE ENERGY PREDICTED BY IDOCK:   -3.41 KCAL/MOL
REMARK 924 INTRA-LIGAND FREE ENERGY PREDICTED BY IDOCK:   -0.12 KCAL/MOL
REMARK 927      BINDING AFFINITY PREDICTED BY RF-SCORE:    0.00 PKD
ROOT
HETATM    1  F   UNL     1      -5.532  19.168  62.753  1.00  0.00    -0.318 F  
HETATM    2  C   UNL     1      -6.232  19.272  63.890  1.00  0.00     0.375 A  
HETATM    3  C   UNL     1      -6.693  20.513  64.304  1.00  0.00    -0.082 A  
HETATM    4  C   UNL     1      -7.410  20.622  65.502  1.00  0.00     0.058 A  
HETATM    5  C   UNL     1      -7.675  19.488  66.297  1.00  0.00    -0.320 A  
HETATM    6  C   UNL     1      -8.400  19.649  67.645  1.00  0.00    -0.343 C  
HETATM    7  C   UNL     1      -7.192  18.248  65.844  1.00  0.00    -0.270 A  
HETATM    8  C   UNL     1      -9.798  18.960  67.725  1.00  0.00    -0.389 C  
HETATM    9  C   UNL     1      -6.476  18.139  64.649  1.00  0.00     1.191 A  
HETATM   10  C   UNL     1      -7.531  19.530  68.906  1.00  0.00    -0.392 A  
HETATM   11  C   UNL     1      -6.165  19.209  68.866  1.00  0.00    -0.276 A  
HETATM   12  F   UNL     1      -5.221  19.554  72.356  1.00  0.00    -0.208 F  
HETATM   13  C   UNL     1      -8.087  19.864  70.156  1.00  0.00     1.003 A  
HETATM   14  C   UNL     1      -5.389  19.203  70.032  1.00  0.00    -0.229 A  
HETATM   15  C   UNL     1      -5.973  19.533  71.248  1.00  0.00    -0.027 A  
HETATM   16  C   UNL     1      -7.316  19.862  71.323  1.00  0.00     1.242 A  
ENDROOT
BRANCH   8  17
HETATM   17  C   UNL     1      -9.958  17.452  67.497  1.00  0.00    -0.298 C  
BRANCH  17  18
HETATM   18  C   UNL     1      -8.947  16.494  68.137  1.00  0.00    -0.207 C  
BRANCH  18  19
HETATM   19  N   UNL     1      -9.389  15.140  68.474  1.00  0.00    -0.186 NA 
HETATM   20  C   UNL     1     -11.593  14.337  67.351  1.00  0.00    -0.394 C  
HETATM   21  C   UNL     1     -10.837  14.900  68.579  1.00  0.00    -0.247 C  
HETATM   22  C   UNL     1     -10.784  13.397  66.432  1.00  0.00    -0.286 C  
HETATM   23  C   UNL     1      -9.406  14.034  66.252  1.00  0.00    -0.199 C  
HETATM   24  C   UNL     1      -8.730  14.152  67.613  1.00  0.00    -0.187 C  
BRANCH  22  25
HETATM   25  N   UNL     1     -10.697  11.981  66.818  1.00  0.00    -0.234 N  
HETATM   26  C   UNL     1     -11.131  11.375  68.023  1.00  0.00    -0.257 C  
HETATM   27  O   UNL     1     -11.699  11.876  68.977  1.00  0.00    -0.284 OA 
HETATM   28  N   UNL     1     -10.784  10.018  67.942  1.00  0.00    -0.255 NA 
HETATM   29  C   UNL     1     -10.140   9.778  66.743  1.00  0.00    -0.231 A  
HETATM   30  C   UNL     1      -9.606   8.593  66.274  1.00  0.00    -0.322 A  
HETATM   31  C   UNL     1      -8.961   8.636  65.041  1.00  0.00    -0.060 A  
HETATM   32  C   UNL     1      -8.874   9.838  64.314  1.00  0.00    -0.258 A  
HETATM   33  C   UNL     1      -9.453  11.020  64.800  1.00  0.00    -0.267 A  
HETATM   34  C   UNL     1     -10.074  10.975  66.034  1.00  0.00    -0.247 A  
ENDBRANCH  22  25
ENDBRANCH  18  19
ENDBRANCH  17  18
ENDBRANCH   8  17
TORSDOF 4
ENDMDL
MODEL      274
REMARK 921   NORMALIZED FREE ENERGY PREDICTED BY IDOCK:   -2.13 KCAL/MOL
REMARK 922        TOTAL FREE ENERGY PREDICTED BY IDOCK:   -3.42 KCAL/MOL
REMARK 923 INTER-LIGAND FREE ENERGY PREDICTED BY IDOCK:   -3.29 KCAL/MOL
REMARK 924 INTRA-LIGAND FREE ENERGY PREDICTED BY IDOCK:   -0.13 KCAL/MOL
REMARK 927      BINDING AFFINITY PREDICTED BY RF-SCORE:    0.00 PKD
ROOT
HETATM    1  F   UNL     1     -12.318   8.625  70.117  1.00  0.00     0.177 F  
HETATM    2  C   UNL     1     -11.574   9.527  69.463  1.00  0.00     0.209 A  
HETATM    3  C   UNL     1     -11.103  10.647  70.131  1.00  0.00    -0.341 A  
HETATM    4  C   UNL     1     -10.340  11.597  69.440  1.00  0.00     0.138 A  
HETATM    5  C   UNL     1     -10.039  11.432  68.073  1.00  0.00    -0.193 A  
HETATM    6  C   UNL     1      -9.261  12.529  67.322  1.00  0.00    -0.190 C  
HETATM    7  C   UNL     1     -10.533  10.284  67.431  1.00  0.00    -0.303 A  
HETATM    8  C   UNL     1      -7.859  12.095  66.795  1.00  0.00     0.003 C  
HETATM    9  C   UNL     1     -11.295   9.336  68.119  1.00  0.00     0.436 A  
HETATM   10  C   UNL     1     -10.079  13.415  66.371  1.00  0.00    -0.292 A  
HETATM   11  C   UNL     1     -11.445  13.208  66.116  1.00  0.00    -0.366 A  
HETATM   12  F   UNL     1     -12.252  16.072  64.034  1.00  0.00    -0.424 F  
HETATM   13  C   UNL     1      -9.477  14.557  65.809  1.00  0.00    -0.158 A  
HETATM   14  C   UNL     1     -12.175  14.096  65.316  1.00  0.00    -0.440 A  
HETATM   15  C   UNL     1     -11.545  15.210  64.775  1.00  0.00    -0.364 A  
HETATM   16  C   UNL     1     -10.201  15.449  65.012  1.00  0.00    -0.295 A  
ENDROOT
BRANCH   8  17
HETATM   17  C   UNL     1      -7.700  10.920  65.822  1.00  0.00    -0.036 C  
BRANCH  17  18
HETATM   18  C   UNL     1      -6.293  10.392  65.520  1.00  0.00    -0.126 C  
BRANCH  18  19
HETATM   19  N   UNL     1      -5.896   9.104  66.092  1.00  0.00    -0.053 NA 
HETATM   20  C   UNL     1      -6.814   8.568  68.466  1.00  0.00    -0.064 C  
HETATM   21  C   UNL     1      -5.665   9.043  67.543  1.00  0.00    -0.039 C  
HETATM   22  C   UNL     1      -7.782   7.530  67.858  1.00  0.00    -0.116 C  
HETATM   23  C   UNL     1      -8.089   7.994  66.434  1.00  0.00    -0.107 C  
HETATM   24  C   UNL     1      -6.793   8.037  65.634  1.00  0.00    -0.056 C  
BRANCH  22  25
HETATM   25  N   UNL     1      -7.380   6.117  67.911  1.00  0.00    -0.083 N  
HETATM   26  C   UNL     1      -6.138   5.547  67.539  1.00  0.00    -0.029 C  
HETATM   27  O   UNL     1      -5.127   6.095  67.137  1.00  0.00    -0.004 OA 
HETATM   28  N   UNL     1      -6.258   4.160  67.720  1.00  0.00    -0.035 NA 
HETATM   29  C   UNL     1      -7.531   3.864  68.170  1.00  0.00    -0.062 A  
HETATM   30  C   UNL     1      -8.081   2.626  68.445  1.00  0.00    -0.068 A  
HETATM   31  C   UNL     1      -9.415   2.602  68.841  1.00  0.00    -0.166 A  
HETATM   32  C   UNL     1     -10.153   3.795  68.962  1.00  0.00     0.453 A  
HETATM   33  C   UNL     1      -9.560   5.040  68.707  1.00  0.00    -0.209 A  
HETATM   34  C   UNL     1      -8.241   5.055  68.294  1.00  0.00    -0.089 A  
ENDBRANCH  22  25
ENDBRANCH  18  19
ENDBRANCH  17  18
ENDBRANCH   8  17
TORSDOF 4
ENDMDL
MODEL      275
REMARK 921   NORMALIZED FREE ENERGY PREDICTED BY IDOCK:   -2.11 KCAL/MOL
REMARK 922        TOTAL FREE ENERGY PREDICTED BY IDOCK:   -3.39 KCAL/MOL
REMARK 923 INTER-LIGAND FREE ENERGY PREDICTED BY IDOCK:   -3.60 KCAL/MOL
REMARK 924 INTRA-LIGAND FREE ENERGY PREDICTED BY IDOCK:    0.21 KCAL/MOL
REMARK 927      BINDING AFFINITY PREDICTED BY RF-SCORE:    0.00 PKD
ROOT
HETATM    1  F   UNL     1     -11.074  12.671  66.128  1.00  0.00    -0.285 F  
HETATM    2  C   UNL     1     -10.651  11.972  67.189  1.00  0.00    -0.224 A  
HETATM    3  C   UNL     1      -9.757  12.545  68.082  1.00  0.00    -0.222 A  
HETATM    4  C   UNL     1      -9.303  11.806  69.181  1.00  0.00     0.345 A  
HETATM    5  C   UNL     1      -9.742  10.484  69.400  1.00  0.00    -0.188 A  
HETATM    6  C   UNL     1      -9.169   9.671  70.574  1.00  0.00    -0.212 C  
HETATM    7  C   UNL     1     -10.648   9.938  68.474  1.00  0.00    -0.248 A  
HETATM    8  C   UNL     1     -10.209   9.278  71.669  1.00  0.00    -0.271 C  
HETATM    9  C   UNL     1     -11.101  10.674  67.377  1.00  0.00    -0.341 A  
HETATM   10  C   UNL     1      -8.144   8.584  70.216  1.00  0.00    -0.106 A  
HETATM   11  C   UNL     1      -7.791   8.271  68.893  1.00  0.00    -0.111 A  
HETATM   12  F   UNL     1      -5.126   5.855  69.390  1.00  0.00    -0.003 F  
HETATM   13  C   UNL     1      -7.435   7.943  71.250  1.00  0.00    -0.073 A  
HETATM   14  C   UNL     1      -6.783   7.340  68.614  1.00  0.00    -0.060 A  
HETATM   15  C   UNL     1      -6.108   6.724  69.661  1.00  0.00    -0.033 A  
HETATM   16  C   UNL     1      -6.425   7.015  70.977  1.00  0.00    -0.044 A  
ENDROOT
BRANCH   8  17
HETATM   17  C   UNL     1     -11.451   8.444  71.328  1.00  0.00    -0.325 C  
BRANCH  17  18
HETATM   18  C   UNL     1     -11.346   6.915  71.348  1.00  0.00    -0.270 C  
BRANCH  18  19
HETATM   19  N   UNL     1     -10.015   6.311  71.428  1.00  0.00    -0.184 NA 
HETATM   20  C   UNL     1      -9.895   3.925  72.456  1.00  0.00    -0.216 C  
HETATM   21  C   UNL     1      -9.721   5.458  72.590  1.00  0.00    -0.151 C  
HETATM   22  C   UNL     1      -9.624   3.334  71.056  1.00  0.00    -0.164 C  
HETATM   23  C   UNL     1     -10.291   4.269  70.046  1.00  0.00     0.371 C  
HETATM   24  C   UNL     1      -9.669   5.655  70.163  1.00  0.00    -0.174 C  
BRANCH  22  25
HETATM   25  N   UNL     1      -8.228   3.038  70.704  1.00  0.00    -0.052 N  
HETATM   26  C   UNL     1      -7.175   2.640  71.564  1.00  0.00    -0.032 C  
HETATM   27  O   UNL     1      -7.200   2.419  72.762  1.00  0.00    -0.030 OA 
HETATM   28  N   UNL     1      -6.023   2.530  70.771  1.00  0.00    -0.017 NA 
HETATM   29  C   UNL     1      -6.330   2.863  69.465  1.00  0.00    -0.029 A  
HETATM   30  C   UNL     1      -5.489   2.918  68.369  1.00  0.00    -0.017 A  
HETATM   31  C   UNL     1      -6.049   3.335  67.165  1.00  0.00    -0.024 A  
HETATM   32  C   UNL     1      -7.413   3.672  67.082  1.00  0.00    -0.071 A  
HETATM   33  C   UNL     1      -8.251   3.576  68.203  1.00  0.00    -0.091 A  
HETATM   34  C   UNL     1      -7.684   3.181  69.400  1.00  0.00    -0.047 A  
ENDBRANCH  22  25
ENDBRANCH  18  19
ENDBRANCH  17  18
ENDBRANCH   8  17
TORSDOF 4
ENDMDL
MODEL      276
REMARK 921   NORMALIZED FREE ENERGY PREDICTED BY IDOCK:   -1.92 KCAL/MOL
REMARK 922        TOTAL FREE ENERGY PREDICTED BY IDOCK:   -3.15 KCAL/MOL
REMARK 923 INTER-LIGAND FREE ENERGY PREDICTED BY IDOCK:   -3.29 KCAL/MOL
REMARK 924 INTRA-LIGAND FREE ENERGY PREDICTED BY IDOCK:    0.13 KCAL/MOL
REMARK 927      BINDING AFFINITY PREDICTED BY RF-SCORE:    0.00 PKD
ROOT
HETATM    1  F   UNL     1      -5.534  19.166  62.752  1.00  0.00    -0.318 F  
HETATM    2  C   UNL     1      -6.233  19.260  63.891  1.00  0.00     0.375 A  
HETATM    3  C   UNL     1      -6.712  20.493  64.307  1.00  0.00    -0.082 A  
HETATM    4  C   UNL     1      -7.427  20.591  65.507  1.00  0.00     0.035 A  
HETATM    5  C   UNL     1      -7.672  19.453  66.303  1.00  0.00    -0.308 A  
HETATM    6  C   UNL     1      -8.395  19.603  67.653  1.00  0.00    -0.343 C  
HETATM    7  C   UNL     1      -7.170  18.221  65.848  1.00  0.00    -0.270 A  
HETATM    8  C   UNL     1      -9.781  18.891  67.737  1.00  0.00    -0.371 C  
HETATM    9  C   UNL     1      -6.457  18.122  64.651  1.00  0.00     1.191 A  
HETATM   10  C   UNL     1      -7.520  19.496  68.912  1.00  0.00    -0.392 A  
HETATM   11  C   UNL     1      -6.149  19.197  68.868  1.00  0.00    -0.257 A  
HETATM   12  F   UNL     1      -5.200  19.557  72.354  1.00  0.00    -0.208 F  
HETATM   13  C   UNL     1      -8.077  19.821  70.163  1.00  0.00     0.996 A  
HETATM   14  C   UNL     1      -5.369  19.203  70.031  1.00  0.00    -0.229 A  
HETATM   15  C   UNL     1      -5.955  19.524  71.249  1.00  0.00    -0.027 A  
HETATM   16  C   UNL     1      -7.303  19.832  71.328  1.00  0.00     1.411 A  
ENDROOT
BRANCH   8  17
HETATM   17  C   UNL     1      -9.919  17.381  67.510  1.00  0.00    -0.298 C  
BRANCH  17  18
HETATM   18  C   UNL     1      -8.891  16.439  68.147  1.00  0.00    -0.192 C  
BRANCH  18  19
HETATM   19  N   UNL     1      -9.380  15.318  68.951  1.00  0.00    -0.201 NA 
HETATM   20  C   UNL     1     -11.927  14.817  68.798  1.00  0.00    -0.292 C  
HETATM   21  C   UNL     1     -10.721  15.437  69.544  1.00  0.00    -0.267 C  
HETATM   22  C   UNL     1     -11.629  13.551  67.966  1.00  0.00    -0.337 C  
HETATM   23  C   UNL     1     -10.321  13.811  67.219  1.00  0.00    -0.253 C  
HETATM   24  C   UNL     1      -9.208  14.052  68.231  1.00  0.00    -0.200 C  
BRANCH  22  25
HETATM   25  N   UNL     1     -11.620  12.262  68.675  1.00  0.00    -0.300 N  
HETATM   26  C   UNL     1     -11.068  11.031  68.244  1.00  0.00    -0.257 C  
HETATM   27  O   UNL     1     -10.452  10.778  67.223  1.00  0.00    -0.211 OA 
HETATM   28  N   UNL     1     -11.357  10.086  69.240  1.00  0.00    -0.167 NA 
HETATM   29  C   UNL     1     -12.079  10.691  70.252  1.00  0.00    -0.338 A  
HETATM   30  C   UNL     1     -12.591  10.122  71.403  1.00  0.00    -0.526 A  
HETATM   31  C   UNL     1     -13.330  10.951  72.241  1.00  0.00    -0.113 A  
HETATM   32  C   UNL     1     -13.528  12.308  71.922  1.00  0.00    -0.339 A  
HETATM   33  C   UNL     1     -12.969  12.867  70.763  1.00  0.00    -0.017 A  
HETATM   34  C   UNL     1     -12.254  12.033  69.925  1.00  0.00    -0.179 A  
ENDBRANCH  22  25
ENDBRANCH  18  19
ENDBRANCH  17  18
ENDBRANCH   8  17
TORSDOF 4
ENDMDL
MODEL      277
REMARK 921   NORMALIZED FREE ENERGY PREDICTED BY IDOCK:   -1.89 KCAL/MOL
REMARK 922        TOTAL FREE ENERGY PREDICTED BY IDOCK:   -3.12 KCAL/MOL
REMARK 923 INTER-LIGAND FREE ENERGY PREDICTED BY IDOCK:   -3.43 KCAL/MOL
REMARK 924 INTRA-LIGAND FREE ENERGY PREDICTED BY IDOCK:    0.31 KCAL/MOL
REMARK 927      BINDING AFFINITY PREDICTED BY RF-SCORE:    0.00 PKD
ROOT
HETATM    1  F   UNL     1     -13.586  10.395  70.111  1.00  0.00    -0.198 F  
HETATM    2  C   UNL     1     -12.660  11.309  69.794  1.00  0.00    -0.025 A  
HETATM    3  C   UNL     1     -12.570  12.483  70.527  1.00  0.00    -0.177 A  
HETATM    4  C   UNL     1     -11.613  13.445  70.183  1.00  0.00    -0.171 A  
HETATM    5  C   UNL     1     -10.733  13.240  69.100  1.00  0.00    -0.086 A  
HETATM    6  C   UNL     1      -9.741  14.347  68.699  1.00  0.00    -0.216 C  
HETATM    7  C   UNL     1     -10.854  12.038  68.381  1.00  0.00    -0.266 A  
HETATM    8  C   UNL     1      -8.236  13.973  68.871  1.00  0.00     0.022 C  
HETATM    9  C   UNL     1     -11.809  11.078  68.724  1.00  0.00    -0.352 A  
HETATM   10  C   UNL     1     -10.084  15.143  67.430  1.00  0.00    -0.229 A  
HETATM   11  C   UNL     1     -11.189  14.846  66.616  1.00  0.00    -0.340 A  
HETATM   12  F   UNL     1     -11.088  17.567  64.212  1.00  0.00     0.330 F  
HETATM   13  C   UNL     1      -9.334  16.293  67.119  1.00  0.00    -0.232 A  
HETATM   14  C   UNL     1     -11.519  15.655  65.522  1.00  0.00     0.073 A  
HETATM   15  C   UNL     1     -10.752  16.780  65.242  1.00  0.00    -0.169 A  
HETATM   16  C   UNL     1      -9.660  17.106  66.029  1.00  0.00    -0.190 A  
ENDROOT
BRANCH   8  17
HETATM   17  C   UNL     1      -7.624  12.769  68.143  1.00  0.00    -0.134 C  
BRANCH  17  18
HETATM   18  C   UNL     1      -7.917  12.577  66.651  1.00  0.00     0.198 C  
BRANCH  18  19
HETATM   19  N   UNL     1      -8.271  11.238  66.179  1.00  0.00    -0.133 NA 
HETATM   20  C   UNL     1      -6.290   9.698  65.497  1.00  0.00    -0.071 C  
HETATM   21  C   UNL     1      -7.448  10.650  65.111  1.00  0.00     0.041 C  
HETATM   22  C   UNL     1      -6.506   8.854  66.772  1.00  0.00    -0.064 C  
HETATM   23  C   UNL     1      -7.108   9.787  67.822  1.00  0.00    -0.087 C  
HETATM   24  C   UNL     1      -8.441  10.320  67.310  1.00  0.00    -0.125 C  
BRANCH  22  25
HETATM   25  N   UNL     1      -7.266   7.603  66.635  1.00  0.00    -0.085 N  
HETATM   26  C   UNL     1      -8.206   7.256  65.633  1.00  0.00    -0.138 C  
HETATM   27  O   UNL     1      -8.559   7.889  64.654  1.00  0.00    -0.021 OA 
HETATM   28  N   UNL     1      -8.698   5.983  65.963  1.00  0.00    -0.149 NA 
HETATM   29  C   UNL     1      -8.109   5.551  67.135  1.00  0.00    -0.101 A  
HETATM   30  C   UNL     1      -8.328   4.376  67.828  1.00  0.00    -0.098 A  
HETATM   31  C   UNL     1      -7.632   4.207  69.021  1.00  0.00    -0.054 A  
HETATM   32  C   UNL     1      -6.740   5.194  69.483  1.00  0.00    -0.051 A  
HETATM   33  C   UNL     1      -6.512   6.364  68.742  1.00  0.00    -0.046 A  
HETATM   34  C   UNL     1      -7.223   6.534  67.569  1.00  0.00    -0.086 A  
ENDBRANCH  22  25
ENDBRANCH  18  19
ENDBRANCH  17  18
ENDBRANCH   8  17
TORSDOF 4
ENDMDL
MODEL      278
REMARK 921   NORMALIZED FREE ENERGY PREDICTED BY IDOCK:   -1.79 KCAL/MOL
REMARK 922        TOTAL FREE ENERGY PREDICTED BY IDOCK:   -2.99 KCAL/MOL
REMARK 923 INTER-LIGAND FREE ENERGY PREDICTED BY IDOCK:   -3.29 KCAL/MOL
REMARK 924 INTRA-LIGAND FREE ENERGY PREDICTED BY IDOCK:    0.30 KCAL/MOL
REMARK 927      BINDING AFFINITY PREDICTED BY RF-SCORE:    0.00 PKD
ROOT
HETATM    1  F   UNL     1      -5.991  15.749  70.695  1.00  0.00    -0.137 F  
HETATM    2  C   UNL     1      -6.517  14.741  69.986  1.00  0.00    -0.169 A  
HETATM    3  C   UNL     1      -7.797  14.861  69.463  1.00  0.00    -0.102 A  
HETATM    4  C   UNL     1      -8.351  13.800  68.738  1.00  0.00     0.014 A  
HETATM    5  C   UNL     1      -7.629  12.607  68.526  1.00  0.00    -0.121 A  
HETATM    6  C   UNL     1      -8.293  11.429  67.789  1.00  0.00    -0.127 C  
HETATM    7  C   UNL     1      -6.336  12.524  69.072  1.00  0.00    -0.092 A  
HETATM    8  C   UNL     1      -7.633  11.052  66.427  1.00  0.00    -0.135 C  
HETATM    9  C   UNL     1      -5.782  13.582  69.796  1.00  0.00    -0.110 A  
HETATM   10  C   UNL     1      -8.738  10.244  68.659  1.00  0.00    -0.133 A  
HETATM   11  C   UNL     1      -8.493  10.173  70.040  1.00  0.00    -0.036 A  
HETATM   12  F   UNL     1     -10.275   7.144  70.954  1.00  0.00    -0.195 F  
HETATM   13  C   UNL     1      -9.527   9.230  68.083  1.00  0.00    -0.150 A  
HETATM   14  C   UNL     1      -8.999   9.119  70.811  1.00  0.00    -0.296 A  
HETATM   15  C   UNL     1      -9.769   8.134  70.208  1.00  0.00    -0.175 A  
HETATM   16  C   UNL     1     -10.037   8.177  68.849  1.00  0.00    -0.211 A  
ENDROOT
BRANCH   8  17
HETATM   17  C   UNL     1      -6.157  10.642  66.342  1.00  0.00    -0.100 C  
BRANCH  17  18
HETATM   18  C   UNL     1      -5.787   9.164  66.505  1.00  0.00    -0.058 C  
BRANCH  18  19
HETATM   19  N   UNL     1      -6.684   8.305  67.281  1.00  0.00    -0.062 NA 
HETATM   20  C   UNL     1      -6.042   5.788  67.406  1.00  0.00    -0.022 C  
HETATM   21  C   UNL     1      -6.895   6.930  66.803  1.00  0.00    -0.064 C  
HETATM   22  C   UNL     1      -5.616   5.969  68.879  1.00  0.00    -0.011 C  
HETATM   23  C   UNL     1      -5.165   7.421  69.033  1.00  0.00    -0.015 C  
HETATM   24  C   UNL     1      -6.332   8.344  68.705  1.00  0.00    -0.053 C  
BRANCH  22  25
HETATM   25  N   UNL     1      -6.579   5.571  69.916  1.00  0.00    -0.044 N  
HETATM   26  C   UNL     1      -6.561   5.892  71.296  1.00  0.00    -0.050 C  
HETATM   27  O   UNL     1      -5.779   6.592  71.914  1.00  0.00    -0.035 OA 
HETATM   28  N   UNL     1      -7.659   5.240  71.878  1.00  0.00    -0.095 NA 
HETATM   29  C   UNL     1      -8.332   4.519  70.910  1.00  0.00    -0.088 A  
HETATM   30  C   UNL     1      -9.444   3.711  71.055  1.00  0.00    -0.234 A  
HETATM   31  C   UNL     1      -9.899   3.053  69.917  1.00  0.00     0.190 A  
HETATM   32  C   UNL     1      -9.251   3.222  68.678  1.00  0.00    -0.232 A  
HETATM   33  C   UNL     1      -8.143   4.074  68.553  1.00  0.00    -0.078 A  
HETATM   34  C   UNL     1      -7.684   4.708  69.692  1.00  0.00    -0.058 A  
ENDBRANCH  22  25
ENDBRANCH  18  19
ENDBRANCH  17  18
ENDBRANCH   8  17
TORSDOF 4
ENDMDL
MODEL      279
REMARK 921   NORMALIZED FREE ENERGY PREDICTED BY IDOCK:   -1.48 KCAL/MOL
REMARK 922        TOTAL FREE ENERGY PREDICTED BY IDOCK:   -2.62 KCAL/MOL
REMARK 923 INTER-LIGAND FREE ENERGY PREDICTED BY IDOCK:   -4.01 KCAL/MOL
REMARK 924 INTRA-LIGAND FREE ENERGY PREDICTED BY IDOCK:    1.39 KCAL/MOL
REMARK 927      BINDING AFFINITY PREDICTED BY RF-SCORE:    0.00 PKD
ROOT
HETATM    1  F   UNL     1     -14.012  14.463  65.167  1.00  0.00     0.424 F  
HETATM    2  C   UNL     1     -12.783  14.328  65.682  1.00  0.00    -0.373 A  
HETATM    3  C   UNL     1     -12.577  14.541  67.038  1.00  0.00     0.401 A  
HETATM    4  C   UNL     1     -11.288  14.416  67.571  1.00  0.00    -0.345 A  
HETATM    5  C   UNL     1     -10.192  14.074  66.752  1.00  0.00    -0.264 A  
HETATM    6  C   UNL     1      -8.776  14.017  67.352  1.00  0.00    -0.212 C  
HETATM    7  C   UNL     1     -10.442  13.866  65.384  1.00  0.00    -0.357 A  
HETATM    8  C   UNL     1      -8.116  12.603  67.343  1.00  0.00    -0.182 C  
HETATM    9  C   UNL     1     -11.727  13.990  64.852  1.00  0.00    -0.385 A  
HETATM   10  C   UNL     1      -7.840  15.185  67.006  1.00  0.00    -0.197 A  
HETATM   11  C   UNL     1      -8.201  16.220  66.127  1.00  0.00    -0.204 A  
HETATM   12  F   UNL     1      -5.351  18.453  66.404  1.00  0.00    -0.145 F  
HETATM   13  C   UNL     1      -6.608  15.299  67.678  1.00  0.00    -0.196 A  
HETATM   14  C   UNL     1      -7.355  17.315  65.913  1.00  0.00    -0.069 A  
HETATM   15  C   UNL     1      -6.144  17.390  66.590  1.00  0.00    -0.204 A  
HETATM   16  C   UNL     1      -5.760  16.391  67.470  1.00  0.00    -0.177 A  
ENDROOT
BRANCH   8  17
HETATM   17  C   UNL     1      -7.899  11.832  66.034  1.00  0.00     0.420 C  
BRANCH  17  18
HETATM   18  C   UNL     1      -7.666  10.318  66.095  1.00  0.00    -0.123 C  
BRANCH  18  19
HETATM   19  N   UNL     1      -7.472   9.697  67.407  1.00  0.00    -0.091 NA 
HETATM   20  C   UNL     1      -9.447   9.912  69.085  1.00  0.00    -0.201 C  
HETATM   21  C   UNL     1      -8.059  10.371  68.575  1.00  0.00    -0.116 C  
HETATM   22  C   UNL     1      -9.779   8.417  68.888  1.00  0.00    -0.167 C  
HETATM   23  C   UNL     1      -9.324   8.047  67.476  1.00  0.00    -0.171 C  
HETATM   24  C   UNL     1      -7.821   8.273  67.361  1.00  0.00    -0.106 C  
BRANCH  22  25
HETATM   25  N   UNL     1      -9.281   7.474  69.900  1.00  0.00    -0.148 N  
HETATM   26  C   UNL     1      -9.617   6.108  70.062  1.00  0.00    -0.160 C  
HETATM   27  O   UNL     1     -10.352   5.409  69.387  1.00  0.00    -0.242 OA 
HETATM   28  N   UNL     1      -8.926   5.652  71.195  1.00  0.00    -0.138 NA 
HETATM   29  C   UNL     1      -8.197   6.693  71.739  1.00  0.00    -0.110 A  
HETATM   30  C   UNL     1      -7.404   6.690  72.871  1.00  0.00    -0.081 A  
HETATM   31  C   UNL     1      -6.813   7.898  73.230  1.00  0.00    -0.109 A  
HETATM   32  C   UNL     1      -7.016   9.058  72.459  1.00  0.00     0.262 A  
HETATM   33  C   UNL     1      -7.801   9.025  71.296  1.00  0.00    -0.128 A  
HETATM   34  C   UNL     1      -8.401   7.827  70.957  1.00  0.00    -0.114 A  
ENDBRANCH  22  25
ENDBRANCH  18  19
ENDBRANCH  17  18
ENDBRANCH   8  17
TORSDOF 4
ENDMDL
MODEL      280
REMARK 921   NORMALIZED FREE ENERGY PREDICTED BY IDOCK:   -1.44 KCAL/MOL
REMARK 922        TOTAL FREE ENERGY PREDICTED BY IDOCK:   -2.56 KCAL/MOL
REMARK 923 INTER-LIGAND FREE ENERGY PREDICTED BY IDOCK:   -5.26 KCAL/MOL
REMARK 924 INTRA-LIGAND FREE ENERGY PREDICTED BY IDOCK:    2.70 KCAL/MOL
REMARK 927      BINDING AFFINITY PREDICTED BY RF-SCORE:    0.00 PKD
ROOT
HETATM    1  F   UNL     1     -12.770  15.160  72.995  1.00  0.00    -0.386 F  
HETATM    2  C   UNL     1     -12.619  14.183  72.091  1.00  0.00    -0.240 A  
HETATM    3  C   UNL     1     -13.420  13.052  72.156  1.00  0.00    -0.638 A  
HETATM    4  C   UNL     1     -13.248  12.025  71.221  1.00  0.00    -0.071 A  
HETATM    5  C   UNL     1     -12.272  12.120  70.207  1.00  0.00    -0.344 A  
HETATM    6  C   UNL     1     -12.055  10.943  69.239  1.00  0.00    -0.332 C  
HETATM    7  C   UNL     1     -11.480  13.281  70.173  1.00  0.00    -0.038 A  
HETATM    8  C   UNL     1     -12.390  11.251  67.747  1.00  0.00     1.062 C  
HETATM    9  C   UNL     1     -11.651  14.306  71.107  1.00  0.00    -0.017 A  
HETATM   10  C   UNL     1     -10.799  10.090  69.472  1.00  0.00    -0.283 A  
HETATM   11  C   UNL     1      -9.840  10.392  70.453  1.00  0.00     0.446 A  
HETATM   12  F   UNL     1      -7.617   7.530  70.220  1.00  0.00    -0.082 F  
HETATM   13  C   UNL     1     -10.644   8.888  68.757  1.00  0.00    -0.185 A  
HETATM   14  C   UNL     1      -8.759   9.536  70.695  1.00  0.00    -0.189 A  
HETATM   15  C   UNL     1      -8.636   8.360  69.966  1.00  0.00    -0.131 A  
HETATM   16  C   UNL     1      -9.568   8.027  68.996  1.00  0.00    -0.156 A  
ENDROOT
BRANCH   8  17
HETATM   17  C   UNL     1     -11.680  12.377  66.985  1.00  0.00    -0.423 C  
BRANCH  17  18
HETATM   18  C   UNL     1     -10.186  12.234  66.675  1.00  0.00    -0.216 C  
BRANCH  18  19
HETATM   19  N   UNL     1      -9.357  13.441  66.678  1.00  0.00    -0.255 NA 
HETATM   20  C   UNL     1     -10.084  15.341  65.058  1.00  0.00    -0.250 C  
HETATM   21  C   UNL     1      -9.166  14.142  65.399  1.00  0.00     0.746 C  
HETATM   22  C   UNL     1     -10.577  16.177  66.259  1.00  0.00    -0.274 C  
HETATM   23  C   UNL     1     -10.989  15.186  67.348  1.00  0.00    -0.314 C  
HETATM   24  C   UNL     1      -9.777  14.353  67.748  1.00  0.00    -0.221 C  
BRANCH  22  25
HETATM   25  N   UNL     1      -9.680  17.225  66.768  1.00  0.00    -0.269 N  
HETATM   26  C   UNL     1      -9.774  18.625  66.577  1.00  0.00    -0.351 C  
HETATM   27  O   UNL     1     -10.627  19.268  65.992  1.00  0.00    -0.471 OA 
HETATM   28  N   UNL     1      -8.659  19.196  67.211  1.00  0.00    -0.279 NA 
HETATM   29  C   UNL     1      -7.882  18.197  67.764  1.00  0.00    -0.235 A  
HETATM   30  C   UNL     1      -6.686  18.313  68.447  1.00  0.00    -0.229 A  
HETATM   31  C   UNL     1      -6.078  17.132  68.861  1.00  0.00    -0.169 A  
HETATM   32  C   UNL     1      -6.672  15.883  68.596  1.00  0.00    -0.119 A  
HETATM   33  C   UNL     1      -7.903  15.796  67.928  1.00  0.00    -0.149 A  
HETATM   34  C   UNL     1      -8.491  16.972  67.502  1.00  0.00    -0.200 A  
ENDBRANCH  22  25
ENDBRANCH  18  19
ENDBRANCH  17  18
ENDBRANCH   8  17
TORSDOF 4
ENDMDL
MODEL      281
REMARK 921   NORMALIZED FREE ENERGY PREDICTED BY IDOCK:   -1.03 KCAL/MOL
REMARK 922        TOTAL FREE ENERGY PREDICTED BY IDOCK:   -2.06 KCAL/MOL
REMARK 923 INTER-LIGAND FREE ENERGY PREDICTED BY IDOCK:   -2.57 KCAL/MOL
REMARK 924 INTRA-LIGAND FREE ENERGY PREDICTED BY IDOCK:    0.51 KCAL/MOL
REMARK 927      BINDING AFFINITY PREDICTED BY RF-SCORE:    0.00 PKD
ROOT
HETATM    1  F   UNL     1     -14.071  14.456  65.162  1.00  0.00     0.690 F  
HETATM    2  C   UNL     1     -13.044  14.013  65.899  1.00  0.00     0.036 A  
HETATM    3  C   UNL     1     -13.071  14.158  67.278  1.00  0.00     2.145 A  
HETATM    4  C   UNL     1     -11.988  13.710  68.044  1.00  0.00    -0.385 A  
HETATM    5  C   UNL     1     -10.866  13.109  67.436  1.00  0.00    -0.269 A  
HETATM    6  C   UNL     1      -9.658  12.694  68.296  1.00  0.00    -0.208 C  
HETATM    7  C   UNL     1     -10.876  12.980  66.037  1.00  0.00    -0.290 A  
HETATM    8  C   UNL     1      -9.376  11.160  68.334  1.00  0.00    -0.185 C  
HETATM    9  C   UNL     1     -11.956  13.427  65.272  1.00  0.00    -0.409 A  
HETATM   10  C   UNL     1      -8.416  13.593  68.207  1.00  0.00    -0.170 A  
HETATM   11  C   UNL     1      -8.326  14.691  67.335  1.00  0.00    -0.223 A  
HETATM   12  F   UNL     1      -5.134  16.136  68.290  1.00  0.00    -0.089 F  
HETATM   13  C   UNL     1      -7.356  13.390  69.110  1.00  0.00     0.098 A  
HETATM   14  C   UNL     1      -7.213  15.540  67.353  1.00  0.00    -0.241 A  
HETATM   15  C   UNL     1      -6.184  15.305  68.256  1.00  0.00    -0.120 A  
HETATM   16  C   UNL     1      -6.243  14.236  69.135  1.00  0.00    -0.099 A  
ENDROOT
BRANCH   8  17
HETATM   17  C   UNL     1      -9.094  10.369  67.051  1.00  0.00    -0.153 C  
BRANCH  17  18
HETATM   18  C   UNL     1      -9.431   8.874  67.013  1.00  0.00    -0.166 C  
BRANCH  18  19
HETATM   19  N   UNL     1      -8.739   7.981  67.944  1.00  0.00    -0.128 NA 
HETATM   20  C   UNL     1      -8.840   8.639  70.458  1.00  0.00    -0.182 C  
HETATM   21  C   UNL     1      -8.080   8.589  69.110  1.00  0.00    -0.117 C  
HETATM   22  C   UNL     1      -9.822   7.478  70.723  1.00  0.00    -0.178 C  
HETATM   23  C   UNL     1     -10.590   7.243  69.423  1.00  0.00    -0.238 C  
HETATM   24  C   UNL     1      -9.605   6.860  68.324  1.00  0.00    -0.128 C  
BRANCH  22  25
HETATM   25  N   UNL     1      -9.265   6.234  71.275  1.00  0.00    -0.152 N  
HETATM   26  C   UNL     1      -8.042   5.601  70.945  1.00  0.00    -0.118 C  
HETATM   27  O   UNL     1      -7.172   5.960  70.172  1.00  0.00    -0.068 OA 
HETATM   28  N   UNL     1      -7.981   4.418  71.698  1.00  0.00    -0.089 NA 
HETATM   29  C   UNL     1      -9.128   4.298  72.460  1.00  0.00    -0.115 A  
HETATM   30  C   UNL     1      -9.491   3.276  73.316  1.00  0.00    -0.129 A  
HETATM   31  C   UNL     1     -10.736   3.378  73.929  1.00  0.00    -0.297 A  
HETATM   32  C   UNL     1     -11.572   4.485  73.685  1.00  0.00    -0.060 A  
HETATM   33  C   UNL     1     -11.165   5.524  72.836  1.00  0.00    -0.358 A  
HETATM   34  C   UNL     1      -9.936   5.406  72.214  1.00  0.00    -0.177 A  
ENDBRANCH  22  25
ENDBRANCH  18  19
ENDBRANCH  17  18
ENDBRANCH   8  17
TORSDOF 4
ENDMDL
MODEL      282
REMARK 921   NORMALIZED FREE ENERGY PREDICTED BY IDOCK:   -0.89 KCAL/MOL
REMARK 922        TOTAL FREE ENERGY PREDICTED BY IDOCK:   -1.88 KCAL/MOL
REMARK 923 INTER-LIGAND FREE ENERGY PREDICTED BY IDOCK:   -3.19 KCAL/MOL
REMARK 924 INTRA-LIGAND FREE ENERGY PREDICTED BY IDOCK:    1.31 KCAL/MOL
REMARK 927      BINDING AFFINITY PREDICTED BY RF-SCORE:    0.00 PKD
ROOT
HETATM    1  F   UNL     1     -12.274   8.593  69.777  1.00  0.00     0.458 F  
HETATM    2  C   UNL     1     -11.460   9.498  69.218  1.00  0.00     0.205 A  
HETATM    3  C   UNL     1     -10.920  10.513  69.994  1.00  0.00    -0.351 A  
HETATM    4  C   UNL     1     -10.083  11.467  69.403  1.00  0.00     0.225 A  
HETATM    5  C   UNL     1      -9.775  11.414  68.028  1.00  0.00    -0.190 A  
HETATM    6  C   UNL     1      -8.913  12.519  67.392  1.00  0.00    -0.188 C  
HETATM    7  C   UNL     1     -10.341  10.370  67.275  1.00  0.00    -0.278 A  
HETATM    8  C   UNL     1      -7.537  12.038  66.835  1.00  0.00    -0.060 C  
HETATM    9  C   UNL     1     -11.176   9.418  67.864  1.00  0.00     0.194 A  
HETATM   10  C   UNL     1      -9.653  13.549  66.526  1.00  0.00    -0.284 A  
HETATM   11  C   UNL     1     -11.027  13.465  66.243  1.00  0.00    -0.296 A  
HETATM   12  F   UNL     1     -11.602  16.566  64.443  1.00  0.00    -0.468 F  
HETATM   13  C   UNL     1      -8.964  14.693  66.081  1.00  0.00    -0.010 A  
HETATM   14  C   UNL     1     -11.681  14.476  65.528  1.00  0.00    -0.343 A  
HETATM   15  C   UNL     1     -10.967  15.588  65.101  1.00  0.00    -0.409 A  
HETATM   16  C   UNL     1      -9.613  15.707  65.369  1.00  0.00    -0.120 A  
ENDROOT
BRANCH   8  17
HETATM   17  C   UNL     1      -7.448  10.954  65.754  1.00  0.00    -0.007 C  
BRANCH  17  18
HETATM   18  C   UNL     1      -6.097  10.281  65.488  1.00  0.00    -0.113 C  
BRANCH  18  19
HETATM   19  N   UNL     1      -5.930   8.880  65.878  1.00  0.00    -0.051 NA 
HETATM   20  C   UNL     1      -7.539   7.999  67.721  1.00  0.00    -0.102 C  
HETATM   21  C   UNL     1      -6.152   8.533  67.290  1.00  0.00    -0.055 C  
HETATM   22  C   UNL     1      -8.307   7.181  66.661  1.00  0.00    -0.114 C  
HETATM   23  C   UNL     1      -8.154   7.923  65.334  1.00  0.00    -0.130 C  
HETATM   24  C   UNL     1      -6.675   7.999  64.973  1.00  0.00    -0.051 C  
BRANCH  22  25
HETATM   25  N   UNL     1      -7.981   5.752  66.542  1.00  0.00    -0.101 N  
HETATM   26  C   UNL     1      -7.996   4.764  67.557  1.00  0.00    -0.094 C  
HETATM   27  O   UNL     1      -8.316   4.866  68.728  1.00  0.00    -0.083 OA 
HETATM   28  N   UNL     1      -7.558   3.569  66.965  1.00  0.00    -0.078 NA 
HETATM   29  C   UNL     1      -7.261   3.796  65.635  1.00  0.00    -0.071 A  
HETATM   30  C   UNL     1      -6.772   2.905  64.698  1.00  0.00    -0.040 A  
HETATM   31  C   UNL     1      -6.509   3.408  63.427  1.00  0.00    -0.029 A  
HETATM   32  C   UNL     1      -6.746   4.763  63.123  1.00  0.00    -0.030 A  
HETATM   33  C   UNL     1      -7.274   5.637  64.086  1.00  0.00    -0.055 A  
HETATM   34  C   UNL     1      -7.513   5.135  65.351  1.00  0.00    -0.077 A  
ENDBRANCH  22  25
ENDBRANCH  18  19
ENDBRANCH  17  18
ENDBRANCH   8  17
TORSDOF 4
ENDMDL
MODEL      283
REMARK 921   NORMALIZED FREE ENERGY PREDICTED BY IDOCK:   -0.83 KCAL/MOL
REMARK 922        TOTAL FREE ENERGY PREDICTED BY IDOCK:   -1.81 KCAL/MOL
REMARK 923 INTER-LIGAND FREE ENERGY PREDICTED BY IDOCK:   -2.19 KCAL/MOL
REMARK 924 INTRA-LIGAND FREE ENERGY PREDICTED BY IDOCK:    0.38 KCAL/MOL
REMARK 927      BINDING AFFINITY PREDICTED BY RF-SCORE:    0.00 PKD
ROOT
HETATM    1  F   UNL     1      -7.544  11.028  63.942  1.00  0.00     0.151 F  
HETATM    2  C   UNL     1      -8.516  11.106  64.861  1.00  0.00     0.220 A  
HETATM    3  C   UNL     1      -9.740  11.668  64.524  1.00  0.00    -0.203 A  
HETATM    4  C   UNL     1     -10.748  11.763  65.491  1.00  0.00    -0.329 A  
HETATM    5  C   UNL     1     -10.543  11.295  66.805  1.00  0.00    -0.305 A  
HETATM    6  C   UNL     1     -11.643  11.482  67.866  1.00  0.00    -0.352 C  
HETATM    7  C   UNL     1      -9.290  10.733  67.108  1.00  0.00    -0.171 A  
HETATM    8  C   UNL     1     -12.256  10.157  68.415  1.00  0.00     1.547 C  
HETATM    9  C   UNL     1      -8.283  10.637  66.144  1.00  0.00    -0.156 A  
HETATM   10  C   UNL     1     -11.403  12.582  68.911  1.00  0.00    -0.346 A  
HETATM   11  C   UNL     1     -10.220  13.336  68.972  1.00  0.00     0.071 A  
HETATM   12  F   UNL     1     -11.008  15.743  71.574  1.00  0.00    -0.360 F  
HETATM   13  C   UNL     1     -12.450  12.940  69.782  1.00  0.00     0.027 A  
HETATM   14  C   UNL     1     -10.081  14.393  69.880  1.00  0.00     0.468 A  
HETATM   15  C   UNL     1     -11.134  14.714  70.727  1.00  0.00     0.051 A  
HETATM   16  C   UNL     1     -12.318  13.996  70.689  1.00  0.00    -0.446 A  
ENDROOT
BRANCH   8  17
HETATM   17  C   UNL     1     -11.384   9.096  69.097  1.00  0.00     0.275 C  
BRANCH  17  18
HETATM   18  C   UNL     1     -11.448   8.951  70.622  1.00  0.00    -0.242 C  
BRANCH  18  19
HETATM   19  N   UNL     1     -10.229   8.567  71.335  1.00  0.00    -0.215 NA 
HETATM   20  C   UNL     1     -10.563   7.324  73.595  1.00  0.00    -0.353 C  
HETATM   21  C   UNL     1     -10.253   8.618  72.805  1.00  0.00     0.069 C  
HETATM   22  C   UNL     1     -10.099   6.005  72.939  1.00  0.00    -0.182 C  
HETATM   23  C   UNL     1     -10.459   6.099  71.456  1.00  0.00    -0.268 C  
HETATM   24  C   UNL     1      -9.724   7.282  70.839  1.00  0.00    -0.170 C  
BRANCH  22  25
HETATM   25  N   UNL     1      -8.701   5.600  73.149  1.00  0.00    -0.120 N  
HETATM   26  C   UNL     1      -8.136   4.309  73.014  1.00  0.00    -0.091 C  
HETATM   27  O   UNL     1      -8.663   3.269  72.658  1.00  0.00    -0.083 OA 
HETATM   28  N   UNL     1      -6.783   4.418  73.372  1.00  0.00    -0.055 NA 
HETATM   29  C   UNL     1      -6.509   5.723  73.738  1.00  0.00    -0.073 A  
HETATM   30  C   UNL     1      -5.317   6.259  74.187  1.00  0.00    -0.041 A  
HETATM   31  C   UNL     1      -5.324   7.605  74.539  1.00  0.00    -0.066 A  
HETATM   32  C   UNL     1      -6.498   8.375  74.427  1.00  0.00    -0.156 A  
HETATM   33  C   UNL     1      -7.686   7.812  73.938  1.00  0.00    -0.198 A  
HETATM   34  C   UNL     1      -7.677   6.469  73.610  1.00  0.00    -0.091 A  
ENDBRANCH  22  25
ENDBRANCH  18  19
ENDBRANCH  17  18
ENDBRANCH   8  17
TORSDOF 4
ENDMDL
MODEL      284
REMARK 921   NORMALIZED FREE ENERGY PREDICTED BY IDOCK:   -0.47 KCAL/MOL
REMARK 922        TOTAL FREE ENERGY PREDICTED BY IDOCK:   -1.36 KCAL/MOL
REMARK 923 INTER-LIGAND FREE ENERGY PREDICTED BY IDOCK:   -3.01 KCAL/MOL
REMARK 924 INTRA-LIGAND FREE ENERGY PREDICTED BY IDOCK:    1.65 KCAL/MOL
REMARK 927      BINDING AFFINITY PREDICTED BY RF-SCORE:    0.00 PKD
ROOT
HETATM    1  F   UNL     1     -13.313  13.215  73.271  1.00  0.00    -0.087 F  
HETATM    2  C   UNL     1     -12.934  12.940  72.016  1.00  0.00    -0.280 A  
HETATM    3  C   UNL     1     -12.933  11.627  71.568  1.00  0.00    -0.463 A  
HETATM    4  C   UNL     1     -12.520  11.340  70.261  1.00  0.00    -0.330 A  
HETATM    5  C   UNL     1     -12.105  12.367  69.388  1.00  0.00    -0.237 A  
HETATM    6  C   UNL     1     -11.585  12.014  67.982  1.00  0.00    -0.407 C  
HETATM    7  C   UNL     1     -12.120  13.684  69.878  1.00  0.00    -0.406 A  
HETATM    8  C   UNL     1     -12.459  12.550  66.806  1.00  0.00     0.619 C  
HETATM    9  C   UNL     1     -12.532  13.971  71.182  1.00  0.00    -0.447 A  
HETATM   10  C   UNL     1     -10.066  12.108  67.773  1.00  0.00    -0.203 A  
HETATM   11  C   UNL     1      -9.184  12.566  68.765  1.00  0.00     0.143 A  
HETATM   12  F   UNL     1      -5.955  12.007  67.199  1.00  0.00    -0.099 F  
HETATM   13  C   UNL     1      -9.506  11.610  66.581  1.00  0.00    -0.213 A  
HETATM   14  C   UNL     1      -7.798  12.546  68.566  1.00  0.00    -0.108 A  
HETATM   15  C   UNL     1      -7.282  12.051  67.374  1.00  0.00    -0.144 A  
HETATM   16  C   UNL     1      -8.123  11.585  66.378  1.00  0.00    -0.069 A  
ENDROOT
BRANCH   8  17
HETATM   17  C   UNL     1     -12.736  14.050  66.636  1.00  0.00     0.056 C  
BRANCH  17  18
HETATM   18  C   UNL     1     -12.044  15.043  67.576  1.00  0.00     0.092 C  
BRANCH  18  19
HETATM   19  N   UNL     1     -10.728  15.559  67.195  1.00  0.00    -0.312 NA 
HETATM   20  C   UNL     1     -10.670  17.164  65.150  1.00  0.00    -0.009 C  
HETATM   21  C   UNL     1     -10.461  15.757  65.763  1.00  0.00    -0.367 C  
HETATM   22  C   UNL     1     -10.405  18.357  66.093  1.00  0.00    -0.407 C  
HETATM   23  C   UNL     1     -11.044  18.008  67.437  1.00  0.00     0.100 C  
HETATM   24  C   UNL     1     -10.390  16.746  67.987  1.00  0.00    -0.317 C  
BRANCH  22  25
HETATM   25  N   UNL     1      -9.014  18.810  66.237  1.00  0.00    -0.281 N  
HETATM   26  C   UNL     1      -8.527  20.140  66.278  1.00  0.00    -0.212 C  
HETATM   27  O   UNL     1      -9.146  21.189  66.243  1.00  0.00     0.755 OA 
HETATM   28  N   UNL     1      -7.129  20.057  66.373  1.00  0.00    -0.234 NA 
HETATM   29  C   UNL     1      -6.746  18.729  66.374  1.00  0.00    -0.207 A  
HETATM   30  C   UNL     1      -5.470  18.201  66.422  1.00  0.00    -0.194 A  
HETATM   31  C   UNL     1      -5.358  16.815  66.360  1.00  0.00     0.226 A  
HETATM   32  C   UNL     1      -6.504  16.002  66.263  1.00  0.00     1.559 A  
HETATM   33  C   UNL     1      -7.789  16.564  66.249  1.00  0.00    -0.266 A  
HETATM   34  C   UNL     1      -7.892  17.942  66.290  1.00  0.00    -0.261 A  
ENDBRANCH  22  25
ENDBRANCH  18  19
ENDBRANCH  17  18
ENDBRANCH   8  17
TORSDOF 4
ENDMDL
MODEL      285
REMARK 921   NORMALIZED FREE ENERGY PREDICTED BY IDOCK:   -0.30 KCAL/MOL
REMARK 922        TOTAL FREE ENERGY PREDICTED BY IDOCK:   -1.16 KCAL/MOL
REMARK 923 INTER-LIGAND FREE ENERGY PREDICTED BY IDOCK:   -2.45 KCAL/MOL
REMARK 924 INTRA-LIGAND FREE ENERGY PREDICTED BY IDOCK:    1.29 KCAL/MOL
REMARK 927      BINDING AFFINITY PREDICTED BY RF-SCORE:    0.00 PKD
ROOT
HETATM    1  F   UNL     1     -10.446  14.429  71.504  1.00  0.00     0.836 F  
HETATM    2  C   UNL     1     -10.841  14.209  70.243  1.00  0.00     0.422 A  
HETATM    3  C   UNL     1     -11.793  13.235  69.978  1.00  0.00    -0.365 A  
HETATM    4  C   UNL     1     -12.191  12.995  68.658  1.00  0.00    -0.037 A  
HETATM    5  C   UNL     1     -11.640  13.729  67.587  1.00  0.00    -0.381 A  
HETATM    6  C   UNL     1     -12.041  13.391  66.140  1.00  0.00    -0.481 C  
HETATM    7  C   UNL     1     -10.678  14.707  67.895  1.00  0.00    -0.250 A  
HETATM    8  C   UNL     1     -12.806  14.526  65.389  1.00  0.00    -0.124 C  
HETATM    9  C   UNL     1     -10.281  14.947  69.213  1.00  0.00    -0.219 A  
HETATM   10  C   UNL     1     -11.002  12.630  65.303  1.00  0.00    -0.320 A  
HETATM   11  C   UNL     1      -9.717  12.318  65.778  1.00  0.00    -0.228 A  
HETATM   12  F   UNL     1      -8.401  10.287  63.070  1.00  0.00    -0.142 F  
HETATM   13  C   UNL     1     -11.376  12.116  64.047  1.00  0.00    -0.468 A  
HETATM   14  C   UNL     1      -8.835  11.540  65.019  1.00  0.00     0.236 A  
HETATM   15  C   UNL     1      -9.237  11.054  63.781  1.00  0.00    -0.177 A  
HETATM   16  C   UNL     1     -10.500  11.336  63.286  1.00  0.00    -0.370 A  
ENDROOT
BRANCH   8  17
HETATM   17  C   UNL     1     -12.183  15.914  65.193  1.00  0.00     0.894 C  
BRANCH  17  18
HETATM   18  C   UNL     1     -10.677  16.020  64.929  1.00  0.00    -0.316 C  
BRANCH  18  19
HETATM   19  N   UNL     1      -9.790  16.295  66.061  1.00  0.00    -0.325 NA 
HETATM   20  C   UNL     1      -7.402  17.138  65.473  1.00  0.00     1.040 C  
HETATM   21  C   UNL     1      -8.359  15.998  65.896  1.00  0.00     0.331 C  
HETATM   22  C   UNL     1      -7.781  18.554  65.960  1.00  0.00    -0.171 C  
HETATM   23  C   UNL     1      -9.287  18.705  65.748  1.00  0.00     0.392 C  
HETATM   24  C   UNL     1     -10.015  17.651  66.574  1.00  0.00    -0.332 C  
BRANCH  22  25
HETATM   25  N   UNL     1      -7.367  18.936  67.318  1.00  0.00    -0.223 N  
HETATM   26  C   UNL     1      -7.315  20.233  67.884  1.00  0.00    -0.276 C  
HETATM   27  O   UNL     1      -7.636  21.302  67.393  1.00  0.00    -0.410 OA 
HETATM   28  N   UNL     1      -6.808  20.089  69.184  1.00  0.00    -0.292 NA 
HETATM   29  C   UNL     1      -6.531  18.757  69.424  1.00  0.00    -0.262 A  
HETATM   30  C   UNL     1      -5.992  18.180  70.559  1.00  0.00     0.116 A  
HETATM   31  C   UNL     1      -5.767  16.807  70.522  1.00  0.00    -0.041 A  
HETATM   32  C   UNL     1      -6.089  16.053  69.377  1.00  0.00    -0.148 A  
HETATM   33  C   UNL     1      -6.665  16.660  68.251  1.00  0.00    -0.143 A  
HETATM   34  C   UNL     1      -6.867  18.027  68.287  1.00  0.00    -0.217 A  
ENDBRANCH  22  25
ENDBRANCH  18  19
ENDBRANCH  17  18
ENDBRANCH   8  17
TORSDOF 4
ENDMDL
MODEL      286
REMARK 921   NORMALIZED FREE ENERGY PREDICTED BY IDOCK:   -0.03 KCAL/MOL
REMARK 922        TOTAL FREE ENERGY PREDICTED BY IDOCK:   -0.82 KCAL/MOL
REMARK 923 INTER-LIGAND FREE ENERGY PREDICTED BY IDOCK:   -0.56 KCAL/MOL
REMARK 924 INTRA-LIGAND FREE ENERGY PREDICTED BY IDOCK:   -0.26 KCAL/MOL
REMARK 927      BINDING AFFINITY PREDICTED BY RF-SCORE:    0.00 PKD
ROOT
HETATM    1  F   UNL     1     -14.025  14.987  64.474  1.00  0.00     1.589 F  
HETATM    2  C   UNL     1     -13.039  14.549  65.268  1.00  0.00     0.182 A  
HETATM    3  C   UNL     1     -13.111  14.761  66.637  1.00  0.00     1.892 A  
HETATM    4  C   UNL     1     -12.071  14.318  67.463  1.00  0.00    -0.347 A  
HETATM    5  C   UNL     1     -10.948  13.655  66.926  1.00  0.00    -0.296 A  
HETATM    6  C   UNL     1      -9.785  13.246  67.848  1.00  0.00    -0.224 C  
HETATM    7  C   UNL     1     -10.912  13.459  65.534  1.00  0.00    -0.294 A  
HETATM    8  C   UNL     1      -9.554  11.708  67.969  1.00  0.00    -0.184 C  
HETATM    9  C   UNL     1     -11.949  13.901  64.709  1.00  0.00    -0.426 A  
HETATM   10  C   UNL     1      -8.512  14.102  67.763  1.00  0.00    -0.178 A  
HETATM   11  C   UNL     1      -8.357  15.153  66.845  1.00  0.00    -0.267 A  
HETATM   12  F   UNL     1      -5.157  16.545  67.848  1.00  0.00    -0.090 F  
HETATM   13  C   UNL     1      -7.493  13.910  68.714  1.00  0.00    -0.114 A  
HETATM   14  C   UNL     1      -7.219  15.968  66.864  1.00  0.00    -0.212 A  
HETATM   15  C   UNL     1      -6.230  15.746  67.815  1.00  0.00    -0.154 A  
HETATM   16  C   UNL     1      -6.355  14.722  68.740  1.00  0.00    -0.086 A  
ENDROOT
BRANCH   8  17
HETATM   17  C   UNL     1      -9.251  10.847  66.735  1.00  0.00    -0.174 C  
BRANCH  17  18
HETATM   18  C   UNL     1      -9.443   9.329  66.825  1.00  0.00    -0.175 C  
BRANCH  18  19
HETATM   19  N   UNL     1      -8.352   8.522  67.373  1.00  0.00    -0.119 NA 
HETATM   20  C   UNL     1      -6.493   9.815  68.650  1.00  0.00    -0.047 C  
HETATM   21  C   UNL     1      -7.003   9.106  67.372  1.00  0.00    -0.078 C  
HETATM   22  C   UNL     1      -7.023   9.258  69.989  1.00  0.00    -0.060 C  
HETATM   23  C   UNL     1      -8.519   9.007  69.801  1.00  0.00    -0.132 C  
HETATM   24  C   UNL     1      -8.718   7.985  68.688  1.00  0.00    -0.131 C  
BRANCH  22  25
HETATM   25  N   UNL     1      -6.330   8.094  70.560  1.00  0.00    -0.036 N  
HETATM   26  C   UNL     1      -5.828   6.956  69.882  1.00  0.00    -0.023 C  
HETATM   27  O   UNL     1      -5.823   6.709  68.689  1.00  0.00    -0.019 OA 
HETATM   28  N   UNL     1      -5.300   6.100  70.862  1.00  0.00    -0.017 NA 
HETATM   29  C   UNL     1      -5.478   6.666  72.110  1.00  0.00    -0.036 A  
HETATM   30  C   UNL     1      -5.135   6.150  73.346  1.00  0.00    -0.031 A  
HETATM   31  C   UNL     1      -5.474   6.910  74.462  1.00  0.00    -0.062 A  
HETATM   32  C   UNL     1      -6.125   8.150  74.321  1.00  0.00    -0.113 A  
HETATM   33  C   UNL     1      -6.432   8.665  73.052  1.00  0.00    -0.056 A  
HETATM   34  C   UNL     1      -6.112   7.895  71.949  1.00  0.00    -0.040 A  
ENDBRANCH  22  25
ENDBRANCH  18  19
ENDBRANCH  17  18
ENDBRANCH   8  17
TORSDOF 4
ENDMDL
MODEL      287
REMARK 921   NORMALIZED FREE ENERGY PREDICTED BY IDOCK:    0.64 KCAL/MOL
REMARK 922        TOTAL FREE ENERGY PREDICTED BY IDOCK:    0.01 KCAL/MOL
REMARK 923 INTER-LIGAND FREE ENERGY PREDICTED BY IDOCK:   -3.20 KCAL/MOL
REMARK 924 INTRA-LIGAND FREE ENERGY PREDICTED BY IDOCK:    3.20 KCAL/MOL
REMARK 927      BINDING AFFINITY PREDICTED BY RF-SCORE:    0.00 PKD
ROOT
HETATM    1  F   UNL     1     -11.086  12.694  66.158  1.00  0.00    -0.285 F  
HETATM    2  C   UNL     1     -10.724  11.861  67.142  1.00  0.00    -0.240 A  
HETATM    3  C   UNL     1      -9.911  12.318  68.168  1.00  0.00    -0.212 A  
HETATM    4  C   UNL     1      -9.519  11.441  69.187  1.00  0.00     0.120 A  
HETATM    5  C   UNL     1      -9.941  10.095  69.189  1.00  0.00    -0.221 A  
HETATM    6  C   UNL     1      -9.434   9.135  70.281  1.00  0.00    -0.253 C  
HETATM    7  C   UNL     1     -10.764   9.669  68.132  1.00  0.00    -0.266 A  
HETATM    8  C   UNL     1     -10.539   8.580  71.231  1.00  0.00    -0.296 C  
HETATM    9  C   UNL     1     -11.155  10.544  67.116  1.00  0.00    -0.232 A  
HETATM   10  C   UNL     1      -8.359   8.123  69.854  1.00  0.00    -0.123 A  
HETATM   11  C   UNL     1      -7.905   8.001  68.531  1.00  0.00    -0.115 A  
HETATM   12  F   UNL     1      -5.225   5.578  68.889  1.00  0.00     0.000 F  
HETATM   13  C   UNL     1      -7.711   7.356  70.840  1.00  0.00    -0.088 A  
HETATM   14  C   UNL     1      -6.858   7.131  68.203  1.00  0.00    -0.074 A  
HETATM   15  C   UNL     1      -6.245   6.386  69.203  1.00  0.00    -0.034 A  
HETATM   16  C   UNL     1      -6.662   6.488  70.519  1.00  0.00    -0.057 A  
ENDROOT
BRANCH   8  17
HETATM   17  C   UNL     1     -11.733   7.784  70.688  1.00  0.00    -0.191 C  
BRANCH  17  18
HETATM   18  C   UNL     1     -11.476   6.441  69.997  1.00  0.00    -0.428 C  
BRANCH  18  19
HETATM   19  N   UNL     1     -10.147   6.191  69.436  1.00  0.00    -0.174 NA 
HETATM   20  C   UNL     1      -9.391   3.706  69.332  1.00  0.00    -0.246 C  
HETATM   21  C   UNL     1      -9.356   5.094  70.014  1.00  0.00    -0.147 C  
HETATM   22  C   UNL     1      -9.582   3.710  67.800  1.00  0.00    -0.134 C  
HETATM   23  C   UNL     1     -10.672   4.738  67.494  1.00  0.00     0.369 C  
HETATM   24  C   UNL     1     -10.212   6.110  67.972  1.00  0.00    -0.175 C  
BRANCH  22  25
HETATM   25  N   UNL     1      -8.384   3.903  66.969  1.00  0.00    -0.099 N  
HETATM   26  C   UNL     1      -7.070   3.431  67.205  1.00  0.00    -0.058 C  
HETATM   27  O   UNL     1      -6.653   2.737  68.115  1.00  0.00    -0.035 OA 
HETATM   28  N   UNL     1      -6.270   3.916  66.159  1.00  0.00    -0.031 NA 
HETATM   29  C   UNL     1      -7.043   4.680  65.305  1.00  0.00    -0.063 A  
HETATM   30  C   UNL     1      -6.652   5.366  64.171  1.00  0.00    -0.041 A  
HETATM   31  C   UNL     1      -7.630   6.106  63.513  1.00  0.00    -0.085 A  
HETATM   32  C   UNL     1      -8.955   6.136  63.989  1.00  0.00     0.730 A  
HETATM   33  C   UNL     1      -9.331   5.403  65.125  1.00  0.00     0.105 A  
HETATM   34  C   UNL     1      -8.350   4.687  65.785  1.00  0.00    -0.115 A  
ENDBRANCH  22  25
ENDBRANCH  18  19
ENDBRANCH  17  18
ENDBRANCH   8  17
TORSDOF 4
ENDMDL
MODEL      288
REMARK 921   NORMALIZED FREE ENERGY PREDICTED BY IDOCK:    1.06 KCAL/MOL
REMARK 922        TOTAL FREE ENERGY PREDICTED BY IDOCK:    0.52 KCAL/MOL
REMARK 923 INTER-LIGAND FREE ENERGY PREDICTED BY IDOCK:    0.06 KCAL/MOL
REMARK 924 INTRA-LIGAND FREE ENERGY PREDICTED BY IDOCK:    0.46 KCAL/MOL
REMARK 927      BINDING AFFINITY PREDICTED BY RF-SCORE:    0.00 PKD
ROOT
HETATM    1  F   UNL     1     -14.004  15.313  64.661  1.00  0.00     1.428 F  
HETATM    2  C   UNL     1     -13.135  14.641  65.428  1.00  0.00     0.274 A  
HETATM    3  C   UNL     1     -13.234  14.715  66.810  1.00  0.00     2.436 A  
HETATM    4  C   UNL     1     -12.314  14.026  67.609  1.00  0.00    -0.079 A  
HETATM    5  C   UNL     1     -11.286  13.252  67.032  1.00  0.00    -0.319 A  
HETATM    6  C   UNL     1     -10.244  12.566  67.935  1.00  0.00    -0.219 C  
HETATM    7  C   UNL     1     -11.219  13.201  65.629  1.00  0.00    -0.306 A  
HETATM    8  C   UNL     1     -10.262  11.006  67.889  1.00  0.00    -0.207 C  
HETATM    9  C   UNL     1     -12.136  13.889  64.831  1.00  0.00    -0.434 A  
HETATM   10  C   UNL     1      -8.851  13.210  67.980  1.00  0.00    -0.191 A  
HETATM   11  C   UNL     1      -8.492  14.315  67.190  1.00  0.00    -0.220 A  
HETATM   12  F   UNL     1      -5.161  15.060  68.430  1.00  0.00    -0.083 F  
HETATM   13  C   UNL     1      -7.917  12.757  68.931  1.00  0.00     0.182 A  
HETATM   14  C   UNL     1      -7.242  14.930  67.332  1.00  0.00    -0.213 A  
HETATM   15  C   UNL     1      -6.344  14.452  68.278  1.00  0.00    -0.118 A  
HETATM   16  C   UNL     1      -6.668  13.369  69.079  1.00  0.00    -0.108 A  
ENDROOT
BRANCH   8  17
HETATM   17  C   UNL     1     -10.043  10.244  66.576  1.00  0.00    -0.290 C  
BRANCH  17  18
HETATM   18  C   UNL     1     -10.483   8.779  66.487  1.00  0.00    -0.081 C  
BRANCH  18  19
HETATM   19  N   UNL     1      -9.516   7.740  66.844  1.00  0.00    -0.175 NA 
HETATM   20  C   UNL     1      -9.693   6.785  69.257  1.00  0.00    -0.153 C  
HETATM   21  C   UNL     1      -9.014   7.721  68.227  1.00  0.00    -0.131 C  
HETATM   22  C   UNL     1     -10.273   5.470  68.695  1.00  0.00    -0.193 C  
HETATM   23  C   UNL     1     -10.996   5.825  67.396  1.00  0.00    -0.164 C  
HETATM   24  C   UNL     1      -9.993   6.421  66.415  1.00  0.00    -0.036 C  
BRANCH  22  25
HETATM   25  N   UNL     1      -9.349   4.339  68.528  1.00  0.00    -0.141 N  
HETATM   26  C   UNL     1      -9.316   3.383  67.483  1.00  0.00    -0.204 C  
HETATM   27  O   UNL     1     -10.010   3.308  66.485  1.00  0.00     0.130 OA 
HETATM   28  N   UNL     1      -8.292   2.476  67.795  1.00  0.00    -0.074 NA 
HETATM   29  C   UNL     1      -7.712   2.832  68.998  1.00  0.00    -0.046 A  
HETATM   30  C   UNL     1      -6.694   2.198  69.686  1.00  0.00    -0.033 A  
HETATM   31  C   UNL     1      -6.327   2.743  70.912  1.00  0.00    -0.023 A  
HETATM   32  C   UNL     1      -6.966   3.894  71.411  1.00  0.00    -0.032 A  
HETATM   33  C   UNL     1      -7.975   4.536  70.677  1.00  0.00    -0.061 A  
HETATM   34  C   UNL     1      -8.348   3.978  69.469  1.00  0.00    -0.057 A  
ENDBRANCH  22  25
ENDBRANCH  18  19
ENDBRANCH  17  18
ENDBRANCH   8  17
TORSDOF 4
ENDMDL
MODEL      289
REMARK 921   NORMALIZED FREE ENERGY PREDICTED BY IDOCK:    1.21 KCAL/MOL
REMARK 922        TOTAL FREE ENERGY PREDICTED BY IDOCK:    0.71 KCAL/MOL
REMARK 923 INTER-LIGAND FREE ENERGY PREDICTED BY IDOCK:   -2.26 KCAL/MOL
REMARK 924 INTRA-LIGAND FREE ENERGY PREDICTED BY IDOCK:    2.97 KCAL/MOL
REMARK 927      BINDING AFFINITY PREDICTED BY RF-SCORE:    0.00 PKD
ROOT
HETATM    1  F   UNL     1     -11.424   4.047  71.476  1.00  0.00     1.019 F  
HETATM    2  C   UNL     1     -11.002   5.277  71.153  1.00  0.00     0.022 A  
HETATM    3  C   UNL     1     -10.241   6.004  72.056  1.00  0.00    -0.228 A  
HETATM    4  C   UNL     1      -9.815   7.296  71.722  1.00  0.00    -0.175 A  
HETATM    5  C   UNL     1     -10.146   7.872  70.478  1.00  0.00    -0.192 A  
HETATM    6  C   UNL     1      -9.728   9.321  70.169  1.00  0.00    -0.252 C  
HETATM    7  C   UNL     1     -10.918   7.103  69.590  1.00  0.00    -0.236 A  
HETATM    8  C   UNL     1      -8.713   9.474  68.994  1.00  0.00    -0.142 C  
HETATM    9  C   UNL     1     -11.343   5.815  69.922  1.00  0.00    -0.006 A  
HETATM   10  C   UNL     1     -10.840  10.379  70.224  1.00  0.00    -0.308 A  
HETATM   11  C   UNL     1     -12.188  10.061  70.459  1.00  0.00    -0.308 A  
HETATM   12  F   UNL     1     -13.700  13.356  70.672  1.00  0.00     0.136 F  
HETATM   13  C   UNL     1     -10.494  11.741  70.151  1.00  0.00     1.418 A  
HETATM   14  C   UNL     1     -13.155  11.064  70.596  1.00  0.00    -0.087 A  
HETATM   15  C   UNL     1     -12.777  12.398  70.512  1.00  0.00     0.027 A  
HETATM   16  C   UNL     1     -11.455  12.748  70.289  1.00  0.00     0.129 A  
ENDROOT
BRANCH   8  17
HETATM   17  C   UNL     1      -9.043   8.969  67.583  1.00  0.00    -0.144 C  
BRANCH  17  18
HETATM   18  C   UNL     1      -9.767   9.906  66.611  1.00  0.00    -0.198 C  
BRANCH  18  19
HETATM   19  N   UNL     1      -9.084  11.128  66.183  1.00  0.00    -0.195 NA 
HETATM   20  C   UNL     1     -10.569  12.946  65.066  1.00  0.00    -0.333 C  
HETATM   21  C   UNL     1      -9.557  11.781  64.953  1.00  0.00    -0.112 C  
HETATM   22  C   UNL     1     -10.454  13.820  66.334  1.00  0.00    -0.284 C  
HETATM   23  C   UNL     1     -10.255  12.866  67.511  1.00  0.00    -0.213 C  
HETATM   24  C   UNL     1      -8.971  12.073  67.299  1.00  0.00    -0.180 C  
BRANCH  22  25
HETATM   25  N   UNL     1      -9.461  14.905  66.320  1.00  0.00    -0.297 N  
HETATM   26  C   UNL     1      -9.403  16.026  65.457  1.00  0.00     0.077 C  
HETATM   27  O   UNL     1     -10.171  16.360  64.573  1.00  0.00     0.091 OA 
HETATM   28  N   UNL     1      -8.247  16.744  65.802  1.00  0.00    -0.295 NA 
HETATM   29  C   UNL     1      -7.591  16.093  66.829  1.00  0.00    -0.233 A  
HETATM   30  C   UNL     1      -6.403  16.436  67.447  1.00  0.00    -0.203 A  
HETATM   31  C   UNL     1      -5.931  15.572  68.431  1.00  0.00    -0.107 A  
HETATM   32  C   UNL     1      -6.649  14.411  68.777  1.00  0.00    -0.090 A  
HETATM   33  C   UNL     1      -7.869  14.104  68.156  1.00  0.00    -0.142 A  
HETATM   34  C   UNL     1      -8.320  14.955  67.165  1.00  0.00    -0.221 A  
ENDBRANCH  22  25
ENDBRANCH  18  19
ENDBRANCH  17  18
ENDBRANCH   8  17
TORSDOF 4
ENDMDL
MODEL      290
REMARK 921   NORMALIZED FREE ENERGY PREDICTED BY IDOCK:    1.49 KCAL/MOL
REMARK 922        TOTAL FREE ENERGY PREDICTED BY IDOCK:    1.05 KCAL/MOL
REMARK 923 INTER-LIGAND FREE ENERGY PREDICTED BY IDOCK:    1.13 KCAL/MOL
REMARK 924 INTRA-LIGAND FREE ENERGY PREDICTED BY IDOCK:   -0.09 KCAL/MOL
REMARK 927      BINDING AFFINITY PREDICTED BY RF-SCORE:    0.00 PKD
ROOT
HETATM    1  F   UNL     1      -5.908  19.855  62.777  1.00  0.00    -0.296 F  
HETATM    2  C   UNL     1      -6.554  19.880  63.949  1.00  0.00     0.550 A  
HETATM    3  C   UNL     1      -7.035  21.083  64.446  1.00  0.00     0.236 A  
HETATM    4  C   UNL     1      -7.695  21.110  65.680  1.00  0.00     1.123 A  
HETATM    5  C   UNL     1      -7.883  19.931  66.430  1.00  0.00    -0.335 A  
HETATM    6  C   UNL     1      -8.546  20.003  67.818  1.00  0.00    -0.347 C  
HETATM    7  C   UNL     1      -7.382  18.732  65.894  1.00  0.00    -0.261 A  
HETATM    8  C   UNL     1      -9.914  19.261  67.930  1.00  0.00    -0.462 C  
HETATM    9  C   UNL     1      -6.723  18.704  64.663  1.00  0.00     0.895 A  
HETATM   10  C   UNL     1      -7.612  19.854  69.029  1.00  0.00    -0.178 A  
HETATM   11  C   UNL     1      -6.239  19.584  68.908  1.00  0.00    -0.293 A  
HETATM   12  F   UNL     1      -5.137  19.797  72.361  1.00  0.00    -0.204 F  
HETATM   13  C   UNL     1      -8.116  20.109  70.318  1.00  0.00     1.233 A  
HETATM   14  C   UNL     1      -5.407  19.550  70.034  1.00  0.00    -0.230 A  
HETATM   15  C   UNL     1      -5.941  19.802  71.291  1.00  0.00    -0.164 A  
HETATM   16  C   UNL     1      -7.289  20.079  71.446  1.00  0.00     1.212 A  
ENDROOT
BRANCH   8  17
HETATM   17  C   UNL     1     -10.036  17.761  67.637  1.00  0.00    -0.322 C  
BRANCH  17  18
HETATM   18  C   UNL     1      -8.967  16.809  68.187  1.00  0.00    -0.224 C  
BRANCH  18  19
HETATM   19  N   UNL     1      -9.396  15.511  68.710  1.00  0.00    -0.196 NA 
HETATM   20  C   UNL     1      -9.406  13.535  67.021  1.00  0.00    -0.247 C  
HETATM   21  C   UNL     1     -10.159  14.631  67.813  1.00  0.00    -0.228 C  
HETATM   22  C   UNL     1      -8.161  12.937  67.711  1.00  0.00    -0.174 C  
HETATM   23  C   UNL     1      -7.388  14.107  68.318  1.00  0.00    -0.120 C  
HETATM   24  C   UNL     1      -8.271  14.812  69.341  1.00  0.00    -0.012 C  
BRANCH  22  25
HETATM   25  N   UNL     1      -8.380  11.851  68.678  1.00  0.00    -0.106 N  
HETATM   26  C   UNL     1      -9.581  11.499  69.341  1.00  0.00     0.519 C  
HETATM   27  O   UNL     1     -10.693  11.984  69.231  1.00  0.00    -0.146 OA 
HETATM   28  N   UNL     1      -9.273  10.434  70.201  1.00  0.00     0.261 NA 
HETATM   29  C   UNL     1      -7.927  10.136  70.100  1.00  0.00    -0.004 A  
HETATM   30  C   UNL     1      -7.201   9.182  70.789  1.00  0.00    -0.112 A  
HETATM   31  C   UNL     1      -5.835   9.121  70.531  1.00  0.00    -0.038 A  
HETATM   32  C   UNL     1      -5.236   9.992  69.600  1.00  0.00    -0.038 A  
HETATM   33  C   UNL     1      -6.003  10.929  68.891  1.00  0.00    -0.040 A  
HETATM   34  C   UNL     1      -7.355  10.998  69.167  1.00  0.00    -0.121 A  
ENDBRANCH  22  25
ENDBRANCH  18  19
ENDBRANCH  17  18
ENDBRANCH   8  17
TORSDOF 4
ENDMDL
MODEL      291
REMARK 921   NORMALIZED FREE ENERGY PREDICTED BY IDOCK:    1.71 KCAL/MOL
REMARK 922        TOTAL FREE ENERGY PREDICTED BY IDOCK:    1.32 KCAL/MOL
REMARK 923 INTER-LIGAND FREE ENERGY PREDICTED BY IDOCK:   -0.24 KCAL/MOL
REMARK 924 INTRA-LIGAND FREE ENERGY PREDICTED BY IDOCK:    1.56 KCAL/MOL
REMARK 927      BINDING AFFINITY PREDICTED BY RF-SCORE:    0.00 PKD
ROOT
HETATM    1  F   UNL     1     -14.004  15.313  64.661  1.00  0.00     1.428 F  
HETATM    2  C   UNL     1     -13.149  14.628  65.431  1.00  0.00     0.274 A  
HETATM    3  C   UNL     1     -13.267  14.683  66.812  1.00  0.00     2.436 A  
HETATM    4  C   UNL     1     -12.361  13.980  67.615  1.00  0.00    -0.079 A  
HETATM    5  C   UNL     1     -11.327  13.211  67.042  1.00  0.00    -0.349 A  
HETATM    6  C   UNL     1     -10.301  12.509  67.950  1.00  0.00    -0.219 C  
HETATM    7  C   UNL     1     -11.239  13.179  65.640  1.00  0.00    -0.306 A  
HETATM    8  C   UNL     1     -10.322  10.950  67.882  1.00  0.00    -0.216 C  
HETATM    9  C   UNL     1     -12.143  13.881  64.838  1.00  0.00    -0.434 A  
HETATM   10  C   UNL     1      -8.906  13.148  68.025  1.00  0.00    -0.191 A  
HETATM   11  C   UNL     1      -8.532  14.262  67.256  1.00  0.00    -0.226 A  
HETATM   12  F   UNL     1      -5.218  14.980  68.554  1.00  0.00    -0.084 F  
HETATM   13  C   UNL     1      -7.987  12.679  68.983  1.00  0.00     0.301 A  
HETATM   14  C   UNL     1      -7.283  14.871  67.424  1.00  0.00    -0.213 A  
HETATM   15  C   UNL     1      -6.400  14.378  68.376  1.00  0.00    -0.101 A  
HETATM   16  C   UNL     1      -6.739  13.285  69.158  1.00  0.00    -0.092 A  
ENDROOT
BRANCH   8  17
HETATM   17  C   UNL     1     -10.086  10.206  66.562  1.00  0.00    -0.296 C  
BRANCH  17  18
HETATM   18  C   UNL     1     -10.529   8.743  66.447  1.00  0.00     0.046 C  
BRANCH  18  19
HETATM   19  N   UNL     1      -9.755   7.724  67.156  1.00  0.00    -0.170 NA 
HETATM   20  C   UNL     1      -8.078   8.591  68.944  1.00  0.00    -0.119 C  
HETATM   21  C   UNL     1      -8.369   8.052  67.523  1.00  0.00    -0.123 C  
HETATM   22  C   UNL     1      -9.004   8.074  70.066  1.00  0.00    -0.144 C  
HETATM   23  C   UNL     1     -10.429   8.111  69.513  1.00  0.00    -0.227 C  
HETATM   24  C   UNL     1     -10.515   7.198  68.295  1.00  0.00    -0.198 C  
BRANCH  22  25
HETATM   25  N   UNL     1      -8.674   6.776  70.672  1.00  0.00    -0.142 N  
HETATM   26  C   UNL     1      -8.497   6.472  72.044  1.00  0.00    -0.114 C  
HETATM   27  O   UNL     1      -8.616   7.197  73.016  1.00  0.00    -0.118 OA 
HETATM   28  N   UNL     1      -8.142   5.116  72.117  1.00  0.00    -0.111 NA 
HETATM   29  C   UNL     1      -8.079   4.589  70.841  1.00  0.00    -0.077 A  
HETATM   30  C   UNL     1      -7.737   3.306  70.455  1.00  0.00    -0.043 A  
HETATM   31  C   UNL     1      -7.704   3.047  69.088  1.00  0.00    -0.048 A  
HETATM   32  C   UNL     1      -8.016   4.053  68.154  1.00  0.00    -0.077 A  
HETATM   33  C   UNL     1      -8.391   5.338  68.575  1.00  0.00    -0.089 A  
HETATM   34  C   UNL     1      -8.402   5.595  69.934  1.00  0.00    -0.117 A  
ENDBRANCH  22  25
ENDBRANCH  18  19
ENDBRANCH  17  18
ENDBRANCH   8  17
TORSDOF 4
ENDMDL
MODEL      292
REMARK 921   NORMALIZED FREE ENERGY PREDICTED BY IDOCK:    1.97 KCAL/MOL
REMARK 922        TOTAL FREE ENERGY PREDICTED BY IDOCK:    1.65 KCAL/MOL
REMARK 923 INTER-LIGAND FREE ENERGY PREDICTED BY IDOCK:    1.78 KCAL/MOL
REMARK 924 INTRA-LIGAND FREE ENERGY PREDICTED BY IDOCK:   -0.13 KCAL/MOL
REMARK 927      BINDING AFFINITY PREDICTED BY RF-SCORE:    0.00 PKD
ROOT
HETATM    1  F   UNL     1      -6.041   1.818  70.122  1.00  0.00    -0.020 F  
HETATM    2  C   UNL     1      -6.435   3.097  70.154  1.00  0.00    -0.032 A  
HETATM    3  C   UNL     1      -7.171   3.566  71.232  1.00  0.00    -0.033 A  
HETATM    4  C   UNL     1      -7.596   4.900  71.255  1.00  0.00    -0.082 A  
HETATM    5  C   UNL     1      -7.286   5.780  70.198  1.00  0.00    -0.072 A  
HETATM    6  C   UNL     1      -7.830   7.220  70.214  1.00  0.00    -0.096 C  
HETATM    7  C   UNL     1      -6.538   5.268  69.123  1.00  0.00    -0.051 A  
HETATM    8  C   UNL     1      -6.741   8.332  70.311  1.00  0.00    -0.036 C  
HETATM    9  C   UNL     1      -6.114   3.938  69.099  1.00  0.00    -0.027 A  
HETATM   10  C   UNL     1      -8.998   7.519  69.262  1.00  0.00    -0.136 A  
HETATM   11  C   UNL     1      -9.507   6.576  68.355  1.00  0.00    -0.120 A  
HETATM   12  F   UNL     1     -12.362   8.344  66.972  1.00  0.00     4.039 F  
HETATM   13  C   UNL     1      -9.672   8.751  69.369  1.00  0.00    -0.172 A  
HETATM   14  C   UNL     1     -10.633   6.859  67.572  1.00  0.00    -0.351 A  
HETATM   15  C   UNL     1     -11.269   8.087  67.702  1.00  0.00     0.613 A  
HETATM   16  C   UNL     1     -10.798   9.038  68.592  1.00  0.00    -0.061 A  
ENDROOT
BRANCH   8  17
HETATM   17  C   UNL     1      -5.636   8.461  69.255  1.00  0.00    -0.031 C  
BRANCH  17  18
HETATM   18  C   UNL     1      -5.528   9.760  68.449  1.00  0.00    -0.039 C  
BRANCH  18  19
HETATM   19  N   UNL     1      -6.467  10.843  68.747  1.00  0.00    -0.051 NA 
HETATM   20  C   UNL     1      -5.947  13.148  67.661  1.00  0.00    -0.136 C  
HETATM   21  C   UNL     1      -5.921  12.202  68.886  1.00  0.00    -0.064 C  
HETATM   22  C   UNL     1      -7.126  12.954  66.683  1.00  0.00     1.005 C  
HETATM   23  C   UNL     1      -7.293  11.447  66.487  1.00  0.00    -0.063 C  
HETATM   24  C   UNL     1      -7.611  10.801  67.830  1.00  0.00    -0.091 C  
BRANCH  22  25
HETATM   25  N   UNL     1      -8.396  13.617  67.013  1.00  0.00    -0.136 N  
HETATM   26  C   UNL     1      -8.595  14.797  67.771  1.00  0.00    -0.166 C  
HETATM   27  O   UNL     1      -7.770  15.536  68.279  1.00  0.00    -0.113 OA 
HETATM   28  N   UNL     1      -9.982  14.998  67.852  1.00  0.00    -0.221 NA 
HETATM   29  C   UNL     1     -10.634  13.977  67.187  1.00  0.00    -0.274 A  
HETATM   30  C   UNL     1     -11.993  13.771  67.047  1.00  0.00    -0.452 A  
HETATM   31  C   UNL     1     -12.390  12.625  66.364  1.00  0.00     0.040 A  
HETATM   32  C   UNL     1     -11.438  11.733  65.835  1.00  0.00    -0.273 A  
HETATM   33  C   UNL     1     -10.063  11.985  65.964  1.00  0.00    -0.257 A  
HETATM   34  C   UNL     1      -9.676  13.113  66.662  1.00  0.00    -0.261 A  
ENDBRANCH  22  25
ENDBRANCH  18  19
ENDBRANCH  17  18
ENDBRANCH   8  17
TORSDOF 4
ENDMDL
MODEL      293
REMARK 921   NORMALIZED FREE ENERGY PREDICTED BY IDOCK:    2.32 KCAL/MOL
REMARK 922        TOTAL FREE ENERGY PREDICTED BY IDOCK:    2.07 KCAL/MOL
REMARK 923 INTER-LIGAND FREE ENERGY PREDICTED BY IDOCK:   -0.14 KCAL/MOL
REMARK 924 INTRA-LIGAND FREE ENERGY PREDICTED BY IDOCK:    2.22 KCAL/MOL
REMARK 927      BINDING AFFINITY PREDICTED BY RF-SCORE:    0.00 PKD
ROOT
HETATM    1  F   UNL     1     -14.006  15.313  64.661  1.00  0.00     1.428 F  
HETATM    2  C   UNL     1     -13.141  14.614  65.407  1.00  0.00     0.274 A  
HETATM    3  C   UNL     1     -13.222  14.668  66.791  1.00  0.00     2.436 A  
HETATM    4  C   UNL     1     -12.305  13.950  67.568  1.00  0.00    -0.113 A  
HETATM    5  C   UNL     1     -11.297  13.168  66.967  1.00  0.00    -0.349 A  
HETATM    6  C   UNL     1     -10.257  12.450  67.846  1.00  0.00    -0.213 C  
HETATM    7  C   UNL     1     -11.247  13.138  65.562  1.00  0.00    -0.305 A  
HETATM    8  C   UNL     1     -10.302  10.892  67.775  1.00  0.00    -0.218 C  
HETATM    9  C   UNL     1     -12.162  13.855  64.786  1.00  0.00    -0.441 A  
HETATM   10  C   UNL     1      -8.852  13.069  67.885  1.00  0.00    -0.193 A  
HETATM   11  C   UNL     1      -8.483  14.180  67.108  1.00  0.00    -0.214 A  
HETATM   12  F   UNL     1      -5.125  14.848  68.319  1.00  0.00    -0.088 F  
HETATM   13  C   UNL     1      -7.915  12.585  68.817  1.00  0.00     0.060 A  
HETATM   14  C   UNL     1      -7.221  14.771  67.244  1.00  0.00    -0.114 A  
HETATM   15  C   UNL     1      -6.321  14.262  68.172  1.00  0.00    -0.132 A  
HETATM   16  C   UNL     1      -6.654  13.173  68.959  1.00  0.00    -0.105 A  
ENDROOT
BRANCH   8  17
HETATM   17  C   UNL     1     -10.112  10.147  66.448  1.00  0.00    -0.300 C  
BRANCH  17  18
HETATM   18  C   UNL     1     -10.582   8.692  66.340  1.00  0.00     0.292 C  
BRANCH  18  19
HETATM   19  N   UNL     1      -9.632   7.628  66.671  1.00  0.00    -0.201 NA 
HETATM   20  C   UNL     1      -9.425   7.012  69.189  1.00  0.00    -0.143 C  
HETATM   21  C   UNL     1      -8.889   7.745  67.935  1.00  0.00    -0.123 C  
HETATM   22  C   UNL     1     -10.178   5.689  68.928  1.00  0.00    -0.211 C  
HETATM   23  C   UNL     1     -11.101   5.935  67.734  1.00  0.00    -0.091 C  
HETATM   24  C   UNL     1     -10.259   6.311  66.521  1.00  0.00    -0.100 C  
BRANCH  22  25
HETATM   25  N   UNL     1      -9.370   4.471  68.767  1.00  0.00    -0.135 N  
HETATM   26  C   UNL     1      -8.530   3.847  69.721  1.00  0.00    -0.060 C  
HETATM   27  O   UNL     1      -8.323   4.151  70.882  1.00  0.00    -0.076 OA 
HETATM   28  N   UNL     1      -7.936   2.748  69.081  1.00  0.00    -0.049 NA 
HETATM   29  C   UNL     1      -8.368   2.691  67.769  1.00  0.00    -0.081 A  
HETATM   30  C   UNL     1      -8.009   1.793  66.782  1.00  0.00    -0.071 A  
HETATM   31  C   UNL     1      -8.559   1.990  65.519  1.00  0.00    -0.113 A  
HETATM   32  C   UNL     1      -9.447   3.056  65.277  1.00  0.00    -0.084 A  
HETATM   33  C   UNL     1      -9.818   3.935  66.306  1.00  0.00    -0.131 A  
HETATM   34  C   UNL     1      -9.253   3.745  67.552  1.00  0.00    -0.182 A  
ENDBRANCH  22  25
ENDBRANCH  18  19
ENDBRANCH  17  18
ENDBRANCH   8  17
TORSDOF 4
ENDMDL
MODEL      294
REMARK 921   NORMALIZED FREE ENERGY PREDICTED BY IDOCK:    3.12 KCAL/MOL
REMARK 922        TOTAL FREE ENERGY PREDICTED BY IDOCK:    3.06 KCAL/MOL
REMARK 923 INTER-LIGAND FREE ENERGY PREDICTED BY IDOCK:    2.31 KCAL/MOL
REMARK 924 INTRA-LIGAND FREE ENERGY PREDICTED BY IDOCK:    0.75 KCAL/MOL
REMARK 927      BINDING AFFINITY PREDICTED BY RF-SCORE:    0.00 PKD
ROOT
HETATM    1  F   UNL     1      -9.797  15.477  68.710  1.00  0.00    -0.192 F  
HETATM    2  C   UNL     1      -9.949  14.147  68.732  1.00  0.00    -0.183 A  
HETATM    3  C   UNL     1     -11.125  13.594  69.218  1.00  0.00    -0.241 A  
HETATM    4  C   UNL     1     -11.274  12.203  69.256  1.00  0.00    -0.288 A  
HETATM    5  C   UNL     1     -10.248  11.349  68.804  1.00  0.00    -0.209 A  
HETATM    6  C   UNL     1     -10.410   9.823  68.927  1.00  0.00    -0.225 C  
HETATM    7  C   UNL     1      -9.071  11.945  68.318  1.00  0.00    -0.183 A  
HETATM    8  C   UNL     1     -10.462   9.057  67.569  1.00  0.00    -0.338 C  
HETATM    9  C   UNL     1      -8.922  13.334  68.280  1.00  0.00    -0.176 A  
HETATM   10  C   UNL     1      -9.604   9.138  70.042  1.00  0.00    -0.218 A  
HETATM   11  C   UNL     1      -8.698   9.827  70.865  1.00  0.00     0.432 A  
HETATM   12  F   UNL     1      -7.732   7.243  73.227  1.00  0.00    -0.091 F  
HETATM   13  C   UNL     1      -9.857   7.786  70.339  1.00  0.00    -0.183 A  
HETATM   14  C   UNL     1      -8.056   9.184  71.930  1.00  0.00     0.345 A  
HETATM   15  C   UNL     1      -8.327   7.847  72.190  1.00  0.00    -0.131 A  
HETATM   16  C   UNL     1      -9.220   7.139  71.403  1.00  0.00    -0.150 A  
ENDROOT
BRANCH   8  17
HETATM   17  C   UNL     1      -9.306   9.137  66.563  1.00  0.00    -0.244 C  
BRANCH  17  18
HETATM   18  C   UNL     1      -9.462   8.454  65.200  1.00  0.00     0.619 C  
BRANCH  18  19
HETATM   19  N   UNL     1      -9.560   6.994  65.161  1.00  0.00     1.173 NA 
HETATM   20  C   UNL     1      -7.319   5.686  65.327  1.00  0.00    -0.072 C  
HETATM   21  C   UNL     1      -8.484   6.255  64.482  1.00  0.00     0.084 C  
HETATM   22  C   UNL     1      -7.674   5.257  66.766  1.00  0.00    -0.096 C  
HETATM   23  C   UNL     1      -8.571   6.352  67.344  1.00  0.00    -0.107 C  
HETATM   24  C   UNL     1      -9.835   6.459  66.499  1.00  0.00    -0.116 C  
BRANCH  22  25
HETATM   25  N   UNL     1      -8.243   3.914  66.952  1.00  0.00    -0.099 N  
HETATM   26  C   UNL     1      -8.193   2.813  66.063  1.00  0.00    -0.086 C  
HETATM   27  O   UNL     1      -7.642   2.720  64.980  1.00  0.00    -0.070 OA 
HETATM   28  N   UNL     1      -8.922   1.774  66.662  1.00  0.00    -0.119 NA 
HETATM   29  C   UNL     1      -9.429   2.207  67.872  1.00  0.00    -0.123 A  
HETATM   30  C   UNL     1     -10.226   1.519  68.768  1.00  0.00     0.801 A  
HETATM   31  C   UNL     1     -10.643   2.210  69.901  1.00  0.00     2.433 A  
HETATM   32  C   UNL     1     -10.254   3.547  70.116  1.00  0.00     0.759 A  
HETATM   33  C   UNL     1      -9.418   4.210  69.205  1.00  0.00    -0.258 A  
HETATM   34  C   UNL     1      -9.024   3.524  68.072  1.00  0.00    -0.135 A  
ENDBRANCH  22  25
ENDBRANCH  18  19
ENDBRANCH  17  18
ENDBRANCH   8  17
TORSDOF 4
ENDMDL
MODEL      295
REMARK 921   NORMALIZED FREE ENERGY PREDICTED BY IDOCK:    3.30 KCAL/MOL
REMARK 922        TOTAL FREE ENERGY PREDICTED BY IDOCK:    3.29 KCAL/MOL
REMARK 923 INTER-LIGAND FREE ENERGY PREDICTED BY IDOCK:   -1.51 KCAL/MOL
REMARK 924 INTRA-LIGAND FREE ENERGY PREDICTED BY IDOCK:    4.80 KCAL/MOL
REMARK 927      BINDING AFFINITY PREDICTED BY RF-SCORE:    0.00 PKD
ROOT
HETATM    1  F   UNL     1      -6.113   3.566  72.123  1.00  0.00    -0.011 F  
HETATM    2  C   UNL     1      -6.425   3.954  70.880  1.00  0.00    -0.026 A  
HETATM    3  C   UNL     1      -5.747   3.412  69.797  1.00  0.00    -0.018 A  
HETATM    4  C   UNL     1      -6.064   3.832  68.500  1.00  0.00    -0.031 A  
HETATM    5  C   UNL     1      -7.065   4.799  68.272  1.00  0.00    -0.061 A  
HETATM    6  C   UNL     1      -7.340   5.296  66.841  1.00  0.00    -0.086 C  
HETATM    7  C   UNL     1      -7.730   5.324  69.394  1.00  0.00    -0.080 A  
HETATM    8  C   UNL     1      -8.758   4.953  66.289  1.00  0.00    -0.115 C  
HETATM    9  C   UNL     1      -7.414   4.905  70.689  1.00  0.00    -0.065 A  
HETATM   10  C   UNL     1      -6.815   6.697  66.493  1.00  0.00    -0.061 A  
HETATM   11  C   UNL     1      -6.190   7.535  67.431  1.00  0.00    -0.049 A  
HETATM   12  F   UNL     1      -5.153  10.327  65.353  1.00  0.00    -0.041 F  
HETATM   13  C   UNL     1      -6.854   7.130  65.154  1.00  0.00    -0.051 A  
HETATM   14  C   UNL     1      -5.642   8.766  67.049  1.00  0.00    -0.041 A  
HETATM   15  C   UNL     1      -5.703   9.162  65.719  1.00  0.00    -0.050 A  
HETATM   16  C   UNL     1      -6.306   8.357  64.767  1.00  0.00    -0.064 A  
ENDROOT
BRANCH   8  17
HETATM   17  C   UNL     1     -10.029   5.431  67.002  1.00  0.00    -0.204 C  
BRANCH  17  18
HETATM   18  C   UNL     1      -9.924   5.940  68.443  1.00  0.00    -0.150 C  
BRANCH  18  19
HETATM   19  N   UNL     1      -9.603   7.352  68.660  1.00  0.00    -0.146 NA 
HETATM   20  C   UNL     1      -9.764   8.901  66.577  1.00  0.00    -0.322 C  
HETATM   21  C   UNL     1      -8.919   8.071  67.574  1.00  0.00    -0.138 C  
HETATM   22  C   UNL     1     -11.051   9.534  67.147  1.00  0.00     0.233 C  
HETATM   23  C   UNL     1     -11.722   8.468  68.012  1.00  0.00     2.211 C  
HETATM   24  C   UNL     1     -10.780   8.080  69.145  1.00  0.00    -0.106 C  
BRANCH  22  25
HETATM   25  N   UNL     1     -10.920  10.821  67.847  1.00  0.00    -0.266 N  
HETATM   26  C   UNL     1     -11.380  11.162  69.142  1.00  0.00    -0.273 C  
HETATM   27  O   UNL     1     -11.943  10.466  69.969  1.00  0.00    -0.268 OA 
HETATM   28  N   UNL     1     -11.065  12.515  69.341  1.00  0.00    -0.141 NA 
HETATM   29  C   UNL     1     -10.447  13.014  68.210  1.00  0.00    -0.250 A  
HETATM   30  C   UNL     1     -10.002  14.301  67.968  1.00  0.00    -0.220 A  
HETATM   31  C   UNL     1      -9.455  14.553  66.713  1.00  0.00    -0.284 A  
HETATM   32  C   UNL     1      -9.356  13.531  65.750  1.00  0.00     0.136 A  
HETATM   33  C   UNL     1      -9.786  12.226  66.034  1.00  0.00    -0.263 A  
HETATM   34  C   UNL     1     -10.348  11.988  67.274  1.00  0.00    -0.212 A  
ENDBRANCH  22  25
ENDBRANCH  18  19
ENDBRANCH  17  18
ENDBRANCH   8  17
TORSDOF 4
ENDMDL
MODEL      296
REMARK 921   NORMALIZED FREE ENERGY PREDICTED BY IDOCK:    3.46 KCAL/MOL
REMARK 922        TOTAL FREE ENERGY PREDICTED BY IDOCK:    3.48 KCAL/MOL
REMARK 923 INTER-LIGAND FREE ENERGY PREDICTED BY IDOCK:   -0.56 KCAL/MOL
REMARK 924 INTRA-LIGAND FREE ENERGY PREDICTED BY IDOCK:    4.04 KCAL/MOL
REMARK 927      BINDING AFFINITY PREDICTED BY RF-SCORE:    0.00 PKD
ROOT
HETATM    1  F   UNL     1      -7.810   2.358  65.096  1.00  0.00    -0.073 F  
HETATM    2  C   UNL     1      -8.143   3.103  66.158  1.00  0.00    -0.089 A  
HETATM    3  C   UNL     1      -9.288   2.802  66.880  1.00  0.00    -0.086 A  
HETATM    4  C   UNL     1      -9.642   3.594  67.979  1.00  0.00    -0.172 A  
HETATM    5  C   UNL     1      -8.851   4.695  68.368  1.00  0.00    -0.124 A  
HETATM    6  C   UNL     1      -9.306   5.591  69.534  1.00  0.00    -0.167 C  
HETATM    7  C   UNL     1      -7.699   4.968  67.612  1.00  0.00    -0.087 A  
HETATM    8  C   UNL     1      -8.363   5.579  70.777  1.00  0.00    -0.122 C  
HETATM    9  C   UNL     1      -7.344   4.178  66.514  1.00  0.00    -0.080 A  
HETATM   10  C   UNL     1      -9.882   6.964  69.155  1.00  0.00    -0.156 A  
HETATM   11  C   UNL     1      -9.927   7.437  67.834  1.00  0.00    -0.201 A  
HETATM   12  F   UNL     1     -11.756  10.550  68.223  1.00  0.00    -0.355 F  
HETATM   13  C   UNL     1     -10.498   7.747  70.150  1.00  0.00    -0.231 A  
HETATM   14  C   UNL     1     -10.547   8.653  67.521  1.00  0.00    -0.292 A  
HETATM   15  C   UNL     1     -11.140   9.401  68.530  1.00  0.00     0.068 A  
HETATM   16  C   UNL     1     -11.120   8.962  69.844  1.00  0.00    -0.146 A  
ENDROOT
BRANCH   8  17
HETATM   17  C   UNL     1      -6.889   5.988  70.666  1.00  0.00    -0.058 C  
BRANCH  17  18
HETATM   18  C   UNL     1      -6.526   7.476  70.718  1.00  0.00    -0.039 C  
BRANCH  18  19
HETATM   19  N   UNL     1      -7.070   8.360  69.686  1.00  0.00    -0.051 NA 
HETATM   20  C   UNL     1      -5.332   9.578  68.183  1.00  0.00    -0.037 C  
HETATM   21  C   UNL     1      -6.320   9.587  69.374  1.00  0.00    -0.043 C  
HETATM   22  C   UNL     1      -5.706   8.655  67.002  1.00  0.00    -0.042 C  
HETATM   23  C   UNL     1      -6.183   7.335  67.608  1.00  0.00    -0.046 C  
HETATM   24  C   UNL     1      -7.406   7.599  68.478  1.00  0.00    -0.095 C  
BRANCH  22  25
HETATM   25  N   UNL     1      -6.645   9.183  66.002  1.00  0.00    -0.068 N  
HETATM   26  C   UNL     1      -6.995  10.533  65.757  1.00  0.00    -0.125 C  
HETATM   27  O   UNL     1      -6.573  11.547  66.284  1.00  0.00    -0.033 OA 
HETATM   28  N   UNL     1      -7.966  10.523  64.744  1.00  0.00    -0.099 NA 
HETATM   29  C   UNL     1      -8.233   9.219  64.376  1.00  0.00    -0.151 A  
HETATM   30  C   UNL     1      -9.141   8.755  63.441  1.00  0.00     0.556 A  
HETATM   31  C   UNL     1      -9.249   7.376  63.297  1.00  0.00     2.006 A  
HETATM   32  C   UNL     1      -8.455   6.505  64.068  1.00  0.00     0.259 A  
HETATM   33  C   UNL     1      -7.519   7.003  64.986  1.00  0.00    -0.093 A  
HETATM   34  C   UNL     1      -7.432   8.374  65.139  1.00  0.00    -0.084 A  
ENDBRANCH  22  25
ENDBRANCH  18  19
ENDBRANCH  17  18
ENDBRANCH   8  17
TORSDOF 4
ENDMDL
MODEL      297
REMARK 921   NORMALIZED FREE ENERGY PREDICTED BY IDOCK:    4.03 KCAL/MOL
REMARK 922        TOTAL FREE ENERGY PREDICTED BY IDOCK:    4.18 KCAL/MOL
REMARK 923 INTER-LIGAND FREE ENERGY PREDICTED BY IDOCK:    3.80 KCAL/MOL
REMARK 924 INTRA-LIGAND FREE ENERGY PREDICTED BY IDOCK:    0.38 KCAL/MOL
REMARK 927      BINDING AFFINITY PREDICTED BY RF-SCORE:    0.00 PKD
ROOT
HETATM    1  F   UNL     1      -6.128  18.536  62.909  1.00  0.00     0.689 F  
HETATM    2  C   UNL     1      -6.656  19.017  64.042  1.00  0.00     1.502 A  
HETATM    3  C   UNL     1      -6.533  20.365  64.343  1.00  0.00    -0.282 A  
HETATM    4  C   UNL     1      -7.070  20.862  65.537  1.00  0.00     0.137 A  
HETATM    5  C   UNL     1      -7.740  20.012  66.442  1.00  0.00    -0.324 A  
HETATM    6  C   UNL     1      -8.255  20.572  67.780  1.00  0.00    -0.173 C  
HETATM    7  C   UNL     1      -7.845  18.652  66.102  1.00  0.00    -0.246 A  
HETATM    8  C   UNL     1      -9.806  20.545  67.950  1.00  0.00    -0.360 C  
HETATM    9  C   UNL     1      -7.309  18.156  64.911  1.00  0.00     2.184 A  
HETATM   10  C   UNL     1      -7.447  20.198  69.032  1.00  0.00    -0.013 A  
HETATM   11  C   UNL     1      -6.344  19.329  69.000  1.00  0.00    -0.306 A  
HETATM   12  F   UNL     1      -5.149  19.523  72.424  1.00  0.00    -0.196 F  
HETATM   13  C   UNL     1      -7.741  20.834  70.253  1.00  0.00     2.400 A  
HETATM   14  C   UNL     1      -5.578  19.090  70.147  1.00  0.00    -0.257 A  
HETATM   15  C   UNL     1      -5.901  19.732  71.336  1.00  0.00    -0.235 A  
HETATM   16  C   UNL     1      -6.978  20.601  71.402  1.00  0.00     1.350 A  
ENDROOT
BRANCH   8  17
HETATM   17  C   UNL     1     -10.595  19.231  67.871  1.00  0.00    -0.478 C  
BRANCH  17  18
HETATM   18  C   UNL     1      -9.866  17.911  68.147  1.00  0.00    -0.334 C  
BRANCH  18  19
HETATM   19  N   UNL     1     -10.570  16.875  68.904  1.00  0.00    -0.347 NA 
HETATM   20  C   UNL     1     -12.355  15.508  67.598  1.00  0.00     0.915 C  
HETATM   21  C   UNL     1     -11.987  16.641  68.587  1.00  0.00     0.648 C  
HETATM   22  C   UNL     1     -11.416  14.283  67.593  1.00  0.00    -0.346 C  
HETATM   23  C   UNL     1      -9.986  14.823  67.636  1.00  0.00    -0.226 C  
HETATM   24  C   UNL     1      -9.796  15.629  68.916  1.00  0.00    -0.219 C  
BRANCH  22  25
HETATM   25  N   UNL     1     -11.651  13.245  68.608  1.00  0.00    -0.303 N  
HETATM   26  C   UNL     1     -12.532  13.289  69.715  1.00  0.00    -0.013 C  
HETATM   27  O   UNL     1     -13.310  14.166  70.048  1.00  0.00     0.307 OA 
HETATM   28  N   UNL     1     -12.363  12.085  70.416  1.00  0.00    -0.274 NA 
HETATM   29  C   UNL     1     -11.399  11.319  69.788  1.00  0.00    -0.271 A  
HETATM   30  C   UNL     1     -10.904  10.083  70.159  1.00  0.00    -0.365 A  
HETATM   31  C   UNL     1      -9.891   9.547  69.371  1.00  0.00    -0.194 A  
HETATM   32  C   UNL     1      -9.410  10.240  68.243  1.00  0.00    -0.140 A  
HETATM   33  C   UNL     1      -9.953  11.479  67.871  1.00  0.00    -0.193 A  
HETATM   34  C   UNL     1     -10.945  12.015  68.671  1.00  0.00    -0.240 A  
ENDBRANCH  22  25
ENDBRANCH  18  19
ENDBRANCH  17  18
ENDBRANCH   8  17
TORSDOF 4
ENDMDL
MODEL      298
REMARK 921   NORMALIZED FREE ENERGY PREDICTED BY IDOCK:    4.26 KCAL/MOL
REMARK 922        TOTAL FREE ENERGY PREDICTED BY IDOCK:    4.47 KCAL/MOL
REMARK 923 INTER-LIGAND FREE ENERGY PREDICTED BY IDOCK:   -2.31 KCAL/MOL
REMARK 924 INTRA-LIGAND FREE ENERGY PREDICTED BY IDOCK:    6.78 KCAL/MOL
REMARK 927      BINDING AFFINITY PREDICTED BY RF-SCORE:    0.00 PKD
ROOT
HETATM    1  F   UNL     1      -7.007   5.330  65.657  1.00  0.00    -0.058 F  
HETATM    2  C   UNL     1      -6.780   6.456  66.345  1.00  0.00    -0.056 A  
HETATM    3  C   UNL     1      -5.485   6.936  66.477  1.00  0.00    -0.018 A  
HETATM    4  C   UNL     1      -5.250   8.104  67.211  1.00  0.00    -0.032 A  
HETATM    5  C   UNL     1      -6.310   8.808  67.819  1.00  0.00    -0.057 A  
HETATM    6  C   UNL     1      -6.012  10.047  68.682  1.00  0.00    -0.041 C  
HETATM    7  C   UNL     1      -7.608   8.291  67.662  1.00  0.00    -0.098 A  
HETATM    8  C   UNL     1      -6.588  11.387  68.127  1.00  0.00    -0.057 C  
HETATM    9  C   UNL     1      -7.844   7.125  66.930  1.00  0.00    -0.107 A  
HETATM   10  C   UNL     1      -6.120   9.862  70.203  1.00  0.00    -0.063 A  
HETATM   11  C   UNL     1      -6.545   8.663  70.800  1.00  0.00    -0.045 A  
HETATM   12  F   UNL     1      -6.060   9.380  74.327  1.00  0.00    -0.107 F  
HETATM   13  C   UNL     1      -5.670  10.890  71.053  1.00  0.00    -0.007 A  
HETATM   14  C   UNL     1      -6.539   8.506  72.191  1.00  0.00    -0.085 A  
HETATM   15  C   UNL     1      -6.091   9.545  72.998  1.00  0.00     0.467 A  
HETATM   16  C   UNL     1      -5.658  10.737  72.443  1.00  0.00     0.739 A  
ENDROOT
BRANCH   8  17
HETATM   17  C   UNL     1      -8.091  11.569  67.881  1.00  0.00    -0.132 C  
BRANCH  17  18
HETATM   18  C   UNL     1      -9.025  10.368  68.074  1.00  0.00    -0.129 C  
BRANCH  18  19
HETATM   19  N   UNL     1      -9.032   9.696  69.374  1.00  0.00    -0.167 NA 
HETATM   20  C   UNL     1     -11.306   9.655  70.634  1.00  0.00    -0.379 C  
HETATM   21  C   UNL     1      -9.894  10.255  70.427  1.00  0.00     0.316 C  
HETATM   22  C   UNL     1     -11.455   8.151  70.321  1.00  0.00    -0.065 C  
HETATM   23  C   UNL     1     -10.703   7.896  69.014  1.00  0.00    -0.113 C  
HETATM   24  C   UNL     1      -9.234   8.252  69.207  1.00  0.00    -0.151 C  
BRANCH  22  25
HETATM   25  N   UNL     1     -11.078   7.199  71.376  1.00  0.00    -0.238 N  
HETATM   26  C   UNL     1     -11.265   7.325  72.774  1.00  0.00    -0.304 C  
HETATM   27  O   UNL     1     -11.806   8.217  73.403  1.00  0.00     0.155 OA 
HETATM   28  N   UNL     1     -10.695   6.186  73.364  1.00  0.00    -0.263 NA 
HETATM   29  C   UNL     1     -10.153   5.381  72.379  1.00  0.00    -0.182 A  
HETATM   30  C   UNL     1      -9.472   4.187  72.521  1.00  0.00    -0.175 A  
HETATM   31  C   UNL     1      -8.982   3.598  71.359  1.00  0.00    -0.160 A  
HETATM   32  C   UNL     1      -9.188   4.200  70.103  1.00  0.00    -0.210 A  
HETATM   33  C   UNL     1      -9.911   5.397  69.985  1.00  0.00    -0.274 A  
HETATM   34  C   UNL     1     -10.376   5.986  71.145  1.00  0.00    -0.214 A  
ENDBRANCH  22  25
ENDBRANCH  18  19
ENDBRANCH  17  18
ENDBRANCH   8  17
TORSDOF 4
ENDMDL
MODEL      299
REMARK 921   NORMALIZED FREE ENERGY PREDICTED BY IDOCK:    4.50 KCAL/MOL
REMARK 922        TOTAL FREE ENERGY PREDICTED BY IDOCK:    4.77 KCAL/MOL
REMARK 923 INTER-LIGAND FREE ENERGY PREDICTED BY IDOCK:    2.28 KCAL/MOL
REMARK 924 INTRA-LIGAND FREE ENERGY PREDICTED BY IDOCK:    2.49 KCAL/MOL
REMARK 927      BINDING AFFINITY PREDICTED BY RF-SCORE:    0.00 PKD
ROOT
HETATM    1  F   UNL     1      -9.206   4.896  68.223  1.00  0.00    -0.115 F  
HETATM    2  C   UNL     1      -9.304   6.126  67.702  1.00  0.00    -0.112 A  
HETATM    3  C   UNL     1     -10.182   6.364  66.655  1.00  0.00    -0.216 A  
HETATM    4  C   UNL     1     -10.269   7.647  66.101  1.00  0.00     0.389 A  
HETATM    5  C   UNL     1      -9.480   8.707  66.593  1.00  0.00    -0.267 A  
HETATM    6  C   UNL     1      -9.543  10.088  65.916  1.00  0.00    -0.283 C  
HETATM    7  C   UNL     1      -8.603   8.427  67.655  1.00  0.00    -0.130 A  
HETATM    8  C   UNL     1     -10.102  11.235  66.814  1.00  0.00    -0.254 C  
HETATM    9  C   UNL     1      -8.514   7.147  68.208  1.00  0.00    -0.124 A  
HETATM   10  C   UNL     1      -8.349  10.468  65.027  1.00  0.00    -0.140 A  
HETATM   11  C   UNL     1      -7.211   9.657  64.887  1.00  0.00    -0.118 A  
HETATM   12  F   UNL     1      -5.333  11.449  62.347  1.00  0.00    -0.186 F  
HETATM   13  C   UNL     1      -8.431  11.621  64.224  1.00  0.00     1.007 A  
HETATM   14  C   UNL     1      -6.187   9.996  63.993  1.00  0.00    -0.132 A  
HETATM   15  C   UNL     1      -6.301  11.144  63.220  1.00  0.00     0.787 A  
HETATM   16  C   UNL     1      -7.413  11.963  63.328  1.00  0.00     2.841 A  
ENDROOT
BRANCH   8  17
HETATM   17  C   UNL     1      -9.435  11.604  68.145  1.00  0.00    -0.191 C  
BRANCH  17  18
HETATM   18  C   UNL     1     -10.246  12.374  69.193  1.00  0.00     0.234 C  
BRANCH  18  19
HETATM   19  N   UNL     1     -10.815  13.669  68.817  1.00  0.00    -0.253 NA 
HETATM   20  C   UNL     1     -10.221  15.677  70.358  1.00  0.00    -0.009 C  
HETATM   21  C   UNL     1     -11.213  14.580  69.901  1.00  0.00    -0.203 C  
HETATM   22  C   UNL     1      -9.285  16.239  69.267  1.00  0.00    -0.192 C  
HETATM   23  C   UNL     1      -8.780  15.043  68.460  1.00  0.00    -0.175 C  
HETATM   24  C   UNL     1      -9.969  14.335  67.821  1.00  0.00    -0.227 C  
BRANCH  22  25
HETATM   25  N   UNL     1      -9.812  17.310  68.408  1.00  0.00    -0.293 N  
HETATM   26  C   UNL     1     -10.092  18.653  68.758  1.00  0.00    -0.353 C  
HETATM   27  O   UNL     1      -9.924  19.224  69.821  1.00  0.00    -0.026 OA 
HETATM   28  N   UNL     1     -10.626  19.267  67.614  1.00  0.00    -0.448 NA 
HETATM   29  C   UNL     1     -10.698  18.344  66.588  1.00  0.00    -0.212 A  
HETATM   30  C   UNL     1     -11.188  18.517  65.307  1.00  0.00     1.191 A  
HETATM   31  C   UNL     1     -11.191  17.399  64.477  1.00  0.00     1.422 A  
HETATM   32  C   UNL     1     -10.704  16.159  64.934  1.00  0.00    -0.297 A  
HETATM   33  C   UNL     1     -10.183  16.021  66.229  1.00  0.00    -0.329 A  
HETATM   34  C   UNL     1     -10.203  17.129  67.055  1.00  0.00    -0.313 A  
ENDBRANCH  22  25
ENDBRANCH  18  19
ENDBRANCH  17  18
ENDBRANCH   8  17
TORSDOF 4
ENDMDL
MODEL      300
REMARK 921   NORMALIZED FREE ENERGY PREDICTED BY IDOCK:    4.58 KCAL/MOL
REMARK 922        TOTAL FREE ENERGY PREDICTED BY IDOCK:    4.86 KCAL/MOL
REMARK 923 INTER-LIGAND FREE ENERGY PREDICTED BY IDOCK:    2.26 KCAL/MOL
REMARK 924 INTRA-LIGAND FREE ENERGY PREDICTED BY IDOCK:    2.60 KCAL/MOL
REMARK 927      BINDING AFFINITY PREDICTED BY RF-SCORE:    0.00 PKD
ROOT
HETATM    1  F   UNL     1      -6.139  17.496  63.515  1.00  0.00     2.691 F  
HETATM    2  C   UNL     1      -6.703  18.014  64.614  1.00  0.00     2.069 A  
HETATM    3  C   UNL     1      -6.699  19.388  64.808  1.00  0.00     0.110 A  
HETATM    4  C   UNL     1      -7.274  19.926  65.966  1.00  0.00    -0.314 A  
HETATM    5  C   UNL     1      -7.860  19.094  66.942  1.00  0.00    -0.266 A  
HETATM    6  C   UNL     1      -8.416  19.708  68.239  1.00  0.00    -0.355 C  
HETATM    7  C   UNL     1      -7.844  17.707  66.709  1.00  0.00    -0.265 A  
HETATM    8  C   UNL     1      -9.958  19.555  68.429  1.00  0.00    -0.540 C  
HETATM    9  C   UNL     1      -7.271  17.170  65.554  1.00  0.00     1.029 A  
HETATM   10  C   UNL     1      -7.572  19.507  69.507  1.00  0.00    -0.042 A  
HETATM   11  C   UNL     1      -6.395  18.740  69.529  1.00  0.00    -0.277 A  
HETATM   12  F   UNL     1      -5.206  19.307  72.913  1.00  0.00     0.944 F  
HETATM   13  C   UNL     1      -7.916  20.207  70.678  1.00  0.00     1.443 A  
HETATM   14  C   UNL     1      -5.605  18.661  70.682  1.00  0.00    -0.181 A  
HETATM   15  C   UNL     1      -5.979  19.362  71.821  1.00  0.00     0.084 A  
HETATM   16  C   UNL     1      -7.129  20.134  71.832  1.00  0.00     1.012 A  
ENDROOT
BRANCH   8  17
HETATM   17  C   UNL     1     -10.625  18.174  68.461  1.00  0.00    -0.146 C  
BRANCH  17  18
HETATM   18  C   UNL     1     -10.308  17.171  67.346  1.00  0.00    -0.333 C  
BRANCH  18  19
HETATM   19  N   UNL     1     -10.511  15.747  67.615  1.00  0.00    -0.276 NA 
HETATM   20  C   UNL     1     -12.217  14.518  66.086  1.00  0.00    -0.268 C  
HETATM   21  C   UNL     1     -11.864  15.202  67.429  1.00  0.00    -0.069 C  
HETATM   22  C   UNL     1     -11.057  13.794  65.371  1.00  0.00    -0.302 C  
HETATM   23  C   UNL     1      -9.840  14.714  65.461  1.00  0.00    -0.327 C  
HETATM   24  C   UNL     1      -9.495  14.942  66.928  1.00  0.00    -0.237 C  
BRANCH  22  25
HETATM   25  N   UNL     1     -10.751  12.421  65.797  1.00  0.00    -0.260 N  
HETATM   26  C   UNL     1     -10.292  11.341  65.004  1.00  0.00    -0.301 C  
HETATM   27  O   UNL     1     -10.014  11.318  63.818  1.00  0.00    -0.275 OA 
HETATM   28  N   UNL     1     -10.197  10.226  65.851  1.00  0.00    -0.246 NA 
HETATM   29  C   UNL     1     -10.598  10.582  67.125  1.00  0.00    -0.264 A  
HETATM   30  C   UNL     1     -10.689   9.788  68.253  1.00  0.00    -0.277 A  
HETATM   31  C   UNL     1     -11.174  10.390  69.411  1.00  0.00    -0.314 A  
HETATM   32  C   UNL     1     -11.541  11.749  69.418  1.00  0.00    -0.386 A  
HETATM   33  C   UNL     1     -11.407  12.540  68.267  1.00  0.00    -0.331 A  
HETATM   34  C   UNL     1     -10.945  11.930  67.116  1.00  0.00    -0.269 A  
ENDBRANCH  22  25
ENDBRANCH  18  19
ENDBRANCH  17  18
ENDBRANCH   8  17
TORSDOF 4
ENDMDL
MODEL      301
REMARK 921   NORMALIZED FREE ENERGY PREDICTED BY IDOCK:    4.66 KCAL/MOL
REMARK 922        TOTAL FREE ENERGY PREDICTED BY IDOCK:    4.96 KCAL/MOL
REMARK 923 INTER-LIGAND FREE ENERGY PREDICTED BY IDOCK:    4.94 KCAL/MOL
REMARK 924 INTRA-LIGAND FREE ENERGY PREDICTED BY IDOCK:    0.02 KCAL/MOL
REMARK 927      BINDING AFFINITY PREDICTED BY RF-SCORE:    0.00 PKD
ROOT
HETATM    1  F   UNL     1      -9.165  17.400  68.626  1.00  0.00    -0.253 F  
HETATM    2  C   UNL     1      -9.164  16.403  67.731  1.00  0.00    -0.201 A  
HETATM    3  C   UNL     1      -9.126  16.693  66.375  1.00  0.00    -0.325 A  
HETATM    4  C   UNL     1      -9.143  15.649  65.442  1.00  0.00     0.562 A  
HETATM    5  C   UNL     1      -9.196  14.303  65.857  1.00  0.00     0.060 A  
HETATM    6  C   UNL     1      -9.289  13.180  64.808  1.00  0.00     0.805 C  
HETATM    7  C   UNL     1      -9.234  14.049  67.240  1.00  0.00    -0.231 A  
HETATM    8  C   UNL     1      -8.063  12.217  64.768  1.00  0.00     2.612 C  
HETATM    9  C   UNL     1      -9.217  15.090  68.171  1.00  0.00    -0.183 A  
HETATM   10  C   UNL     1     -10.662  12.510  64.646  1.00  0.00    -0.341 A  
HETATM   11  C   UNL     1     -11.768  12.825  65.453  1.00  0.00    -0.425 A  
HETATM   12  F   UNL     1     -14.400  10.865  63.899  1.00  0.00     1.762 F  
HETATM   13  C   UNL     1     -10.869  11.621  63.574  1.00  0.00    -0.497 A  
HETATM   14  C   UNL     1     -13.025  12.259  65.210  1.00  0.00     0.856 A  
HETATM   15  C   UNL     1     -13.190  11.382  64.145  1.00  0.00     1.507 A  
HETATM   16  C   UNL     1     -12.123  11.055  63.325  1.00  0.00     1.193 A  
ENDROOT
BRANCH   8  17
HETATM   17  C   UNL     1      -7.638  11.413  66.004  1.00  0.00     0.187 C  
BRANCH  17  18
HETATM   18  C   UNL     1      -8.157   9.981  66.172  1.00  0.00    -0.122 C  
BRANCH  18  19
HETATM   19  N   UNL     1      -8.221   9.419  67.522  1.00  0.00    -0.117 NA 
HETATM   20  C   UNL     1      -9.864   7.433  67.864  1.00  0.00    -0.177 C  
HETATM   21  C   UNL     1      -9.526   8.937  68.000  1.00  0.00    -0.143 C  
HETATM   22  C   UNL     1      -8.668   6.460  67.964  1.00  0.00    -0.115 C  
HETATM   23  C   UNL     1      -7.537   7.066  67.134  1.00  0.00    -0.107 C  
HETATM   24  C   UNL     1      -7.162   8.423  67.717  1.00  0.00    -0.088 C  
BRANCH  22  25
HETATM   25  N   UNL     1      -8.226   6.068  69.310  1.00  0.00    -0.113 N  
HETATM   26  C   UNL     1      -7.081   5.316  69.669  1.00  0.00    -0.059 C  
HETATM   27  O   UNL     1      -6.198   4.868  68.959  1.00  0.00    -0.028 OA 
HETATM   28  N   UNL     1      -7.119   5.159  71.064  1.00  0.00    -0.057 NA 
HETATM   29  C   UNL     1      -8.253   5.771  71.564  1.00  0.00    -0.119 A  
HETATM   30  C   UNL     1      -8.695   5.829  72.872  1.00  0.00    -0.124 A  
HETATM   31  C   UNL     1      -9.907   6.472  73.101  1.00  0.00    -0.184 A  
HETATM   32  C   UNL     1     -10.634   7.041  72.038  1.00  0.00    -0.237 A  
HETATM   33  C   UNL     1     -10.147   6.995  70.723  1.00  0.00    -0.205 A  
HETATM   34  C   UNL     1      -8.952   6.337  70.501  1.00  0.00    -0.151 A  
ENDBRANCH  22  25
ENDBRANCH  18  19
ENDBRANCH  17  18
ENDBRANCH   8  17
TORSDOF 4
ENDMDL
MODEL      302
REMARK 921   NORMALIZED FREE ENERGY PREDICTED BY IDOCK:    4.72 KCAL/MOL
REMARK 922        TOTAL FREE ENERGY PREDICTED BY IDOCK:    5.03 KCAL/MOL
REMARK 923 INTER-LIGAND FREE ENERGY PREDICTED BY IDOCK:    4.52 KCAL/MOL
REMARK 924 INTRA-LIGAND FREE ENERGY PREDICTED BY IDOCK:    0.52 KCAL/MOL
REMARK 927      BINDING AFFINITY PREDICTED BY RF-SCORE:    0.00 PKD
ROOT
HETATM    1  F   UNL     1     -13.411  16.316  73.421  1.00  0.00    -0.595 F  
HETATM    2  C   UNL     1     -12.436  16.698  72.585  1.00  0.00     0.245 A  
HETATM    3  C   UNL     1     -11.688  17.831  72.869  1.00  0.00     1.942 A  
HETATM    4  C   UNL     1     -10.681  18.237  71.985  1.00  0.00     3.351 A  
HETATM    5  C   UNL     1     -10.411  17.510  70.807  1.00  0.00     2.056 A  
HETATM    6  C   UNL     1      -9.349  18.022  69.817  1.00  0.00     1.018 C  
HETATM    7  C   UNL     1     -11.190  16.367  70.555  1.00  0.00    -0.230 A  
HETATM    8  C   UNL     1      -8.109  17.090  69.645  1.00  0.00     0.736 C  
HETATM    9  C   UNL     1     -12.195  15.961  71.436  1.00  0.00    -0.501 A  
HETATM   10  C   UNL     1      -9.874  18.668  68.526  1.00  0.00    -0.427 A  
HETATM   11  C   UNL     1     -11.239  18.728  68.201  1.00  0.00     0.596 A  
HETATM   12  F   UNL     1     -11.191  20.725  65.169  1.00  0.00     0.189 F  
HETATM   13  C   UNL     1      -8.971  19.333  67.676  1.00  0.00    -0.346 A  
HETATM   14  C   UNL     1     -11.682  19.409  67.061  1.00  0.00     1.283 A  
HETATM   15  C   UNL     1     -10.761  20.050  66.242  1.00  0.00    -0.239 A  
HETATM   16  C   UNL     1      -9.408  20.017  66.537  1.00  0.00    -0.494 A  
ENDROOT
BRANCH   8  17
HETATM   17  C   UNL     1      -8.261  15.639  69.171  1.00  0.00    -0.248 C  
BRANCH  17  18
HETATM   18  C   UNL     1      -7.018  14.885  68.684  1.00  0.00    -0.108 C  
BRANCH  18  19
HETATM   19  N   UNL     1      -7.159  13.977  67.544  1.00  0.00    -0.182 NA 
HETATM   20  C   UNL     1      -7.421  11.453  68.110  1.00  0.00    -0.100 C  
HETATM   21  C   UNL     1      -6.545  12.645  67.653  1.00  0.00    -0.143 C  
HETATM   22  C   UNL     1      -8.911  11.517  67.711  1.00  0.00    -0.160 C  
HETATM   23  C   UNL     1      -9.376  12.950  67.972  1.00  0.00    -0.213 C  
HETATM   24  C   UNL     1      -8.558  13.905  67.111  1.00  0.00    -0.203 C  
BRANCH  22  25
HETATM   25  N   UNL     1      -9.272  11.050  66.364  1.00  0.00    -0.170 N  
HETATM   26  C   UNL     1      -8.585  10.118  65.548  1.00  0.00    -0.151 C  
HETATM   27  O   UNL     1      -7.579   9.475  65.791  1.00  0.00    -0.097 OA 
HETATM   28  N   UNL     1      -9.290  10.042  64.337  1.00  0.00    -0.275 NA 
HETATM   29  C   UNL     1     -10.369  10.906  64.378  1.00  0.00    -0.361 A  
HETATM   30  C   UNL     1     -11.302  11.166  63.392  1.00  0.00     0.199 A  
HETATM   31  C   UNL     1     -12.268  12.127  63.676  1.00  0.00    -0.663 A  
HETATM   32  C   UNL     1     -12.287  12.786  64.920  1.00  0.00    -0.551 A  
HETATM   33  C   UNL     1     -11.347  12.479  65.915  1.00  0.00    -0.380 A  
HETATM   34  C   UNL     1     -10.377  11.539  65.618  1.00  0.00    -0.261 A  
ENDBRANCH  22  25
ENDBRANCH  18  19
ENDBRANCH  17  18
ENDBRANCH   8  17
TORSDOF 4
ENDMDL
MODEL      303
REMARK 921   NORMALIZED FREE ENERGY PREDICTED BY IDOCK:    5.14 KCAL/MOL
REMARK 922        TOTAL FREE ENERGY PREDICTED BY IDOCK:    5.56 KCAL/MOL
REMARK 923 INTER-LIGAND FREE ENERGY PREDICTED BY IDOCK:   -1.81 KCAL/MOL
REMARK 924 INTRA-LIGAND FREE ENERGY PREDICTED BY IDOCK:    7.37 KCAL/MOL
REMARK 927      BINDING AFFINITY PREDICTED BY RF-SCORE:    0.00 PKD
ROOT
HETATM    1  F   UNL     1     -12.728   8.547  69.788  1.00  0.00     1.116 F  
HETATM    2  C   UNL     1     -11.456   8.945  69.653  1.00  0.00     0.272 A  
HETATM    3  C   UNL     1     -10.721   9.297  70.775  1.00  0.00    -0.350 A  
HETATM    4  C   UNL     1      -9.397   9.729  70.629  1.00  0.00    -0.029 A  
HETATM    5  C   UNL     1      -8.795   9.812  69.357  1.00  0.00    -0.188 A  
HETATM    6  C   UNL     1      -7.363  10.361  69.221  1.00  0.00    -0.106 C  
HETATM    7  C   UNL     1      -9.572   9.447  68.244  1.00  0.00    -0.156 A  
HETATM    8  C   UNL     1      -6.313   9.334  68.696  1.00  0.00    -0.049 C  
HETATM    9  C   UNL     1     -10.893   9.015  68.388  1.00  0.00    -0.062 A  
HETATM   10  C   UNL     1      -7.229  11.786  68.663  1.00  0.00    -0.112 A  
HETATM   11  C   UNL     1      -8.327  12.539  68.215  1.00  0.00    -0.167 A  
HETATM   12  F   UNL     1      -6.779  15.741  67.480  1.00  0.00    -0.144 F  
HETATM   13  C   UNL     1      -5.974  12.422  68.700  1.00  0.00    -0.059 A  
HETATM   14  C   UNL     1      -8.173  13.868  67.803  1.00  0.00    -0.173 A  
HETATM   15  C   UNL     1      -6.917  14.461  67.848  1.00  0.00    -0.163 A  
HETATM   16  C   UNL     1      -5.814  13.750  68.291  1.00  0.00    -0.109 A  
ENDROOT
BRANCH   8  17
HETATM   17  C   UNL     1      -6.481   8.644  67.336  1.00  0.00    -0.058 C  
BRANCH  17  18
HETATM   18  C   UNL     1      -6.077   7.173  67.196  1.00  0.00    -0.041 C  
BRANCH  18  19
HETATM   19  N   UNL     1      -6.120   6.324  68.388  1.00  0.00    -0.026 NA 
HETATM   20  C   UNL     1      -5.522   7.475  70.642  1.00  0.00    -0.023 C  
HETATM   21  C   UNL     1      -5.127   6.578  69.443  1.00  0.00    -0.013 C  
HETATM   22  C   UNL     1      -7.007   7.426  71.062  1.00  0.00    -0.059 C  
HETATM   23  C   UNL     1      -7.831   7.466  69.775  1.00  0.00    -0.116 C  
HETATM   24  C   UNL     1      -7.484   6.252  68.922  1.00  0.00    -0.087 C  
BRANCH  22  25
HETATM   25  N   UNL     1      -7.422   6.335  71.956  1.00  0.00    -0.093 N  
HETATM   26  C   UNL     1      -6.897   6.001  73.229  1.00  0.00    -0.076 C  
HETATM   27  O   UNL     1      -6.027   6.557  73.874  1.00  0.00    -0.061 OA 
HETATM   28  N   UNL     1      -7.583   4.855  73.662  1.00  0.00    -0.090 NA 
HETATM   29  C   UNL     1      -8.491   4.470  72.694  1.00  0.00    -0.114 A  
HETATM   30  C   UNL     1      -9.345   3.383  72.698  1.00  0.00    -0.150 A  
HETATM   31  C   UNL     1     -10.130   3.193  71.565  1.00  0.00    -0.025 A  
HETATM   32  C   UNL     1     -10.053   4.083  70.476  1.00  0.00     0.007 A  
HETATM   33  C   UNL     1      -9.200   5.197  70.512  1.00  0.00    -0.191 A  
HETATM   34  C   UNL     1      -8.409   5.367  71.632  1.00  0.00    -0.119 A  
ENDBRANCH  22  25
ENDBRANCH  18  19
ENDBRANCH  17  18
ENDBRANCH   8  17
TORSDOF 4
ENDMDL
MODEL      304
REMARK 921   NORMALIZED FREE ENERGY PREDICTED BY IDOCK:    7.77 KCAL/MOL
REMARK 922        TOTAL FREE ENERGY PREDICTED BY IDOCK:    8.81 KCAL/MOL
REMARK 923 INTER-LIGAND FREE ENERGY PREDICTED BY IDOCK:    8.45 KCAL/MOL
REMARK 924 INTRA-LIGAND FREE ENERGY PREDICTED BY IDOCK:    0.36 KCAL/MOL
REMARK 927      BINDING AFFINITY PREDICTED BY RF-SCORE:    0.00 PKD
ROOT
HETATM    1  F   UNL     1      -6.759   7.958  63.709  1.00  0.00    -0.060 F  
HETATM    2  C   UNL     1      -6.654   8.220  65.019  1.00  0.00    -0.059 A  
HETATM    3  C   UNL     1      -5.992   7.328  65.850  1.00  0.00    -0.037 A  
HETATM    4  C   UNL     1      -5.899   7.596  67.221  1.00  0.00    -0.036 A  
HETATM    5  C   UNL     1      -6.467   8.762  67.774  1.00  0.00    -0.061 A  
HETATM    6  C   UNL     1      -6.414   8.993  69.296  1.00  0.00    -0.045 C  
HETATM    7  C   UNL     1      -7.130   9.642  66.900  1.00  0.00    -0.086 A  
HETATM    8  C   UNL     1      -5.576  10.231  69.743  1.00  0.00    -0.039 C  
HETATM    9  C   UNL     1      -7.223   9.375  65.532  1.00  0.00    -0.088 A  
HETATM   10  C   UNL     1      -7.724   8.768  70.066  1.00  0.00    -0.082 A  
HETATM   11  C   UNL     1      -8.938   8.451  69.435  1.00  0.00    -0.153 A  
HETATM   12  F   UNL     1     -11.120   7.868  72.279  1.00  0.00    -0.273 F  
HETATM   13  C   UNL     1      -7.700   8.765  71.473  1.00  0.00    -0.139 A  
HETATM   14  C   UNL     1     -10.087   8.162  70.181  1.00  0.00    -0.194 A  
HETATM   15  C   UNL     1     -10.026   8.173  71.569  1.00  0.00    -0.182 A  
HETATM   16  C   UNL     1      -8.843   8.475  72.224  1.00  0.00    -0.279 A  
ENDROOT
BRANCH   8  17
HETATM   17  C   UNL     1      -5.918  11.644  69.255  1.00  0.00    -0.071 C  
BRANCH  17  18
HETATM   18  C   UNL     1      -5.664  12.833  70.189  1.00  0.00    -0.151 C  
BRANCH  18  19
HETATM   19  N   UNL     1      -6.539  14.001  70.081  1.00  0.00    -0.056 NA 
HETATM   20  C   UNL     1      -5.393  16.323  70.321  1.00  0.00    -0.180 C  
HETATM   21  C   UNL     1      -6.229  15.167  70.923  1.00  0.00     0.228 C  
HETATM   22  C   UNL     1      -5.570  16.568  68.807  1.00  0.00    -0.122 C  
HETATM   23  C   UNL     1      -5.568  15.195  68.135  1.00  0.00    -0.130 C  
HETATM   24  C   UNL     1      -6.732  14.374  68.676  1.00  0.00    -0.090 C  
BRANCH  22  25
HETATM   25  N   UNL     1      -6.709  17.395  68.384  1.00  0.00    -0.180 N  
HETATM   26  C   UNL     1      -6.938  17.986  67.118  1.00  0.00    -0.191 C  
HETATM   27  O   UNL     1      -6.274  17.910  66.099  1.00  0.00    -0.190 OA 
HETATM   28  N   UNL     1      -8.130  18.720  67.222  1.00  0.00    -0.242 NA 
HETATM   29  C   UNL     1      -8.625  18.614  68.508  1.00  0.00    -0.340 A  
HETATM   30  C   UNL     1      -9.754  19.201  69.048  1.00  0.00    -0.420 A  
HETATM   31  C   UNL     1     -10.001  18.967  70.398  1.00  0.00     1.392 A  
HETATM   32  C   UNL     1      -9.138  18.159  71.161  1.00  0.00     6.945 A  
HETATM   33  C   UNL     1      -8.016  17.549  70.578  1.00  0.00     3.944 A  
HETATM   34  C   UNL     1      -7.765  17.802  69.243  1.00  0.00     0.111 A  
ENDBRANCH  22  25
ENDBRANCH  18  19
ENDBRANCH  17  18
ENDBRANCH   8  17
TORSDOF 4
ENDMDL
MODEL      305
REMARK 921   NORMALIZED FREE ENERGY PREDICTED BY IDOCK:    7.89 KCAL/MOL
REMARK 922        TOTAL FREE ENERGY PREDICTED BY IDOCK:    8.95 KCAL/MOL
REMARK 923 INTER-LIGAND FREE ENERGY PREDICTED BY IDOCK:   -1.42 KCAL/MOL
REMARK 924 INTRA-LIGAND FREE ENERGY PREDICTED BY IDOCK:   10.36 KCAL/MOL
REMARK 927      BINDING AFFINITY PREDICTED BY RF-SCORE:    0.00 PKD
ROOT
HETATM    1  F   UNL     1      -6.137   8.852  66.079  1.00  0.00    -0.049 F  
HETATM    2  C   UNL     1      -7.333   9.447  66.177  1.00  0.00    -0.096 A  
HETATM    3  C   UNL     1      -8.241   9.347  65.134  1.00  0.00    -0.136 A  
HETATM    4  C   UNL     1      -9.484   9.984  65.233  1.00  0.00    -0.323 A  
HETATM    5  C   UNL     1      -9.831  10.727  66.380  1.00  0.00    -0.254 A  
HETATM    6  C   UNL     1     -11.174  11.478  66.429  1.00  0.00    -0.307 C  
HETATM    7  C   UNL     1      -8.885  10.805  67.416  1.00  0.00    -0.129 A  
HETATM    8  C   UNL     1     -12.171  10.969  67.516  1.00  0.00     1.263 C  
HETATM    9  C   UNL     1      -7.644  10.170  67.318  1.00  0.00    -0.095 A  
HETATM   10  C   UNL     1     -11.110  13.002  66.252  1.00  0.00    -0.314 A  
HETATM   11  C   UNL     1      -9.902  13.709  66.134  1.00  0.00    -0.304 A  
HETATM   12  F   UNL     1     -11.079  17.077  65.455  1.00  0.00    -0.223 F  
HETATM   13  C   UNL     1     -12.308  13.724  66.086  1.00  0.00    -0.496 A  
HETATM   14  C   UNL     1      -9.892  15.086  65.880  1.00  0.00    -0.369 A  
HETATM   15  C   UNL     1     -11.094  15.766  65.726  1.00  0.00    -0.124 A  
HETATM   16  C   UNL     1     -12.303  15.099  65.829  1.00  0.00     0.451 A  
ENDROOT
BRANCH   8  17
HETATM   17  C   UNL     1     -11.796  10.965  69.003  1.00  0.00    -0.370 C  
BRANCH  17  18
HETATM   18  C   UNL     1     -10.496  11.646  69.442  1.00  0.00     0.104 C  
BRANCH  18  19
HETATM   19  N   UNL     1     -10.027  12.805  68.681  1.00  0.00    -0.149 NA 
HETATM   20  C   UNL     1      -9.372  14.905  70.068  1.00  0.00     0.416 C  
HETATM   21  C   UNL     1     -10.386  14.141  69.181  1.00  0.00    -0.089 C  
HETATM   22  C   UNL     1      -7.881  14.633  69.777  1.00  0.00     0.191 C  
HETATM   23  C   UNL     1      -7.737  13.124  69.581  1.00  0.00     1.002 C  
HETATM   24  C   UNL     1      -8.593  12.691  68.396  1.00  0.00    -0.122 C  
BRANCH  22  25
HETATM   25  N   UNL     1      -7.252  15.399  68.691  1.00  0.00    -0.116 N  
HETATM   26  C   UNL     1      -6.832  14.933  67.421  1.00  0.00    -0.090 C  
HETATM   27  O   UNL     1      -6.933  13.819  66.936  1.00  0.00     0.161 OA 
HETATM   28  N   UNL     1      -6.246  16.024  66.761  1.00  0.00    -0.214 NA 
HETATM   29  C   UNL     1      -6.277  17.131  67.588  1.00  0.00    -0.144 A  
HETATM   30  C   UNL     1      -5.781  18.399  67.348  1.00  0.00    -0.145 A  
HETATM   31  C   UNL     1      -5.899  19.327  68.378  1.00  0.00    -0.227 A  
HETATM   32  C   UNL     1      -6.508  18.978  69.599  1.00  0.00    -0.259 A  
HETATM   33  C   UNL     1      -7.031  17.692  69.803  1.00  0.00     0.324 A  
HETATM   34  C   UNL     1      -6.891  16.769  68.784  1.00  0.00    -0.188 A  
ENDBRANCH  22  25
ENDBRANCH  18  19
ENDBRANCH  17  18
ENDBRANCH   8  17
TORSDOF 4
ENDMDL
MODEL      306
REMARK 921   NORMALIZED FREE ENERGY PREDICTED BY IDOCK:    8.09 KCAL/MOL
REMARK 922        TOTAL FREE ENERGY PREDICTED BY IDOCK:    9.20 KCAL/MOL
REMARK 923 INTER-LIGAND FREE ENERGY PREDICTED BY IDOCK:    8.32 KCAL/MOL
REMARK 924 INTRA-LIGAND FREE ENERGY PREDICTED BY IDOCK:    0.88 KCAL/MOL
REMARK 927      BINDING AFFINITY PREDICTED BY RF-SCORE:    0.00 PKD
ROOT
HETATM    1  F   UNL     1     -11.708   8.909  66.378  1.00  0.00     1.650 F  
HETATM    2  C   UNL     1     -11.190  10.086  66.005  1.00  0.00     1.070 A  
HETATM    3  C   UNL     1     -10.031  10.120  65.243  1.00  0.00    -0.381 A  
HETATM    4  C   UNL     1      -9.482  11.352  64.869  1.00  0.00    -0.194 A  
HETATM    5  C   UNL     1     -10.089  12.565  65.253  1.00  0.00    -0.275 A  
HETATM    6  C   UNL     1      -9.421  13.904  64.891  1.00  0.00     0.767 C  
HETATM    7  C   UNL     1     -11.261  12.491  66.025  1.00  0.00    -0.354 A  
HETATM    8  C   UNL     1     -10.242  14.804  63.916  1.00  0.00     2.767 C  
HETATM    9  C   UNL     1     -11.810  11.262  66.399  1.00  0.00     0.702 A  
HETATM   10  C   UNL     1      -8.712  14.645  66.036  1.00  0.00     0.483 A  
HETATM   11  C   UNL     1      -8.727  14.192  67.365  1.00  0.00    -0.217 A  
HETATM   12  F   UNL     1      -6.491  16.557  68.976  1.00  0.00    -0.143 F  
HETATM   13  C   UNL     1      -7.915  15.766  65.737  1.00  0.00     1.644 A  
HETATM   14  C   UNL     1      -7.989  14.846  68.360  1.00  0.00    -0.134 A  
HETATM   15  C   UNL     1      -7.217  15.952  68.028  1.00  0.00    -0.132 A  
HETATM   16  C   UNL     1      -7.174  16.421  66.725  1.00  0.00    -0.245 A  
ENDROOT
BRANCH   8  17
HETATM   17  C   UNL     1     -11.656  15.281  64.269  1.00  0.00    -0.204 C  
BRANCH  17  18
HETATM   18  C   UNL     1     -11.842  16.239  65.451  1.00  0.00     0.979 C  
BRANCH  18  19
HETATM   19  N   UNL     1     -10.675  16.974  65.941  1.00  0.00    -0.214 NA 
HETATM   20  C   UNL     1     -10.982  19.535  66.269  1.00  0.00    -0.297 C  
HETATM   21  C   UNL     1     -10.465  18.339  65.434  1.00  0.00     0.274 C  
HETATM   22  C   UNL     1     -10.983  19.339  67.801  1.00  0.00    -0.194 C  
HETATM   23  C   UNL     1     -11.523  17.934  68.066  1.00  0.00     0.893 C  
HETATM   24  C   UNL     1     -10.604  16.914  67.404  1.00  0.00    -0.294 C  
BRANCH  22  25
HETATM   25  N   UNL     1      -9.726  19.598  68.517  1.00  0.00    -0.391 N  
HETATM   26  C   UNL     1      -9.545  19.874  69.895  1.00  0.00     0.497 C  
HETATM   27  O   UNL     1     -10.372  19.918  70.788  1.00  0.00     0.820 OA 
HETATM   28  N   UNL     1      -8.173  20.102  70.086  1.00  0.00     0.930 NA 
HETATM   29  C   UNL     1      -7.516  19.993  68.875  1.00  0.00    -0.111 A  
HETATM   30  C   UNL     1      -6.171  20.170  68.606  1.00  0.00    -0.327 A  
HETATM   31  C   UNL     1      -5.773  20.050  67.278  1.00  0.00    -0.178 A  
HETATM   32  C   UNL     1      -6.708  19.749  66.268  1.00  0.00    -0.227 A  
HETATM   33  C   UNL     1      -8.061  19.542  66.575  1.00  0.00    -0.325 A  
HETATM   34  C   UNL     1      -8.453  19.684  67.893  1.00  0.00    -0.317 A  
ENDBRANCH  22  25
ENDBRANCH  18  19
ENDBRANCH  17  18
ENDBRANCH   8  17
TORSDOF 4
ENDMDL
MODEL      307
REMARK 921   NORMALIZED FREE ENERGY PREDICTED BY IDOCK:    9.47 KCAL/MOL
REMARK 922        TOTAL FREE ENERGY PREDICTED BY IDOCK:   10.89 KCAL/MOL
REMARK 923 INTER-LIGAND FREE ENERGY PREDICTED BY IDOCK:    9.41 KCAL/MOL
REMARK 924 INTRA-LIGAND FREE ENERGY PREDICTED BY IDOCK:    1.48 KCAL/MOL
REMARK 927      BINDING AFFINITY PREDICTED BY RF-SCORE:    0.00 PKD
ROOT
HETATM    1  F   UNL     1      -9.263   3.164  64.951  1.00  0.00    -0.125 F  
HETATM    2  C   UNL     1      -9.348   4.500  64.996  1.00  0.00    -0.156 A  
HETATM    3  C   UNL     1      -9.023   5.250  63.875  1.00  0.00     0.162 A  
HETATM    4  C   UNL     1      -9.096   6.647  63.930  1.00  0.00     1.390 A  
HETATM    5  C   UNL     1      -9.499   7.308  65.109  1.00  0.00     1.147 A  
HETATM    6  C   UNL     1      -9.498   8.847  65.163  1.00  0.00     0.098 C  
HETATM    7  C   UNL     1      -9.821   6.514  66.223  1.00  0.00    -0.032 A  
HETATM    8  C   UNL     1     -10.904   9.497  65.348  1.00  0.00     1.864 C  
HETATM    9  C   UNL     1      -9.748   5.120  66.169  1.00  0.00    -0.192 A  
HETATM   10  C   UNL     1      -8.358   9.501  65.956  1.00  0.00    -0.123 A  
HETATM   11  C   UNL     1      -7.402   8.763  66.673  1.00  0.00    -0.082 A  
HETATM   12  F   UNL     1      -5.138  11.372  67.793  1.00  0.00    -0.042 F  
HETATM   13  C   UNL     1      -8.182  10.896  65.880  1.00  0.00    -0.133 A  
HETATM   14  C   UNL     1      -6.324   9.395  67.304  1.00  0.00    -0.062 A  
HETATM   15  C   UNL     1      -6.185  10.774  67.211  1.00  0.00    -0.061 A  
HETATM   16  C   UNL     1      -7.106  11.532  66.507  1.00  0.00    -0.009 A  
ENDROOT
BRANCH   8  17
HETATM   17  C   UNL     1     -11.780   9.173  66.565  1.00  0.00     4.165 C  
BRANCH  17  18
HETATM   18  C   UNL     1     -11.770   7.747  67.127  1.00  0.00     2.558 C  
BRANCH  18  19
HETATM   19  N   UNL     1     -11.771   7.573  68.580  1.00  0.00     1.154 NA 
HETATM   20  C   UNL     1     -10.358   5.594  69.502  1.00  0.00    -0.345 C  
HETATM   21  C   UNL     1     -11.726   6.199  69.103  1.00  0.00     0.511 C  
HETATM   22  C   UNL     1      -9.309   6.591  70.039  1.00  0.00    -0.157 C  
HETATM   23  C   UNL     1      -9.364   7.820  69.131  1.00  0.00    -0.151 C  
HETATM   24  C   UNL     1     -10.758   8.431  69.204  1.00  0.00    -0.106 C  
BRANCH  22  25
HETATM   25  N   UNL     1      -9.379   6.946  71.464  1.00  0.00    -0.155 N  
HETATM   26  C   UNL     1     -10.504   6.896  72.323  1.00  0.00    -0.207 C  
HETATM   27  O   UNL     1     -11.637   6.515  72.089  1.00  0.00    -0.281 OA 
HETATM   28  N   UNL     1     -10.083   7.381  73.571  1.00  0.00    -0.327 NA 
HETATM   29  C   UNL     1      -8.751   7.742  73.498  1.00  0.00    -0.241 A  
HETATM   30  C   UNL     1      -7.952   8.292  74.483  1.00  0.00    -0.276 A  
HETATM   31  C   UNL     1      -6.644   8.611  74.130  1.00  0.00    -0.116 A  
HETATM   32  C   UNL     1      -6.169   8.368  72.828  1.00  0.00    -0.085 A  
HETATM   33  C   UNL     1      -6.992   7.778  71.856  1.00  0.00    -0.066 A  
HETATM   34  C   UNL     1      -8.296   7.484  72.208  1.00  0.00    -0.103 A  
ENDBRANCH  22  25
ENDBRANCH  18  19
ENDBRANCH  17  18
ENDBRANCH   8  17
TORSDOF 4
ENDMDL
MODEL      308
REMARK 921   NORMALIZED FREE ENERGY PREDICTED BY IDOCK:   11.43 KCAL/MOL
REMARK 922        TOTAL FREE ENERGY PREDICTED BY IDOCK:   13.32 KCAL/MOL
REMARK 923 INTER-LIGAND FREE ENERGY PREDICTED BY IDOCK:   11.06 KCAL/MOL
REMARK 924 INTRA-LIGAND FREE ENERGY PREDICTED BY IDOCK:    2.26 KCAL/MOL
REMARK 927      BINDING AFFINITY PREDICTED BY RF-SCORE:    0.00 PKD
ROOT
HETATM    1  F   UNL     1     -13.501  16.372  65.333  1.00  0.00     3.357 F  
HETATM    2  C   UNL     1     -12.804  15.766  66.302  1.00  0.00     2.811 A  
HETATM    3  C   UNL     1     -13.017  16.115  67.628  1.00  0.00     3.597 A  
HETATM    4  C   UNL     1     -12.274  15.492  68.638  1.00  0.00     0.043 A  
HETATM    5  C   UNL     1     -11.310  14.510  68.330  1.00  0.00    -0.311 A  
HETATM    6  C   UNL     1     -10.456  13.896  69.455  1.00  0.00     0.092 C  
HETATM    7  C   UNL     1     -11.122  14.183  66.976  1.00  0.00    -0.314 A  
HETATM    8  C   UNL     1     -10.677  12.369  69.687  1.00  0.00     0.384 C  
HETATM    9  C   UNL     1     -11.864  14.804  65.968  1.00  0.00    -0.201 A  
HETATM   10  C   UNL     1      -8.998  14.374  69.543  1.00  0.00     0.440 A  
HETATM   11  C   UNL     1      -8.425  15.257  68.614  1.00  0.00    -0.168 A  
HETATM   12  F   UNL     1      -5.151  15.843  70.072  1.00  0.00    -0.108 F  
HETATM   13  C   UNL     1      -8.224  14.009  70.660  1.00  0.00     3.285 A  
HETATM   14  C   UNL     1      -7.122  15.742  68.785  1.00  0.00    -0.131 A  
HETATM   15  C   UNL     1      -6.386  15.356  69.898  1.00  0.00    -0.158 A  
HETATM   16  C   UNL     1      -6.923  14.491  70.838  1.00  0.00     0.791 A  
ENDROOT
BRANCH   8  17
HETATM   17  C   UNL     1     -10.443  11.349  68.566  1.00  0.00    -0.223 C  
BRANCH  17  18
HETATM   18  C   UNL     1     -11.053   9.949  68.698  1.00  0.00    -0.134 C  
BRANCH  18  19
HETATM   19  N   UNL     1     -10.208   8.867  69.205  1.00  0.00    -0.204 NA 
HETATM   20  C   UNL     1     -11.265   7.336  71.022  1.00  0.00    -0.291 C  
HETATM   21  C   UNL     1     -10.335   8.509  70.626  1.00  0.00    -0.199 C  
HETATM   22  C   UNL     1     -11.391   6.196  69.989  1.00  0.00    -0.373 C  
HETATM   23  C   UNL     1     -11.538   6.856  68.619  1.00  0.00     0.351 C  
HETATM   24  C   UNL     1     -10.296   7.691  68.332  1.00  0.00    -0.194 C  
BRANCH  22  25
HETATM   25  N   UNL     1     -10.352   5.155  70.000  1.00  0.00    -0.289 N  
HETATM   26  C   UNL     1     -10.048   4.233  71.031  1.00  0.00    -0.095 C  
HETATM   27  O   UNL     1     -10.597   4.070  72.106  1.00  0.00    -0.073 OA 
HETATM   28  N   UNL     1      -8.947   3.482  70.592  1.00  0.00    -0.085 NA 
HETATM   29  C   UNL     1      -8.557   3.925  69.342  1.00  0.00    -0.074 A  
HETATM   30  C   UNL     1      -7.503   3.486  68.562  1.00  0.00    -0.053 A  
HETATM   31  C   UNL     1      -7.298   4.142  67.352  1.00  0.00    -0.069 A  
HETATM   32  C   UNL     1      -8.142   5.196  66.950  1.00  0.00    -0.108 A  
HETATM   33  C   UNL     1      -9.224   5.599  67.747  1.00  0.00    -0.106 A  
HETATM   34  C   UNL     1      -9.409   4.957  68.957  1.00  0.00    -0.129 A  
ENDBRANCH  22  25
ENDBRANCH  18  19
ENDBRANCH  17  18
ENDBRANCH   8  17
TORSDOF 4
ENDMDL
MODEL      309
REMARK 921   NORMALIZED FREE ENERGY PREDICTED BY IDOCK:   11.89 KCAL/MOL
REMARK 922        TOTAL FREE ENERGY PREDICTED BY IDOCK:   13.88 KCAL/MOL
REMARK 923 INTER-LIGAND FREE ENERGY PREDICTED BY IDOCK:   12.91 KCAL/MOL
REMARK 924 INTRA-LIGAND FREE ENERGY PREDICTED BY IDOCK:    0.96 KCAL/MOL
REMARK 927      BINDING AFFINITY PREDICTED BY RF-SCORE:    0.00 PKD
ROOT
HETATM    1  F   UNL     1      -9.679  17.635  71.694  1.00  0.00     4.623 F  
HETATM    2  C   UNL     1      -9.514  16.845  70.624  1.00  0.00     3.192 A  
HETATM    3  C   UNL     1      -8.438  17.052  69.774  1.00  0.00     1.115 A  
HETATM    4  C   UNL     1      -8.277  16.237  68.647  1.00  0.00    -0.214 A  
HETATM    5  C   UNL     1      -9.193  15.203  68.361  1.00  0.00    -0.189 A  
HETATM    6  C   UNL     1      -9.032  14.371  67.076  1.00  0.00    -0.257 C  
HETATM    7  C   UNL     1     -10.270  15.024  69.247  1.00  0.00    -0.244 A  
HETATM    8  C   UNL     1      -8.724  12.859  67.307  1.00  0.00    -0.204 C  
HETATM    9  C   UNL     1     -10.431  15.838  70.371  1.00  0.00    -0.169 A  
HETATM   10  C   UNL     1     -10.017  14.679  65.937  1.00  0.00    -0.352 A  
HETATM   11  C   UNL     1     -11.067  15.603  66.062  1.00  0.00    -0.136 A  
HETATM   12  F   UNL     1     -12.408  15.660  62.687  1.00  0.00     2.458 F  
HETATM   13  C   UNL     1      -9.802  14.102  64.671  1.00  0.00     0.367 A  
HETATM   14  C   UNL     1     -11.883  15.923  64.969  1.00  0.00     0.305 A  
HETATM   15  C   UNL     1     -11.644  15.330  63.736  1.00  0.00     0.661 A  
HETATM   16  C   UNL     1     -10.612  14.420  63.576  1.00  0.00     2.989 A  
ENDROOT
BRANCH   8  17
HETATM   17  C   UNL     1      -9.679  11.963  68.105  1.00  0.00    -0.194 C  
BRANCH  17  18
HETATM   18  C   UNL     1      -9.113  11.103  69.241  1.00  0.00     0.178 C  
BRANCH  18  19
HETATM   19  N   UNL     1      -9.917   9.983  69.732  1.00  0.00    -0.237 NA 
HETATM   20  C   UNL     1     -10.060   7.901  68.181  1.00  0.00    -0.228 C  
HETATM   21  C   UNL     1     -10.678   9.204  68.744  1.00  0.00    -0.131 C  
HETATM   22  C   UNL     1      -9.138   7.120  69.142  1.00  0.00    -0.137 C  
HETATM   23  C   UNL     1      -8.246   8.152  69.833  1.00  0.00    -0.118 C  
HETATM   24  C   UNL     1      -9.121   9.124  70.615  1.00  0.00    -0.257 C  
BRANCH  22  25
HETATM   25  N   UNL     1      -9.777   6.205  70.099  1.00  0.00    -0.161 N  
HETATM   26  C   UNL     1     -10.460   6.529  71.296  1.00  0.00    -0.215 C  
HETATM   27  O   UNL     1     -10.702   7.623  71.774  1.00  0.00    -0.212 OA 
HETATM   28  N   UNL     1     -10.843   5.314  71.886  1.00  0.00    -0.191 NA 
HETATM   29  C   UNL     1     -10.403   4.264  71.103  1.00  0.00     0.101 A  
HETATM   30  C   UNL     1     -10.537   2.907  71.327  1.00  0.00     1.141 A  
HETATM   31  C   UNL     1      -9.953   2.053  70.396  1.00  0.00     0.252 A  
HETATM   32  C   UNL     1      -9.271   2.564  69.276  1.00  0.00    -0.196 A  
HETATM   33  C   UNL     1      -9.178   3.947  69.056  1.00  0.00    -0.217 A  
HETATM   34  C   UNL     1      -9.742   4.789  69.995  1.00  0.00    -0.210 A  
ENDBRANCH  22  25
ENDBRANCH  18  19
ENDBRANCH  17  18
ENDBRANCH   8  17
TORSDOF 4
ENDMDL
MODEL      310
REMARK 921   NORMALIZED FREE ENERGY PREDICTED BY IDOCK:   13.94 KCAL/MOL
REMARK 922        TOTAL FREE ENERGY PREDICTED BY IDOCK:   16.42 KCAL/MOL
REMARK 923 INTER-LIGAND FREE ENERGY PREDICTED BY IDOCK:   11.94 KCAL/MOL
REMARK 924 INTRA-LIGAND FREE ENERGY PREDICTED BY IDOCK:    4.47 KCAL/MOL
REMARK 927      BINDING AFFINITY PREDICTED BY RF-SCORE:    0.00 PKD
ROOT
HETATM    1  F   UNL     1     -11.691  14.474  63.243  1.00  0.00     0.297 F  
HETATM    2  C   UNL     1     -11.812  13.910  64.452  1.00  0.00    -0.429 A  
HETATM    3  C   UNL     1     -12.942  13.165  64.756  1.00  0.00    -0.176 A  
HETATM    4  C   UNL     1     -13.074  12.591  66.026  1.00  0.00     2.024 A  
HETATM    5  C   UNL     1     -12.074  12.757  67.006  1.00  0.00    -0.252 A  
HETATM    6  C   UNL     1     -12.282  12.178  68.418  1.00  0.00     0.141 C  
HETATM    7  C   UNL     1     -10.945  13.519  66.662  1.00  0.00    -0.293 A  
HETATM    8  C   UNL     1     -11.275  11.056  68.821  1.00  0.00    -0.327 C  
HETATM    9  C   UNL     1     -10.812  14.091  65.394  1.00  0.00    -0.331 A  
HETATM   10  C   UNL     1     -12.626  13.186  69.525  1.00  0.00     0.272 A  
HETATM   11  C   UNL     1     -12.674  14.573  69.310  1.00  0.00     0.292 A  
HETATM   12  F   UNL     1     -13.883  15.779  72.514  1.00  0.00    -0.540 F  
HETATM   13  C   UNL     1     -13.023  12.708  70.788  1.00  0.00     0.019 A  
HETATM   14  C   UNL     1     -13.084  15.449  70.322  1.00  0.00    -0.111 A  
HETATM   15  C   UNL     1     -13.464  14.940  71.558  1.00  0.00    -0.410 A  
HETATM   16  C   UNL     1     -13.436  13.577  71.802  1.00  0.00    -0.461 A  
ENDROOT
BRANCH   8  17
HETATM   17  C   UNL     1      -9.762  11.309  68.839  1.00  0.00    -0.141 C  
BRANCH  17  18
HETATM   18  C   UNL     1      -9.218  12.491  69.649  1.00  0.00     2.008 C  
BRANCH  18  19
HETATM   19  N   UNL     1      -9.996  13.730  69.679  1.00  0.00     0.645 NA 
HETATM   20  C   UNL     1      -8.963  15.705  71.018  1.00  0.00     2.924 C  
HETATM   21  C   UNL     1      -9.963  14.528  70.914  1.00  0.00     2.066 C  
HETATM   22  C   UNL     1      -8.635  16.431  69.696  1.00  0.00     0.405 C  
HETATM   23  C   UNL     1      -8.431  15.348  68.636  1.00  0.00    -0.170 C  
HETATM   24  C   UNL     1      -9.717  14.544  68.491  1.00  0.00    -0.224 C  
BRANCH  22  25
HETATM   25  N   UNL     1      -9.565  17.480  69.250  1.00  0.00    -0.027 N  
HETATM   26  C   UNL     1     -10.408  18.295  70.043  1.00  0.00     1.165 C  
HETATM   27  O   UNL     1     -10.522  18.338  71.256  1.00  0.00     2.096 OA 
HETATM   28  N   UNL     1     -11.141  19.102  69.159  1.00  0.00     1.620 NA 
HETATM   29  C   UNL     1     -10.788  18.796  67.859  1.00  0.00    -0.201 A  
HETATM   30  C   UNL     1     -11.286  19.328  66.683  1.00  0.00     0.108 A  
HETATM   31  C   UNL     1     -10.789  18.803  65.494  1.00  0.00     0.068 A  
HETATM   32  C   UNL     1      -9.817  17.785  65.504  1.00  0.00     0.467 A  
HETATM   33  C   UNL     1      -9.306  17.286  66.712  1.00  0.00    -0.272 A  
HETATM   34  C   UNL     1      -9.819  17.797  67.890  1.00  0.00    -0.306 A  
ENDBRANCH  22  25
ENDBRANCH  18  19
ENDBRANCH  17  18
ENDBRANCH   8  17
TORSDOF 4
ENDMDL
MODEL      311
REMARK 921   NORMALIZED FREE ENERGY PREDICTED BY IDOCK:   15.33 KCAL/MOL
REMARK 922        TOTAL FREE ENERGY PREDICTED BY IDOCK:   18.13 KCAL/MOL
REMARK 923 INTER-LIGAND FREE ENERGY PREDICTED BY IDOCK:   17.24 KCAL/MOL
REMARK 924 INTRA-LIGAND FREE ENERGY PREDICTED BY IDOCK:    0.89 KCAL/MOL
REMARK 927      BINDING AFFINITY PREDICTED BY RF-SCORE:    0.00 PKD
ROOT
HETATM    1  F   UNL     1      -6.846  11.712  63.428  1.00  0.00     1.137 F  
HETATM    2  C   UNL     1      -7.713  12.123  64.362  1.00  0.00     4.006 A  
HETATM    3  C   UNL     1      -8.428  13.297  64.173  1.00  0.00     6.248 A  
HETATM    4  C   UNL     1      -9.321  13.732  65.159  1.00  0.00     0.720 A  
HETATM    5  C   UNL     1      -9.509  12.995  66.346  1.00  0.00    -0.228 A  
HETATM    6  C   UNL     1     -10.441  13.537  67.445  1.00  0.00    -0.247 C  
HETATM    7  C   UNL     1      -8.767  11.811  66.502  1.00  0.00    -0.173 A  
HETATM    8  C   UNL     1     -11.703  12.663  67.726  1.00  0.00    -0.412 C  
HETATM    9  C   UNL     1      -7.876  11.376  65.518  1.00  0.00     0.477 A  
HETATM   10  C   UNL     1      -9.759  14.130  68.687  1.00  0.00    -0.196 A  
HETATM   11  C   UNL     1      -8.367  14.118  68.875  1.00  0.00    -0.003 A  
HETATM   12  F   UNL     1      -8.016  16.052  71.928  1.00  0.00     5.151 F  
HETATM   13  C   UNL     1     -10.539  14.821  69.634  1.00  0.00    -0.167 A  
HETATM   14  C   UNL     1      -7.780  14.754  69.976  1.00  0.00     0.303 A  
HETATM   15  C   UNL     1      -8.583  15.422  70.892  1.00  0.00     2.557 A  
HETATM   16  C   UNL     1      -9.959  15.460  70.734  1.00  0.00     0.701 A  
ENDROOT
BRANCH   8  17
HETATM   17  C   UNL     1     -11.578  11.197  68.160  1.00  0.00    -0.350 C  
BRANCH  17  18
HETATM   18  C   UNL     1     -11.757  10.844  69.640  1.00  0.00    -0.331 C  
BRANCH  18  19
HETATM   19  N   UNL     1     -10.712  10.059  70.299  1.00  0.00    -0.294 NA 
HETATM   20  C   UNL     1     -10.457   7.594  69.512  1.00  0.00    -0.227 C  
HETATM   21  C   UNL     1     -10.977   8.632  70.536  1.00  0.00    -0.238 C  
HETATM   22  C   UNL     1      -9.145   7.960  68.786  1.00  0.00    -0.140 C  
HETATM   23  C   UNL     1      -9.256   9.433  68.390  1.00  0.00    -0.127 C  
HETATM   24  C   UNL     1      -9.415  10.276  69.649  1.00  0.00    -0.151 C  
BRANCH  22  25
HETATM   25  N   UNL     1      -7.882   7.662  69.477  1.00  0.00    -0.113 N  
HETATM   26  C   UNL     1      -6.624   7.351  68.906  1.00  0.00    -0.048 C  
HETATM   27  O   UNL     1      -6.301   7.302  67.732  1.00  0.00    -0.044 OA 
HETATM   28  N   UNL     1      -5.747   7.094  69.971  1.00  0.00    -0.023 NA 
HETATM   29  C   UNL     1      -6.427   7.219  71.167  1.00  0.00    -0.043 A  
HETATM   30  C   UNL     1      -5.955   7.023  72.451  1.00  0.00    -0.041 A  
HETATM   31  C   UNL     1      -6.871   7.167  73.489  1.00  0.00    -0.069 A  
HETATM   32  C   UNL     1      -8.212   7.507  73.227  1.00  0.00    -0.163 A  
HETATM   33  C   UNL     1      -8.656   7.732  71.915  1.00  0.00    -0.143 A  
HETATM   34  C   UNL     1      -7.746   7.567  70.888  1.00  0.00    -0.090 A  
ENDBRANCH  22  25
ENDBRANCH  18  19
ENDBRANCH  17  18
ENDBRANCH   8  17
TORSDOF 4
ENDMDL
MODEL      312
REMARK 921   NORMALIZED FREE ENERGY PREDICTED BY IDOCK:   17.17 KCAL/MOL
REMARK 922        TOTAL FREE ENERGY PREDICTED BY IDOCK:   20.40 KCAL/MOL
REMARK 923 INTER-LIGAND FREE ENERGY PREDICTED BY IDOCK:   15.59 KCAL/MOL
REMARK 924 INTRA-LIGAND FREE ENERGY PREDICTED BY IDOCK:    4.81 KCAL/MOL
REMARK 927      BINDING AFFINITY PREDICTED BY RF-SCORE:    0.00 PKD
ROOT
HETATM    1  F   UNL     1      -8.890   3.284  64.500  1.00  0.00    -0.101 F  
HETATM    2  C   UNL     1      -9.052   4.614  64.490  1.00  0.00    -0.132 A  
HETATM    3  C   UNL     1      -8.784   5.333  63.335  1.00  0.00     0.013 A  
HETATM    4  C   UNL     1      -8.938   6.725  63.333  1.00  0.00     1.178 A  
HETATM    5  C   UNL     1      -9.364   7.411  64.489  1.00  0.00     1.792 A  
HETATM    6  C   UNL     1      -9.452   8.948  64.479  1.00  0.00     0.652 C  
HETATM    7  C   UNL     1      -9.626   6.648  65.639  1.00  0.00     0.447 A  
HETATM    8  C   UNL     1     -10.892   9.524  64.657  1.00  0.00     3.681 C  
HETATM    9  C   UNL     1      -9.473   5.259  65.642  1.00  0.00    -0.097 A  
HETATM   10  C   UNL     1      -8.342   9.700  65.228  1.00  0.00    -0.139 A  
HETATM   11  C   UNL     1      -7.336   9.049  65.961  1.00  0.00    -0.094 A  
HETATM   12  F   UNL     1      -5.215  11.829  66.938  1.00  0.00    -0.080 F  
HETATM   13  C   UNL     1      -8.249  11.098  65.092  1.00  0.00     0.259 A  
HETATM   14  C   UNL     1      -6.289   9.768  66.550  1.00  0.00    -0.069 A  
HETATM   15  C   UNL     1      -6.233  11.148  66.398  1.00  0.00    -0.127 A  
HETATM   16  C   UNL     1      -7.204  11.822  65.676  1.00  0.00     1.269 A  
ENDROOT
BRANCH   8  17
HETATM   17  C   UNL     1     -11.732   9.201  65.899  1.00  0.00     5.914 C  
BRANCH  17  18
HETATM   18  C   UNL     1     -11.642   7.799  66.511  1.00  0.00     3.382 C  
BRANCH  18  19
HETATM   19  N   UNL     1     -11.347   7.683  67.940  1.00  0.00     0.492 NA 
HETATM   20  C   UNL     1      -9.818   5.700  68.641  1.00  0.00    -0.190 C  
HETATM   21  C   UNL     1     -11.226   6.330  68.504  1.00  0.00    -0.209 C  
HETATM   22  C   UNL     1      -8.660   6.685  68.906  1.00  0.00    -0.126 C  
HETATM   23  C   UNL     1      -8.874   7.878  67.974  1.00  0.00    -0.124 C  
HETATM   24  C   UNL     1     -10.210   8.534  68.304  1.00  0.00    -0.205 C  
BRANCH  22  25
HETATM   25  N   UNL     1      -8.427   7.098  70.297  1.00  0.00    -0.136 N  
HETATM   26  C   UNL     1      -7.303   7.773  70.833  1.00  0.00    -0.065 C  
HETATM   27  O   UNL     1      -6.311   8.192  70.262  1.00  0.00    -0.035 OA 
HETATM   28  N   UNL     1      -7.523   7.896  72.213  1.00  0.00    -0.083 NA 
HETATM   29  C   UNL     1      -8.728   7.306  72.541  1.00  0.00    -0.122 A  
HETATM   30  C   UNL     1      -9.313   7.174  73.787  1.00  0.00    -0.272 A  
HETATM   31  C   UNL     1     -10.521   6.486  73.847  1.00  0.00    -0.329 A  
HETATM   32  C   UNL     1     -11.113   5.963  72.681  1.00  0.00    -0.322 A  
HETATM   33  C   UNL     1     -10.513   6.140  71.425  1.00  0.00    -0.273 A  
HETATM   34  C   UNL     1      -9.303   6.806  71.376  1.00  0.00    -0.157 A  
ENDBRANCH  22  25
ENDBRANCH  18  19
ENDBRANCH  17  18
ENDBRANCH   8  17
TORSDOF 4
ENDMDL
MODEL      313
REMARK 921   NORMALIZED FREE ENERGY PREDICTED BY IDOCK:   18.52 KCAL/MOL
REMARK 922        TOTAL FREE ENERGY PREDICTED BY IDOCK:   22.07 KCAL/MOL
REMARK 923 INTER-LIGAND FREE ENERGY PREDICTED BY IDOCK:   19.50 KCAL/MOL
REMARK 924 INTRA-LIGAND FREE ENERGY PREDICTED BY IDOCK:    2.57 KCAL/MOL
REMARK 927      BINDING AFFINITY PREDICTED BY RF-SCORE:    0.00 PKD
ROOT
HETATM    1  F   UNL     1     -13.198  14.261  73.768  1.00  0.00    -0.238 F  
HETATM    2  C   UNL     1     -13.274  13.040  73.223  1.00  0.00     2.306 A  
HETATM    3  C   UNL     1     -14.279  12.169  73.620  1.00  0.00     6.638 A  
HETATM    4  C   UNL     1     -14.346  10.887  73.062  1.00  0.00     2.478 A  
HETATM    5  C   UNL     1     -13.409  10.464  72.097  1.00  0.00    -0.374 A  
HETATM    6  C   UNL     1     -13.463   9.024  71.557  1.00  0.00    -0.397 C  
HETATM    7  C   UNL     1     -12.406  11.374  71.721  1.00  0.00     0.089 A  
HETATM    8  C   UNL     1     -13.785   8.906  70.035  1.00  0.00     2.339 C  
HETATM    9  C   UNL     1     -12.338  12.654  72.278  1.00  0.00     0.934 A  
HETATM   10  C   UNL     1     -12.391   8.057  72.081  1.00  0.00    -0.358 A  
HETATM   11  C   UNL     1     -11.356   8.456  72.943  1.00  0.00    -0.058 A  
HETATM   12  F   UNL     1      -9.748   5.286  73.687  1.00  0.00    -0.137 F  
HETATM   13  C   UNL     1     -12.502   6.685  71.787  1.00  0.00    -0.360 A  
HETATM   14  C   UNL     1     -10.456   7.523  73.473  1.00  0.00    -0.362 A  
HETATM   15  C   UNL     1     -10.593   6.178  73.156  1.00  0.00    -0.248 A  
HETATM   16  C   UNL     1     -11.607   5.749  72.315  1.00  0.00    -0.300 A  
ENDROOT
BRANCH   8  17
HETATM   17  C   UNL     1     -12.896   9.571  68.976  1.00  0.00     3.660 C  
BRANCH  17  18
HETATM   18  C   UNL     1     -12.154  10.863  69.337  1.00  0.00    -0.290 C  
BRANCH  18  19
HETATM   19  N   UNL     1     -10.886  11.147  68.664  1.00  0.00    -0.194 NA 
HETATM   20  C   UNL     1      -9.878   9.215  67.246  1.00  0.00    -0.244 C  
HETATM   21  C   UNL     1      -9.913  10.050  68.549  1.00  0.00    -0.162 C  
HETATM   22  C   UNL     1     -10.257   9.966  65.951  1.00  0.00    -0.194 C  
HETATM   23  C   UNL     1     -11.483  10.819  66.278  1.00  0.00     0.591 C  
HETATM   24  C   UNL     1     -11.122  11.811  67.377  1.00  0.00    -0.282 C  
BRANCH  22  25
HETATM   25  N   UNL     1      -9.200  10.741  65.284  1.00  0.00    -0.196 N  
HETATM   26  C   UNL     1      -9.308  12.005  64.654  1.00  0.00     0.256 C  
HETATM   27  O   UNL     1     -10.275  12.739  64.559  1.00  0.00    -0.334 OA 
HETATM   28  N   UNL     1      -8.043  12.302  64.122  1.00  0.00     3.040 NA 
HETATM   29  C   UNL     1      -7.176  11.260  64.389  1.00  0.00     1.399 A  
HETATM   30  C   UNL     1      -5.850  11.127  64.021  1.00  0.00     0.842 A  
HETATM   31  C   UNL     1      -5.212   9.943  64.378  1.00  0.00    -0.073 A  
HETATM   32  C   UNL     1      -5.897   8.940  65.092  1.00  0.00    -0.055 A  
HETATM   33  C   UNL     1      -7.234   9.116  65.480  1.00  0.00    -0.082 A  
HETATM   34  C   UNL     1      -7.867  10.285  65.104  1.00  0.00    -0.138 A  
ENDBRANCH  22  25
ENDBRANCH  18  19
ENDBRANCH  17  18
ENDBRANCH   8  17
TORSDOF 4
ENDMDL
MODEL      314
REMARK 921   NORMALIZED FREE ENERGY PREDICTED BY IDOCK:   19.71 KCAL/MOL
REMARK 922        TOTAL FREE ENERGY PREDICTED BY IDOCK:   23.53 KCAL/MOL
REMARK 923 INTER-LIGAND FREE ENERGY PREDICTED BY IDOCK:   20.03 KCAL/MOL
REMARK 924 INTRA-LIGAND FREE ENERGY PREDICTED BY IDOCK:    3.50 KCAL/MOL
REMARK 927      BINDING AFFINITY PREDICTED BY RF-SCORE:    0.00 PKD
ROOT
HETATM    1  F   UNL     1     -13.520  10.472  71.898  1.00  0.00    -0.464 F  
HETATM    2  C   UNL     1     -12.202  10.397  71.670  1.00  0.00    -0.245 A  
HETATM    3  C   UNL     1     -11.307  10.689  72.689  1.00  0.00     5.408 A  
HETATM    4  C   UNL     1      -9.931  10.627  72.442  1.00  0.00     9.334 A  
HETATM    5  C   UNL     1      -9.435  10.268  71.172  1.00  0.00     2.162 A  
HETATM    6  C   UNL     1      -7.917  10.280  70.910  1.00  0.00     1.475 C  
HETATM    7  C   UNL     1     -10.372   9.978  70.165  1.00  0.00    -0.321 A  
HETATM    8  C   UNL     1      -7.296   8.885  70.590  1.00  0.00    -0.080 C  
HETATM    9  C   UNL     1     -11.746  10.041  70.410  1.00  0.00    -0.365 A  
HETATM   10  C   UNL     1      -7.379  11.451  70.075  1.00  0.00     0.717 A  
HETATM   11  C   UNL     1      -8.209  12.426  69.498  1.00  0.00     1.254 A  
HETATM   12  F   UNL     1      -5.780  14.743  68.114  1.00  0.00    -0.094 F  
HETATM   13  C   UNL     1      -5.987  11.633  69.967  1.00  0.00    -0.152 A  
HETATM   14  C   UNL     1      -7.670  13.529  68.824  1.00  0.00    -0.044 A  
HETATM   15  C   UNL     1      -6.291  13.673  68.734  1.00  0.00    -0.093 A  
HETATM   16  C   UNL     1      -5.443  12.734  69.298  1.00  0.00    -0.073 A  
ENDROOT
BRANCH   8  17
HETATM   17  C   UNL     1      -7.781   8.049  69.399  1.00  0.00    -0.104 C  
BRANCH  17  18
HETATM   18  C   UNL     1      -9.242   7.588  69.363  1.00  0.00    -0.149 C  
BRANCH  18  19
HETATM   19  N   UNL     1      -9.549   6.300  68.739  1.00  0.00    -0.121 NA 
HETATM   20  C   UNL     1     -11.654   6.235  67.212  1.00  0.00     0.619 C  
HETATM   21  C   UNL     1     -10.966   5.945  68.569  1.00  0.00    -0.197 C  
HETATM   22  C   UNL     1     -10.748   6.154  65.965  1.00  0.00     0.610 C  
HETATM   23  C   UNL     1      -9.439   6.859  66.323  1.00  0.00    -0.122 C  
HETATM   24  C   UNL     1      -8.788   6.135  67.496  1.00  0.00    -0.106 C  
BRANCH  22  25
HETATM   25  N   UNL     1     -10.523   4.826  65.376  1.00  0.00    -0.125 N  
HETATM   26  C   UNL     1     -11.150   4.255  64.242  1.00  0.00     0.230 C  
HETATM   27  O   UNL     1     -11.974   4.743  63.488  1.00  0.00     1.541 OA 
HETATM   28  N   UNL     1     -10.642   2.954  64.109  1.00  0.00    -0.031 NA 
HETATM   29  C   UNL     1      -9.743   2.705  65.129  1.00  0.00     0.133 A  
HETATM   30  C   UNL     1      -9.038   1.546  65.393  1.00  0.00    -0.096 A  
HETATM   31  C   UNL     1      -8.228   1.543  66.524  1.00  0.00    -0.079 A  
HETATM   32  C   UNL     1      -8.134   2.682  67.347  1.00  0.00    -0.074 A  
HETATM   33  C   UNL     1      -8.836   3.857  67.037  1.00  0.00    -0.135 A  
HETATM   34  C   UNL     1      -9.655   3.845  65.924  1.00  0.00    -0.181 A  
ENDBRANCH  22  25
ENDBRANCH  18  19
ENDBRANCH  17  18
ENDBRANCH   8  17
TORSDOF 4
ENDMDL
MODEL      315
REMARK 921   NORMALIZED FREE ENERGY PREDICTED BY IDOCK:   20.93 KCAL/MOL
REMARK 922        TOTAL FREE ENERGY PREDICTED BY IDOCK:   25.03 KCAL/MOL
REMARK 923 INTER-LIGAND FREE ENERGY PREDICTED BY IDOCK:   25.19 KCAL/MOL
REMARK 924 INTRA-LIGAND FREE ENERGY PREDICTED BY IDOCK:   -0.16 KCAL/MOL
REMARK 927      BINDING AFFINITY PREDICTED BY RF-SCORE:    0.00 PKD
ROOT
HETATM    1  F   UNL     1      -6.167   1.857  70.081  1.00  0.00    -0.021 F  
HETATM    2  C   UNL     1      -6.802   3.031  69.973  1.00  0.00    -0.034 A  
HETATM    3  C   UNL     1      -7.642   3.458  70.991  1.00  0.00    -0.043 A  
HETATM    4  C   UNL     1      -8.318   4.677  70.867  1.00  0.00    -0.097 A  
HETATM    5  C   UNL     1      -8.158   5.485  69.722  1.00  0.00    -0.101 A  
HETATM    6  C   UNL     1      -8.972   6.784  69.580  1.00  0.00    -0.139 C  
HETATM    7  C   UNL     1      -7.298   5.019  68.712  1.00  0.00    -0.062 A  
HETATM    8  C   UNL     1      -8.121   8.092  69.559  1.00  0.00    -0.120 C  
HETATM    9  C   UNL     1      -6.623   3.802  68.835  1.00  0.00    -0.041 A  
HETATM   10  C   UNL     1     -10.151   6.747  68.596  1.00  0.00    -0.163 A  
HETATM   11  C   UNL     1     -10.444   5.632  67.794  1.00  0.00    -0.275 A  
HETATM   12  F   UNL     1     -13.552   6.652  66.216  1.00  0.00     7.787 F  
HETATM   13  C   UNL     1     -11.053   7.828  68.566  1.00  0.00     0.270 A  
HETATM   14  C   UNL     1     -11.584   5.605  66.981  1.00  0.00     1.458 A  
HETATM   15  C   UNL     1     -12.449   6.692  66.974  1.00  0.00     6.125 A  
HETATM   16  C   UNL     1     -12.193   7.806  67.758  1.00  0.00     4.790 A  
ENDROOT
BRANCH   8  17
HETATM   17  C   UNL     1      -7.035   8.322  68.500  1.00  0.00    -0.069 C  
BRANCH  17  18
HETATM   18  C   UNL     1      -6.368   9.698  68.409  1.00  0.00    -0.051 C  
BRANCH  18  19
HETATM   19  N   UNL     1      -6.907  10.788  69.224  1.00  0.00    -0.080 NA 
HETATM   20  C   UNL     1      -5.259  12.712  69.809  1.00  0.00    -0.079 C  
HETATM   21  C   UNL     1      -6.009  11.417  70.204  1.00  0.00    -0.152 C  
HETATM   22  C   UNL     1      -5.995  13.643  68.820  1.00  0.00    -0.084 C  
HETATM   23  C   UNL     1      -6.596  12.749  67.736  1.00  0.00    -0.134 C  
HETATM   24  C   UNL     1      -7.581  11.780  68.380  1.00  0.00    -0.123 C  
BRANCH  22  25
HETATM   25  N   UNL     1      -6.978  14.582  69.379  1.00  0.00    -0.148 N  
HETATM   26  C   UNL     1      -7.720  14.461  70.579  1.00  0.00     1.463 C  
HETATM   27  O   UNL     1      -7.680  13.585  71.425  1.00  0.00     4.329 OA 
HETATM   28  N   UNL     1      -8.561  15.582  70.651  1.00  0.00     1.514 NA 
HETATM   29  C   UNL     1      -8.374  16.370  69.532  1.00  0.00     0.202 A  
HETATM   30  C   UNL     1      -9.018  17.544  69.187  1.00  0.00     0.083 A  
HETATM   31  C   UNL     1      -8.672  18.118  67.967  1.00  0.00    -0.276 A  
HETATM   32  C   UNL     1      -7.701  17.524  67.139  1.00  0.00    -0.228 A  
HETATM   33  C   UNL     1      -7.039  16.349  67.529  1.00  0.00    -0.170 A  
HETATM   34  C   UNL     1      -7.403  15.773  68.732  1.00  0.00    -0.141 A  
ENDBRANCH  22  25
ENDBRANCH  18  19
ENDBRANCH  17  18
ENDBRANCH   8  17
TORSDOF 4
ENDMDL
MODEL      316
REMARK 921   NORMALIZED FREE ENERGY PREDICTED BY IDOCK:   23.26 KCAL/MOL
REMARK 922        TOTAL FREE ENERGY PREDICTED BY IDOCK:   27.91 KCAL/MOL
REMARK 923 INTER-LIGAND FREE ENERGY PREDICTED BY IDOCK:   18.68 KCAL/MOL
REMARK 924 INTRA-LIGAND FREE ENERGY PREDICTED BY IDOCK:    9.23 KCAL/MOL
REMARK 927      BINDING AFFINITY PREDICTED BY RF-SCORE:    0.00 PKD
ROOT
HETATM    1  F   UNL     1      -6.462  12.118  65.939  1.00  0.00     0.636 F  
HETATM    2  C   UNL     1      -6.689  10.811  66.122  1.00  0.00    -0.126 A  
HETATM    3  C   UNL     1      -6.671   9.949  65.035  1.00  0.00    -0.121 A  
HETATM    4  C   UNL     1      -6.925   8.585  65.226  1.00  0.00    -0.078 A  
HETATM    5  C   UNL     1      -7.199   8.070  66.510  1.00  0.00    -0.080 A  
HETATM    6  C   UNL     1      -7.548   6.580  66.679  1.00  0.00    -0.094 C  
HETATM    7  C   UNL     1      -7.208   8.974  67.586  1.00  0.00    -0.083 A  
HETATM    8  C   UNL     1      -6.520   5.755  67.513  1.00  0.00    -0.047 C  
HETATM    9  C   UNL     1      -6.954  10.335  67.396  1.00  0.00    -0.082 A  
HETATM   10  C   UNL     1      -9.026   6.251  66.940  1.00  0.00    -0.120 A  
HETATM   11  C   UNL     1     -10.013   7.237  67.103  1.00  0.00    -0.279 A  
HETATM   12  F   UNL     1     -13.034   5.235  67.316  1.00  0.00     8.075 F  
HETATM   13  C   UNL     1      -9.446   4.908  66.904  1.00  0.00    -0.156 A  
HETATM   14  C   UNL     1     -11.363   6.894  67.244  1.00  0.00    -0.013 A  
HETATM   15  C   UNL     1     -11.739   5.557  67.209  1.00  0.00     2.656 A  
HETATM   16  C   UNL     1     -10.793   4.559  67.042  1.00  0.00     0.934 A  
ENDROOT
BRANCH   8  17
HETATM   17  C   UNL     1      -6.182   6.132  68.961  1.00  0.00    -0.036 C  
BRANCH  17  18
HETATM   18  C   UNL     1      -7.299   6.652  69.872  1.00  0.00    -0.086 C  
BRANCH  18  19
HETATM   19  N   UNL     1      -8.064   7.821  69.435  1.00  0.00    -0.124 NA 
HETATM   20  C   UNL     1      -9.207   9.215  71.309  1.00  0.00    -0.261 C  
HETATM   21  C   UNL     1      -9.286   8.156  70.182  1.00  0.00    -0.155 C  
HETATM   22  C   UNL     1      -8.168  10.338  71.109  1.00  0.00     2.395 C  
HETATM   23  C   UNL     1      -6.890   9.672  70.598  1.00  0.00    -0.119 C  
HETATM   24  C   UNL     1      -7.184   8.983  69.271  1.00  0.00    -0.065 C  
BRANCH  22  25
HETATM   25  N   UNL     1      -8.565  11.489  70.285  1.00  0.00     2.822 N  
HETATM   26  C   UNL     1      -7.748  12.538  69.796  1.00  0.00     1.398 C  
HETATM   27  O   UNL     1      -6.546  12.698  69.913  1.00  0.00    -0.024 OA 
HETATM   28  N   UNL     1      -8.593  13.423  69.107  1.00  0.00     0.431 NA 
HETATM   29  C   UNL     1      -9.894  12.962  69.174  1.00  0.00     0.470 A  
HETATM   30  C   UNL     1     -11.040  13.540  68.662  1.00  0.00    -0.299 A  
HETATM   31  C   UNL     1     -12.243  12.888  68.915  1.00  0.00    -0.044 A  
HETATM   32  C   UNL     1     -12.273  11.689  69.653  1.00  0.00    -0.271 A  
HETATM   33  C   UNL     1     -11.090  11.107  70.134  1.00  0.00    -0.105 A  
HETATM   34  C   UNL     1      -9.901  11.771  69.897  1.00  0.00     1.731 A  
ENDBRANCH  22  25
ENDBRANCH  18  19
ENDBRANCH  17  18
ENDBRANCH   8  17
TORSDOF 4
ENDMDL
MODEL      317
REMARK 921   NORMALIZED FREE ENERGY PREDICTED BY IDOCK:   31.81 KCAL/MOL
REMARK 922        TOTAL FREE ENERGY PREDICTED BY IDOCK:   38.47 KCAL/MOL
REMARK 923 INTER-LIGAND FREE ENERGY PREDICTED BY IDOCK:   20.35 KCAL/MOL
REMARK 924 INTRA-LIGAND FREE ENERGY PREDICTED BY IDOCK:   18.12 KCAL/MOL
REMARK 927      BINDING AFFINITY PREDICTED BY RF-SCORE:    0.00 PKD
ROOT
HETATM    1  F   UNL     1      -8.769  12.548  66.643  1.00  0.00    -0.203 F  
HETATM    2  C   UNL     1      -9.649  11.631  67.064  1.00  0.00    -0.184 A  
HETATM    3  C   UNL     1     -10.906  12.027  67.497  1.00  0.00    -0.284 A  
HETATM    4  C   UNL     1     -11.818  11.068  67.954  1.00  0.00    -0.085 A  
HETATM    5  C   UNL     1     -11.481   9.699  67.978  1.00  0.00     0.443 A  
HETATM    6  C   UNL     1     -12.476   8.675  68.555  1.00  0.00     5.313 C  
HETATM    7  C   UNL     1     -10.198   9.335  67.531  1.00  0.00    -0.300 A  
HETATM    8  C   UNL     1     -13.018   7.635  67.526  1.00  0.00    12.567 C  
HETATM    9  C   UNL     1      -9.288  10.293  67.076  1.00  0.00    -0.177 A  
HETATM   10  C   UNL     1     -12.150   8.117  69.949  1.00  0.00     0.894 A  
HETATM   11  C   UNL     1     -10.975   8.440  70.647  1.00  0.00    -0.266 A  
HETATM   12  F   UNL     1     -11.538   6.802  73.839  1.00  0.00     0.453 F  
HETATM   13  C   UNL     1     -13.112   7.336  70.616  1.00  0.00     0.209 A  
HETATM   14  C   UNL     1     -10.762   7.985  71.954  1.00  0.00    -0.311 A  
HETATM   15  C   UNL     1     -11.733   7.212  72.579  1.00  0.00    -0.180 A  
HETATM   16  C   UNL     1     -12.906   6.880  71.923  1.00  0.00    -0.290 A  
ENDROOT
BRANCH   8  17
HETATM   17  C   UNL     1     -12.071   6.706  66.756  1.00  0.00     3.310 C  
BRANCH  17  18
HETATM   18  C   UNL     1     -11.390   5.555  67.506  1.00  0.00     1.196 C  
BRANCH  18  19
HETATM   19  N   UNL     1     -10.069   5.793  68.092  1.00  0.00    -0.152 NA 
HETATM   20  C   UNL     1      -9.987   7.422  70.117  1.00  0.00    -0.184 C  
HETATM   21  C   UNL     1      -9.784   7.140  68.608  1.00  0.00    -0.141 C  
HETATM   22  C   UNL     1      -9.735   6.230  71.066  1.00  0.00    -0.176 C  
HETATM   23  C   UNL     1     -10.391   5.008  70.424  1.00  0.00    -0.297 C  
HETATM   24  C   UNL     1      -9.743   4.749  69.069  1.00  0.00    -0.178 C  
BRANCH  22  25
HETATM   25  N   UNL     1      -8.346   5.970  71.472  1.00  0.00    -0.126 N  
HETATM   26  C   UNL     1      -7.186   6.713  71.147  1.00  0.00    -0.078 C  
HETATM   27  O   UNL     1      -7.085   7.741  70.501  1.00  0.00    -0.046 OA 
HETATM   28  N   UNL     1      -6.098   6.040  71.723  1.00  0.00    -0.039 NA 
HETATM   29  C   UNL     1      -6.550   4.906  72.372  1.00  0.00    -0.047 A  
HETATM   30  C   UNL     1      -5.815   3.946  73.042  1.00  0.00    -0.007 A  
HETATM   31  C   UNL     1      -6.518   2.867  73.569  1.00  0.00    -0.021 A  
HETATM   32  C   UNL     1      -7.916   2.778  73.426  1.00  0.00    -0.060 A  
HETATM   33  C   UNL     1      -8.641   3.783  72.768  1.00  0.00    -0.097 A  
HETATM   34  C   UNL     1      -7.933   4.841  72.230  1.00  0.00    -0.106 A  
ENDBRANCH  22  25
ENDBRANCH  18  19
ENDBRANCH  17  18
ENDBRANCH   8  17
TORSDOF 4
ENDMDL
MODEL      318
REMARK 921   NORMALIZED FREE ENERGY PREDICTED BY IDOCK:   38.64 KCAL/MOL
REMARK 922        TOTAL FREE ENERGY PREDICTED BY IDOCK:   46.89 KCAL/MOL
REMARK 923 INTER-LIGAND FREE ENERGY PREDICTED BY IDOCK:   41.00 KCAL/MOL
REMARK 924 INTRA-LIGAND FREE ENERGY PREDICTED BY IDOCK:    5.89 KCAL/MOL
REMARK 927      BINDING AFFINITY PREDICTED BY RF-SCORE:    0.00 PKD
ROOT
HETATM    1  F   UNL     1     -10.022  14.212  71.554  1.00  0.00     2.556 F  
HETATM    2  C   UNL     1     -10.336  13.800  70.319  1.00  0.00     1.665 A  
HETATM    3  C   UNL     1     -10.188  12.463  69.979  1.00  0.00     2.028 A  
HETATM    4  C   UNL     1     -10.501  12.038  68.683  1.00  0.00    -0.238 A  
HETATM    5  C   UNL     1     -10.968  12.948  67.712  1.00  0.00    -0.269 A  
HETATM    6  C   UNL     1     -11.233  12.466  66.274  1.00  0.00    -0.361 C  
HETATM    7  C   UNL     1     -11.105  14.294  68.094  1.00  0.00    -0.275 A  
HETATM    8  C   UNL     1     -12.722  12.550  65.817  1.00  0.00     0.476 C  
HETATM    9  C   UNL     1     -10.793  14.719  69.388  1.00  0.00    -0.269 A  
HETATM   10  C   UNL     1     -10.194  12.870  65.217  1.00  0.00    -0.294 A  
HETATM   11  C   UNL     1      -9.098  13.702  65.499  1.00  0.00     0.788 A  
HETATM   12  F   UNL     1      -7.281  13.625  62.356  1.00  0.00     7.967 F  
HETATM   13  C   UNL     1     -10.266  12.299  63.932  1.00  0.00    -0.421 A  
HETATM   14  C   UNL     1      -8.123  13.968  64.530  1.00  0.00    10.083 A  
HETATM   15  C   UNL     1      -8.230  13.391  63.271  1.00  0.00    10.631 A  
HETATM   16  C   UNL     1      -9.294  12.560  62.961  1.00  0.00     1.845 A  
ENDROOT
BRANCH   8  17
HETATM   17  C   UNL     1     -13.482  13.882  65.812  1.00  0.00     0.915 C  
BRANCH  17  18
HETATM   18  C   UNL     1     -12.770  15.140  65.301  1.00  0.00     0.501 C  
BRANCH  18  19
HETATM   19  N   UNL     1     -11.545  15.569  65.978  1.00  0.00     0.088 NA 
HETATM   20  C   UNL     1     -10.376  17.680  65.010  1.00  0.00     0.948 C  
HETATM   21  C   UNL     1     -10.473  16.141  65.150  1.00  0.00    -0.268 C  
HETATM   22  C   UNL     1     -10.844  18.500  66.231  1.00  0.00    -0.020 C  
HETATM   23  C   UNL     1     -12.142  17.860  66.721  1.00  0.00     3.764 C  
HETATM   24  C   UNL     1     -11.863  16.418  67.130  1.00  0.00     1.031 C  
BRANCH  22  25
HETATM   25  N   UNL     1      -9.877  18.707  67.319  1.00  0.00    -0.308 N  
HETATM   26  C   UNL     1      -9.594  19.903  68.022  1.00  0.00    -0.370 C  
HETATM   27  O   UNL     1     -10.108  21.002  67.913  1.00  0.00    -0.068 OA 
HETATM   28  N   UNL     1      -8.563  19.607  68.928  1.00  0.00    -0.269 NA 
HETATM   29  C   UNL     1      -8.196  18.282  68.789  1.00  0.00    -0.234 A  
HETATM   30  C   UNL     1      -7.206  17.588  69.459  1.00  0.00     0.153 A  
HETATM   31  C   UNL     1      -7.007  16.261  69.091  1.00  0.00    -0.206 A  
HETATM   32  C   UNL     1      -7.794  15.664  68.087  1.00  0.00    -0.129 A  
HETATM   33  C   UNL     1      -8.814  16.383  67.446  1.00  0.00    -0.194 A  
HETATM   34  C   UNL     1      -8.992  17.707  67.802  1.00  0.00    -0.247 A  
ENDBRANCH  22  25
ENDBRANCH  18  19
ENDBRANCH  17  18
ENDBRANCH   8  17
TORSDOF 4
ENDMDL
MODEL      319
REMARK 921   NORMALIZED FREE ENERGY PREDICTED BY IDOCK:   62.95 KCAL/MOL
REMARK 922        TOTAL FREE ENERGY PREDICTED BY IDOCK:   76.89 KCAL/MOL
REMARK 923 INTER-LIGAND FREE ENERGY PREDICTED BY IDOCK:   34.68 KCAL/MOL
REMARK 924 INTRA-LIGAND FREE ENERGY PREDICTED BY IDOCK:   42.20 KCAL/MOL
REMARK 927      BINDING AFFINITY PREDICTED BY RF-SCORE:    0.00 PKD
ROOT
HETATM    1  F   UNL     1     -11.337   3.496  70.294  1.00  0.00     3.221 F  
HETATM    2  C   UNL     1     -10.362   4.414  70.257  1.00  0.00     0.220 A  
HETATM    3  C   UNL     1      -9.533   4.584  71.356  1.00  0.00    -0.219 A  
HETATM    4  C   UNL     1      -8.526   5.556  71.322  1.00  0.00    -0.127 A  
HETATM    5  C   UNL     1      -8.337   6.367  70.184  1.00  0.00    -0.134 A  
HETATM    6  C   UNL     1      -7.271   7.477  70.203  1.00  0.00    -0.068 C  
HETATM    7  C   UNL     1      -9.197   6.165  69.090  1.00  0.00    -0.129 A  
HETATM    8  C   UNL     1      -6.101   7.281  69.190  1.00  0.00    -0.030 C  
HETATM    9  C   UNL     1     -10.202   5.195  69.124  1.00  0.00    -0.259 A  
HETATM   10  C   UNL     1      -7.788   8.917  70.345  1.00  0.00    -0.104 A  
HETATM   11  C   UNL     1      -9.154   9.241  70.375  1.00  0.00    -0.288 A  
HETATM   12  F   UNL     1      -9.056  12.806  71.059  1.00  0.00     7.383 F  
HETATM   13  C   UNL     1      -6.866   9.957  70.571  1.00  0.00    -0.122 A  
HETATM   14  C   UNL     1      -9.582  10.555  70.601  1.00  0.00     1.441 A  
HETATM   15  C   UNL     1      -8.642  11.556  70.815  1.00  0.00     6.184 A  
HETATM   16  C   UNL     1      -7.287  11.271  70.800  1.00  0.00     2.675 A  
ENDROOT
BRANCH   8  17
HETATM   17  C   UNL     1      -6.362   7.166  67.682  1.00  0.00    -0.047 C  
BRANCH  17  18
HETATM   18  C   UNL     1      -6.484   8.448  66.851  1.00  0.00    -0.057 C  
BRANCH  18  19
HETATM   19  N   UNL     1      -6.173   9.726  67.494  1.00  0.00    -0.059 NA 
HETATM   20  C   UNL     1      -5.701  11.729  65.905  1.00  0.00     0.895 C  
HETATM   21  C   UNL     1      -5.192  10.601  66.835  1.00  0.00    -0.045 C  
HETATM   22  C   UNL     1      -7.066  12.347  66.277  1.00  0.00     1.298 C  
HETATM   23  C   UNL     1      -7.990  11.186  66.645  1.00  0.00    -0.159 C  
HETATM   24  C   UNL     1      -7.405  10.443  67.840  1.00  0.00    -0.086 C  
BRANCH  22  25
HETATM   25  N   UNL     1      -7.074  13.410  67.292  1.00  0.00    -0.078 N  
HETATM   26  C   UNL     1      -6.824  14.793  67.112  1.00  0.00     0.293 C  
HETATM   27  O   UNL     1      -6.590  15.407  66.087  1.00  0.00     1.747 OA 
HETATM   28  N   UNL     1      -6.894  15.386  68.382  1.00  0.00    -0.111 NA 
HETATM   29  C   UNL     1      -7.159  14.416  69.329  1.00  0.00    -0.124 A  
HETATM   30  C   UNL     1      -7.279  14.558  70.699  1.00  0.00     0.818 A  
HETATM   31  C   UNL     1      -7.501  13.399  71.437  1.00  0.00     5.651 A  
HETATM   32  C   UNL     1      -7.608  12.148  70.801  1.00  0.00     4.918 A  
HETATM   33  C   UNL     1      -7.515  12.037  69.405  1.00  0.00     0.292 A  
HETATM   34  C   UNL     1      -7.273  13.189  68.681  1.00  0.00    -0.106 A  
ENDBRANCH  22  25
ENDBRANCH  18  19
ENDBRANCH  17  18
ENDBRANCH   8  17
TORSDOF 4
ENDMDL
MODEL      320
REMARK 921   NORMALIZED FREE ENERGY PREDICTED BY IDOCK:   73.29 KCAL/MOL
REMARK 922        TOTAL FREE ENERGY PREDICTED BY IDOCK:   89.64 KCAL/MOL
REMARK 923 INTER-LIGAND FREE ENERGY PREDICTED BY IDOCK:   18.37 KCAL/MOL
REMARK 924 INTRA-LIGAND FREE ENERGY PREDICTED BY IDOCK:   71.27 KCAL/MOL
REMARK 927      BINDING AFFINITY PREDICTED BY RF-SCORE:    0.00 PKD
ROOT
HETATM    1  F   UNL     1     -11.933  10.122  63.413  1.00  0.00     2.754 F  
HETATM    2  C   UNL     1     -10.821   9.376  63.361  1.00  0.00     6.220 A  
HETATM    3  C   UNL     1     -10.764   8.281  62.511  1.00  0.00     8.952 A  
HETATM    4  C   UNL     1      -9.608   7.494  62.471  1.00  0.00     2.756 A  
HETATM    5  C   UNL     1      -8.493   7.797  63.280  1.00  0.00     0.212 A  
HETATM    6  C   UNL     1      -7.264   6.870  63.270  1.00  0.00    -0.069 C  
HETATM    7  C   UNL     1      -8.589   8.914  64.128  1.00  0.00    -0.128 A  
HETATM    8  C   UNL     1      -5.955   7.522  62.726  1.00  0.00    -0.051 C  
HETATM    9  C   UNL     1      -9.743   9.700  64.169  1.00  0.00     0.268 A  
HETATM   10  C   UNL     1      -7.088   5.955  64.492  1.00  0.00    -0.053 A  
HETATM   11  C   UNL     1      -7.938   5.999  65.609  1.00  0.00    -0.116 A  
HETATM   12  F   UNL     1      -6.705   3.214  67.586  1.00  0.00    -0.041 F  
HETATM   13  C   UNL     1      -6.106   4.947  64.458  1.00  0.00    -0.022 A  
HETATM   14  C   UNL     1      -7.800   5.083  66.660  1.00  0.00    -0.100 A  
HETATM   15  C   UNL     1      -6.816   4.105  66.593  1.00  0.00    -0.055 A  
HETATM   16  C   UNL     1      -5.965   4.029  65.503  1.00  0.00    -0.023 A  
ENDROOT
BRANCH   8  17
HETATM   17  C   UNL     1      -5.358   8.776  63.377  1.00  0.00    -0.063 C  
BRANCH  17  18
HETATM   18  C   UNL     1      -6.303   9.816  63.988  1.00  0.00    -0.118 C  
BRANCH  18  19
HETATM   19  N   UNL     1      -6.814   9.582  65.340  1.00  0.00    -0.083 NA 
HETATM   20  C   UNL     1      -9.127   8.407  65.508  1.00  0.00    -0.108 C  
HETATM   21  C   UNL     1      -8.265   9.692  65.550  1.00  0.00    -0.126 C  
HETATM   22  C   UNL     1      -8.437   7.114  65.992  1.00  0.00    -0.145 C  
HETATM   23  C   UNL     1      -7.033   7.111  65.388  1.00  0.00    -0.056 C  
HETATM   24  C   UNL     1      -6.272   8.333  65.887  1.00  0.00    -0.048 C  
BRANCH  22  25
HETATM   25  N   UNL     1      -8.423   6.856  67.440  1.00  0.00    -0.121 N  
HETATM   26  C   UNL     1      -8.009   7.725  68.479  1.00  0.00    -0.122 C  
HETATM   27  O   UNL     1      -7.617   8.876  68.411  1.00  0.00    -0.089 OA 
HETATM   28  N   UNL     1      -8.132   7.008  69.679  1.00  0.00    -0.127 NA 
HETATM   29  C   UNL     1      -8.586   5.731  69.408  1.00  0.00    -0.111 A  
HETATM   30  C   UNL     1      -8.815   4.693  70.292  1.00  0.00    -0.122 A  
HETATM   31  C   UNL     1      -9.229   3.481  69.747  1.00  0.00    -0.219 A  
HETATM   32  C   UNL     1      -9.411   3.339  68.358  1.00  0.00    -0.209 A  
HETATM   33  C   UNL     1      -9.202   4.419  67.487  1.00  0.00    -0.164 A  
HETATM   34  C   UNL     1      -8.772   5.614  68.033  1.00  0.00    -0.099 A  
ENDBRANCH  22  25
ENDBRANCH  18  19
ENDBRANCH  17  18
ENDBRANCH   8  17
TORSDOF 4
ENDMDL
MODEL      321
REMARK 921   NORMALIZED FREE ENERGY PREDICTED BY IDOCK:   98.27 KCAL/MOL
REMARK 922        TOTAL FREE ENERGY PREDICTED BY IDOCK:  120.46 KCAL/MOL
REMARK 923 INTER-LIGAND FREE ENERGY PREDICTED BY IDOCK:   63.01 KCAL/MOL
REMARK 924 INTRA-LIGAND FREE ENERGY PREDICTED BY IDOCK:   57.45 KCAL/MOL
REMARK 927      BINDING AFFINITY PREDICTED BY RF-SCORE:    0.00 PKD
ROOT
HETATM    1  F   UNL     1      -7.819   2.450  65.069  1.00  0.00    -0.072 F  
HETATM    2  C   UNL     1      -8.605   3.374  65.636  1.00  0.00    -0.116 A  
HETATM    3  C   UNL     1      -9.954   3.111  65.825  1.00  0.00     0.366 A  
HETATM    4  C   UNL     1     -10.777   4.085  66.402  1.00  0.00     1.145 A  
HETATM    5  C   UNL     1     -10.257   5.335  66.798  1.00  0.00    -0.287 A  
HETATM    6  C   UNL     1     -11.200   6.414  67.360  1.00  0.00    -0.283 C  
HETATM    7  C   UNL     1      -8.886   5.565  66.590  1.00  0.00    -0.117 A  
HETATM    8  C   UNL     1     -10.936   6.806  68.847  1.00  0.00    -0.272 C  
HETATM    9  C   UNL     1      -8.064   4.593  66.014  1.00  0.00    -0.103 A  
HETATM   10  C   UNL     1     -11.540   7.581  66.420  1.00  0.00     3.338 A  
HETATM   11  C   UNL     1     -10.973   7.725  65.143  1.00  0.00     7.257 A  
HETATM   12  F   UNL     1     -12.783  10.595  63.849  1.00  0.00     1.498 F  
HETATM   13  C   UNL     1     -12.547   8.491  66.793  1.00  0.00    11.746 A  
HETATM   14  C   UNL     1     -11.382   8.750  64.282  1.00  0.00    12.188 A  
HETATM   15  C   UNL     1     -12.375   9.633  64.687  1.00  0.00    11.589 A  
HETATM   16  C   UNL     1     -12.961   9.515  65.936  1.00  0.00    16.466 A  
ENDROOT
BRANCH   8  17
HETATM   17  C   UNL     1      -9.577   7.356  69.299  1.00  0.00    -0.154 C  
BRANCH  17  18
HETATM   18  C   UNL     1      -8.888   8.423  68.442  1.00  0.00    -0.140 C  
BRANCH  18  19
HETATM   19  N   UNL     1      -8.726   8.167  67.010  1.00  0.00    -0.129 NA 
HETATM   20  C   UNL     1      -6.337   8.514  66.043  1.00  0.00    -0.053 C  
HETATM   21  C   UNL     1      -7.784   9.018  66.267  1.00  0.00    -0.095 C  
HETATM   22  C   UNL     1      -6.167   6.985  65.913  1.00  0.00    -0.036 C  
HETATM   23  C   UNL     1      -7.036   6.351  66.998  1.00  0.00    -0.071 C  
HETATM   24  C   UNL     1      -8.490   6.741  66.764  1.00  0.00    -0.117 C  
BRANCH  22  25
HETATM   25  N   UNL     1      -6.401   6.388  64.590  1.00  0.00    -0.030 N  
HETATM   26  C   UNL     1      -6.255   6.994  63.318  1.00  0.00    -0.044 C  
HETATM   27  O   UNL     1      -5.871   8.116  63.038  1.00  0.00    -0.070 OA 
HETATM   28  N   UNL     1      -6.645   6.040  62.366  1.00  0.00    -0.032 NA 
HETATM   29  C   UNL     1      -7.040   4.883  63.011  1.00  0.00    -0.042 A  
HETATM   30  C   UNL     1      -7.525   3.711  62.459  1.00  0.00    -0.052 A  
HETATM   31  C   UNL     1      -7.900   2.705  63.344  1.00  0.00    -0.072 A  
HETATM   32  C   UNL     1      -7.776   2.884  64.735  1.00  0.00    -0.077 A  
HETATM   33  C   UNL     1      -7.250   4.071  65.266  1.00  0.00    -0.068 A  
HETATM   34  C   UNL     1      -6.899   5.074  64.382  1.00  0.00    -0.048 A  
ENDBRANCH  22  25
ENDBRANCH  18  19
ENDBRANCH  17  18
ENDBRANCH   8  17
TORSDOF 4
ENDMDL
