MODEL        1
REMARK 921   NORMALIZED FREE ENERGY PREDICTED BY IDOCK:   -6.71 KCAL/MOL
REMARK 922        TOTAL FREE ENERGY PREDICTED BY IDOCK:  -11.90 KCAL/MOL
REMARK 923 INTER-LIGAND FREE ENERGY PREDICTED BY IDOCK:  -10.63 KCAL/MOL
REMARK 924 INTRA-LIGAND FREE ENERGY PREDICTED BY IDOCK:   -1.27 KCAL/MOL
REMARK 927      BINDING AFFINITY PREDICTED BY RF-SCORE:    0.00 PKD
ROOT
HETATM    1  C   UNL     1     -12.437  15.960  74.012  1.00  0.00    -0.638 C  
HETATM    2  O   UNL     1     -13.347  15.603  72.981  1.00  0.00    -0.491 OA 
ENDROOT
BRANCH   2   3
HETATM    3  C   UNL     1     -12.845  15.054  71.835  1.00  0.00    -0.337 A  
HETATM    4  C   UNL     1     -12.909  13.720  71.411  1.00  0.00    -0.369 A  
HETATM    5  C   UNL     1     -12.123  15.975  71.066  1.00  0.00    -0.372 A  
HETATM    6  C   UNL     1     -12.233  13.343  70.242  1.00  0.00    -0.405 A  
HETATM    7  C   UNL     1     -11.386  14.232  69.543  1.00  0.00    -0.315 A  
HETATM    8 BR   UNL     1     -10.568  16.959  68.936  1.00  0.00    -0.337 Br 
HETATM    9  C   UNL     1     -11.423  15.581  69.924  1.00  0.00    -0.327 A  
BRANCH   4  10
HETATM   10  O   UNL     1     -13.645  12.820  72.127  1.00  0.00    -0.521 OA 
HETATM   11  C   UNL     1     -13.304  11.446  71.932  1.00  0.00    -0.304 C  
ENDBRANCH   4  10
BRANCH   7  12
HETATM   12  C   UNL     1     -10.389  13.675  68.539  1.00  0.00    -0.243 C  
BRANCH  12  13
HETATM   13  N   UNL     1     -11.031  13.218  67.160  1.00  0.00    -0.268 N  
HETATM   14  O   UNL     1     -11.706  14.234  64.455  1.00  0.00    -0.399 OA 
HETATM   15  C   UNL     1     -12.285  14.092  66.829  1.00  0.00    -0.404 C  
HETATM   16  C   UNL     1     -12.742  13.881  65.372  1.00  0.00    -0.490 C  
HETATM   17  C   UNL     1      -9.987  13.541  66.046  1.00  0.00    -0.299 C  
HETATM   18  C   UNL     1     -10.550  13.413  64.630  1.00  0.00    -0.415 C  
BRANCH  13  19
HETATM   19  C   UNL     1     -11.404  11.697  67.191  1.00  0.00    -0.306 C  
BRANCH  19  20
HETATM   20  C   UNL     1     -10.261  10.852  67.790  1.00  0.00    -0.180 C  
BRANCH  20  21
HETATM   21  O   UNL     1      -9.838   9.765  66.973  1.00  0.00    -0.174 OA 
BRANCH  21  22
HETATM   22  C   UNL     1      -9.447   8.608  67.761  1.00  0.00    -0.142 C  
BRANCH  22  23
HETATM   23  C   UNL     1     -10.643   7.878  68.377  1.00  0.00    -0.154 C  
BRANCH  23  24
HETATM   24  C   UNL     1     -10.399   7.103  69.685  1.00  0.00    -0.224 C  
HETATM   25  C   UNL     1     -11.777   6.634  70.230  1.00  0.00    -0.432 C  
HETATM   26  C   UNL     1     -12.294   7.403  71.454  1.00  0.00    -0.394 C  
HETATM   27  C   UNL     1     -11.164   8.102  72.209  1.00  0.00    -0.425 C  
HETATM   28  C   UNL     1     -10.495   9.140  71.261  1.00  0.00    -0.398 C  
HETATM   29  C   UNL     1      -9.647   7.931  70.759  1.00  0.00    -0.171 C  
HETATM   30  C   UNL     1      -9.748   7.393  72.266  1.00  0.00    -0.191 C  
HETATM   31  C   UNL     1      -9.677   5.881  72.499  1.00  0.00    -0.172 C  
HETATM   32  C   UNL     1      -8.805   8.038  73.307  1.00  0.00    -0.330 C  
ENDBRANCH  23  24
ENDBRANCH  22  23
ENDBRANCH  21  22
ENDBRANCH  20  21
ENDBRANCH  19  20
ENDBRANCH  13  19
ENDBRANCH  12  13
ENDBRANCH   7  12
ENDBRANCH   2   3
TORSDOF 10
ENDMDL
MODEL        2
REMARK 921   NORMALIZED FREE ENERGY PREDICTED BY IDOCK:   -6.26 KCAL/MOL
REMARK 922        TOTAL FREE ENERGY PREDICTED BY IDOCK:  -11.20 KCAL/MOL
REMARK 923 INTER-LIGAND FREE ENERGY PREDICTED BY IDOCK:  -10.02 KCAL/MOL
REMARK 924 INTRA-LIGAND FREE ENERGY PREDICTED BY IDOCK:   -1.18 KCAL/MOL
REMARK 927      BINDING AFFINITY PREDICTED BY RF-SCORE:    0.00 PKD
ROOT
HETATM    1  C   UNL     1     -12.423  15.778  74.011  1.00  0.00    -0.645 C  
HETATM    2  O   UNL     1     -13.215  15.808  72.832  1.00  0.00    -0.463 OA 
ENDROOT
BRANCH   2   3
HETATM    3  C   UNL     1     -12.733  15.189  71.713  1.00  0.00    -0.349 A  
HETATM    4  C   UNL     1     -12.830  13.837  71.358  1.00  0.00    -0.369 A  
HETATM    5  C   UNL     1     -11.998  16.053  70.893  1.00  0.00    -0.376 A  
HETATM    6  C   UNL     1     -12.171  13.386  70.206  1.00  0.00    -0.405 A  
HETATM    7  C   UNL     1     -11.311  14.219  69.457  1.00  0.00    -0.315 A  
HETATM    8 BR   UNL     1     -10.439  16.893  68.703  1.00  0.00    -0.369 Br 
HETATM    9  C   UNL     1     -11.316  15.586  69.768  1.00  0.00    -0.319 A  
BRANCH   4  10
HETATM   10  O   UNL     1     -13.578  12.991  72.126  1.00  0.00    -0.523 OA 
HETATM   11  C   UNL     1     -13.343  11.597  71.921  1.00  0.00    -0.298 C  
ENDBRANCH   4  10
BRANCH   7  12
HETATM   12  C   UNL     1     -10.334  13.589  68.475  1.00  0.00    -0.240 C  
BRANCH  12  13
HETATM   13  N   UNL     1     -10.970  13.198  67.074  1.00  0.00    -0.265 N  
HETATM   14  O   UNL     1     -11.704  14.359  64.445  1.00  0.00    -0.402 OA 
HETATM   15  C   UNL     1     -12.258  14.044  66.808  1.00  0.00    -0.404 C  
HETATM   16  C   UNL     1     -12.719  13.910  65.343  1.00  0.00    -0.490 C  
HETATM   17  C   UNL     1      -9.948  13.630  65.977  1.00  0.00    -0.302 C  
HETATM   18  C   UNL     1     -10.518  13.572  64.559  1.00  0.00    -0.407 C  
BRANCH  13  19
HETATM   19  C   UNL     1     -11.286  11.665  67.009  1.00  0.00    -0.305 C  
BRANCH  19  20
HETATM   20  C   UNL     1     -10.436  10.874  68.025  1.00  0.00    -0.191 C  
BRANCH  20  21
HETATM   21  O   UNL     1     -11.185  10.243  69.058  1.00  0.00    -0.230 OA 
BRANCH  21  22
HETATM   22  C   UNL     1     -10.365   9.939  70.219  1.00  0.00    -0.281 C  
BRANCH  22  23
HETATM   23  C   UNL     1     -10.535   8.498  70.704  1.00  0.00    -0.234 C  
BRANCH  23  24
HETATM   24  C   UNL     1     -10.588   7.394  69.632  1.00  0.00    -0.243 C  
HETATM   25  C   UNL     1     -11.199   6.121  70.282  1.00  0.00    -0.439 C  
HETATM   26  C   UNL     1     -10.202   4.992  70.576  1.00  0.00    -0.316 C  
HETATM   27  C   UNL     1      -8.939   5.108  69.722  1.00  0.00    -0.141 C  
HETATM   28  C   UNL     1      -8.228   6.451  70.060  1.00  0.00    -0.125 C  
HETATM   29  C   UNL     1      -9.203   7.072  69.013  1.00  0.00    -0.137 C  
HETATM   30  C   UNL     1      -9.079   5.669  68.247  1.00  0.00    -0.112 C  
HETATM   31  C   UNL     1     -10.256   5.213  67.382  1.00  0.00    -0.224 C  
HETATM   32  C   UNL     1      -7.804   5.439  67.403  1.00  0.00    -0.101 C  
ENDBRANCH  23  24
ENDBRANCH  22  23
ENDBRANCH  21  22
ENDBRANCH  20  21
ENDBRANCH  19  20
ENDBRANCH  13  19
ENDBRANCH  12  13
ENDBRANCH   7  12
ENDBRANCH   2   3
TORSDOF 10
ENDMDL
MODEL        3
REMARK 921   NORMALIZED FREE ENERGY PREDICTED BY IDOCK:   -6.26 KCAL/MOL
REMARK 922        TOTAL FREE ENERGY PREDICTED BY IDOCK:  -11.19 KCAL/MOL
REMARK 923 INTER-LIGAND FREE ENERGY PREDICTED BY IDOCK:  -10.48 KCAL/MOL
REMARK 924 INTRA-LIGAND FREE ENERGY PREDICTED BY IDOCK:   -0.71 KCAL/MOL
REMARK 927      BINDING AFFINITY PREDICTED BY RF-SCORE:    0.00 PKD
ROOT
HETATM    1  C   UNL     1     -13.491   9.677  71.806  1.00  0.00    -0.394 C  
HETATM    2  O   UNL     1     -12.118   9.839  71.481  1.00  0.00    -0.363 OA 
ENDROOT
BRANCH   2   3
HETATM    3  C   UNL     1     -11.788  10.691  70.465  1.00  0.00    -0.357 A  
HETATM    4  C   UNL     1     -11.083  10.407  69.288  1.00  0.00    -0.253 A  
HETATM    5  C   UNL     1     -12.166  12.013  70.725  1.00  0.00    -0.382 A  
HETATM    6  C   UNL     1     -10.759  11.457  68.417  1.00  0.00    -0.237 A  
HETATM    7  C   UNL     1     -11.008  12.808  68.744  1.00  0.00    -0.289 A  
HETATM    8 BR   UNL     1     -12.469  14.781  70.309  1.00  0.00    -0.379 Br 
HETATM    9  C   UNL     1     -11.806  13.056  69.870  1.00  0.00    -0.307 A  
BRANCH   4  10
HETATM   10  O   UNL     1     -10.745   9.115  69.000  1.00  0.00    -0.217 OA 
HETATM   11  C   UNL     1     -10.515   8.828  67.620  1.00  0.00    -0.244 C  
ENDBRANCH   4  10
BRANCH   7  12
HETATM   12  C   UNL     1     -10.295  13.905  67.967  1.00  0.00    -0.245 C  
BRANCH  12  13
HETATM   13  N   UNL     1     -10.725  14.018  66.443  1.00  0.00    -0.277 N  
HETATM   14  O   UNL     1     -12.426  12.701  64.400  1.00  0.00    -0.494 OA 
HETATM   15  C   UNL     1     -10.334  12.716  65.670  1.00  0.00    -0.273 C  
HETATM   16  C   UNL     1     -11.003  12.670  64.282  1.00  0.00    -0.366 C  
HETATM   17  C   UNL     1     -12.284  14.071  66.417  1.00  0.00    -0.460 C  
HETATM   18  C   UNL     1     -12.874  13.909  65.014  1.00  0.00    -0.268 C  
BRANCH  13  19
HETATM   19  C   UNL     1     -10.084  15.280  65.771  1.00  0.00    -0.356 C  
BRANCH  19  20
HETATM   20  C   UNL     1     -10.489  16.574  66.507  1.00  0.00    -0.270 C  
BRANCH  20  21
HETATM   21  O   UNL     1     -10.523  17.735  65.684  1.00  0.00    -0.613 OA 
BRANCH  21  22
HETATM   22  C   UNL     1     -10.653  18.954  66.465  1.00  0.00    -0.389 C  
BRANCH  22  23
HETATM   23  C   UNL     1      -9.449  19.888  66.312  1.00  0.00    -0.505 C  
BRANCH  23  24
HETATM   24  C   UNL     1      -8.482  19.993  67.505  1.00  0.00    -0.393 C  
HETATM   25  C   UNL     1      -7.317  20.939  67.097  1.00  0.00    -0.369 C  
HETATM   26  C   UNL     1      -5.979  20.244  66.809  1.00  0.00    -0.205 C  
HETATM   27  C   UNL     1      -5.896  18.867  67.469  1.00  0.00    -0.175 C  
HETATM   28  C   UNL     1      -7.020  17.963  66.883  1.00  0.00    -0.211 C  
HETATM   29  C   UNL     1      -7.926  18.622  67.969  1.00  0.00    -0.294 C  
HETATM   30  C   UNL     1      -6.603  18.663  68.873  1.00  0.00    -0.282 C  
HETATM   31  C   UNL     1      -6.488  19.760  69.934  1.00  0.00    -0.362 C  
HETATM   32  C   UNL     1      -6.180  17.345  69.561  1.00  0.00    -0.249 C  
ENDBRANCH  23  24
ENDBRANCH  22  23
ENDBRANCH  21  22
ENDBRANCH  20  21
ENDBRANCH  19  20
ENDBRANCH  13  19
ENDBRANCH  12  13
ENDBRANCH   7  12
ENDBRANCH   2   3
TORSDOF 10
ENDMDL
MODEL        4
REMARK 921   NORMALIZED FREE ENERGY PREDICTED BY IDOCK:   -6.15 KCAL/MOL
REMARK 922        TOTAL FREE ENERGY PREDICTED BY IDOCK:  -11.02 KCAL/MOL
REMARK 923 INTER-LIGAND FREE ENERGY PREDICTED BY IDOCK:   -9.84 KCAL/MOL
REMARK 924 INTRA-LIGAND FREE ENERGY PREDICTED BY IDOCK:   -1.18 KCAL/MOL
REMARK 927      BINDING AFFINITY PREDICTED BY RF-SCORE:    0.00 PKD
ROOT
HETATM    1  C   UNL     1      -8.675  10.852  62.783  1.00  0.00    -0.252 C  
HETATM    2  O   UNL     1     -10.024  10.859  63.227  1.00  0.00    -0.322 OA 
ENDROOT
BRANCH   2   3
HETATM    3  C   UNL     1     -10.330  11.561  64.359  1.00  0.00    -0.312 A  
HETATM    4  C   UNL     1     -10.502  11.075  65.662  1.00  0.00    -0.230 A  
HETATM    5  C   UNL     1     -10.559  12.919  64.107  1.00  0.00    -0.442 A  
HETATM    6  C   UNL     1     -10.919  11.958  66.669  1.00  0.00    -0.336 A  
HETATM    7  C   UNL     1     -11.291  13.292  66.393  1.00  0.00    -0.341 A  
HETATM    8 BR   UNL     1     -11.186  15.612  64.637  1.00  0.00    -0.288 Br 
HETATM    9  C   UNL     1     -11.009  13.781  65.109  1.00  0.00    -0.337 A  
BRANCH   4  10
HETATM   10  O   UNL     1     -10.242   9.762  65.932  1.00  0.00    -0.259 OA 
HETATM   11  C   UNL     1      -8.908   9.469  66.351  1.00  0.00    -0.144 C  
ENDBRANCH   4  10
BRANCH   7  12
HETATM   12  C   UNL     1     -12.095  14.069  67.424  1.00  0.00    -0.349 C  
BRANCH  12  13
HETATM   13  N   UNL     1     -11.217  14.835  68.502  1.00  0.00    -0.263 N  
HETATM   14  O   UNL     1      -8.877  16.643  68.740  1.00  0.00    -0.249 OA 
HETATM   15  C   UNL     1      -9.726  14.370  68.417  1.00  0.00    -0.226 C  
HETATM   16  C   UNL     1      -8.805  15.303  69.228  1.00  0.00    -0.242 C  
HETATM   17  C   UNL     1     -11.213  16.341  68.094  1.00  0.00    -0.298 C  
HETATM   18  C   UNL     1     -10.195  17.178  68.871  1.00  0.00    -0.332 C  
BRANCH  13  19
HETATM   19  C   UNL     1     -11.786  14.620  69.946  1.00  0.00    -0.319 C  
BRANCH  19  20
HETATM   20  C   UNL     1     -12.137  13.138  70.195  1.00  0.00    -0.321 C  
BRANCH  20  21
HETATM   21  O   UNL     1     -12.887  12.900  71.382  1.00  0.00    -0.367 OA 
BRANCH  21  22
HETATM   22  C   UNL     1     -13.038  11.481  71.657  1.00  0.00    -0.373 C  
BRANCH  22  23
HETATM   23  C   UNL     1     -12.376  10.598  70.597  1.00  0.00    -0.462 C  
BRANCH  23  24
HETATM   24  C   UNL     1     -11.163   9.758  71.036  1.00  0.00    -0.451 C  
HETATM   25  C   UNL     1     -10.510   9.153  69.761  1.00  0.00    -0.234 C  
HETATM   26  C   UNL     1     -10.750   7.651  69.552  1.00  0.00    -0.211 C  
HETATM   27  C   UNL     1     -11.118   6.944  70.857  1.00  0.00    -0.313 C  
HETATM   28  C   UNL     1     -12.444   7.551  71.399  1.00  0.00    -0.382 C  
HETATM   29  C   UNL     1     -11.524   8.635  72.042  1.00  0.00    -0.437 C  
HETATM   30  C   UNL     1     -10.452   7.454  72.201  1.00  0.00    -0.243 C  
HETATM   31  C   UNL     1      -8.966   7.824  72.206  1.00  0.00    -0.194 C  
HETATM   32  C   UNL     1     -10.659   6.469  73.375  1.00  0.00    -0.309 C  
ENDBRANCH  23  24
ENDBRANCH  22  23
ENDBRANCH  21  22
ENDBRANCH  20  21
ENDBRANCH  19  20
ENDBRANCH  13  19
ENDBRANCH  12  13
ENDBRANCH   7  12
ENDBRANCH   2   3
TORSDOF 10
ENDMDL
MODEL        5
REMARK 921   NORMALIZED FREE ENERGY PREDICTED BY IDOCK:   -5.99 KCAL/MOL
REMARK 922        TOTAL FREE ENERGY PREDICTED BY IDOCK:  -10.76 KCAL/MOL
REMARK 923 INTER-LIGAND FREE ENERGY PREDICTED BY IDOCK:  -10.20 KCAL/MOL
REMARK 924 INTRA-LIGAND FREE ENERGY PREDICTED BY IDOCK:   -0.56 KCAL/MOL
REMARK 927      BINDING AFFINITY PREDICTED BY RF-SCORE:    0.00 PKD
ROOT
HETATM    1  C   UNL     1     -10.498  18.689  66.025  1.00  0.00    -0.414 C  
HETATM    2  O   UNL     1     -10.032  17.464  65.479  1.00  0.00    -0.555 OA 
ENDROOT
BRANCH   2   3
HETATM    3  C   UNL     1     -10.637  16.305  65.880  1.00  0.00    -0.297 A  
HETATM    4  C   UNL     1     -10.883  15.861  67.186  1.00  0.00    -0.267 A  
HETATM    5  C   UNL     1     -10.961  15.467  64.807  1.00  0.00    -0.411 A  
HETATM    6  C   UNL     1     -11.428  14.584  67.380  1.00  0.00    -0.385 A  
HETATM    7  C   UNL     1     -11.621  13.679  66.313  1.00  0.00    -0.372 A  
HETATM    8 BR   UNL     1     -11.946  13.199  63.459  1.00  0.00    -0.516 Br 
HETATM    9  C   UNL     1     -11.468  14.182  65.013  1.00  0.00    -0.352 A  
BRANCH   4  10
HETATM   10  O   UNL     1     -10.612  16.685  68.240  1.00  0.00    -0.304 OA 
HETATM   11  C   UNL     1     -10.536  16.052  69.518  1.00  0.00    -0.286 C  
ENDBRANCH   4  10
BRANCH   7  12
HETATM   12  C   UNL     1     -11.832  12.203  66.618  1.00  0.00    -0.237 C  
BRANCH  12  13
HETATM   13  N   UNL     1     -10.593  11.492  67.310  1.00  0.00    -0.218 N  
HETATM   14  O   UNL     1      -8.157   9.921  66.678  1.00  0.00    -0.115 OA 
HETATM   15  C   UNL     1     -10.586   9.965  66.975  1.00  0.00    -0.203 C  
HETATM   16  C   UNL     1      -9.246   9.313  67.372  1.00  0.00    -0.126 C  
HETATM   17  C   UNL     1      -9.307  12.075  66.646  1.00  0.00    -0.219 C  
HETATM   18  C   UNL     1      -8.035  11.306  67.006  1.00  0.00    -0.150 C  
BRANCH  13  19
HETATM   19  C   UNL     1     -10.608  11.722  68.860  1.00  0.00    -0.180 C  
BRANCH  19  20
HETATM   20  C   UNL     1     -12.034  11.587  69.433  1.00  0.00    -0.325 C  
BRANCH  20  21
HETATM   21  O   UNL     1     -12.194  12.107  70.749  1.00  0.00    -0.377 OA 
BRANCH  21  22
HETATM   22  C   UNL     1     -13.020  11.247  71.580  1.00  0.00    -0.415 C  
BRANCH  22  23
HETATM   23  C   UNL     1     -12.836   9.761  71.261  1.00  0.00    -0.472 C  
BRANCH  23  24
HETATM   24  C   UNL     1     -11.891   8.956  72.171  1.00  0.00    -0.417 C  
HETATM   25  C   UNL     1     -10.433   9.208  71.693  1.00  0.00    -0.403 C  
HETATM   26  C   UNL     1      -9.778   8.040  70.943  1.00  0.00    -0.183 C  
HETATM   27  C   UNL     1     -10.455   6.706  71.260  1.00  0.00    -0.244 C  
HETATM   28  C   UNL     1     -11.939   6.776  70.797  1.00  0.00    -0.433 C  
HETATM   29  C   UNL     1     -12.198   7.437  72.187  1.00  0.00    -0.266 C  
HETATM   30  C   UNL     1     -11.026   6.482  72.721  1.00  0.00    -0.286 C  
HETATM   31  C   UNL     1     -10.205   6.952  73.925  1.00  0.00    -0.401 C  
HETATM   32  C   UNL     1     -11.391   5.005  72.993  1.00  0.00    -0.374 C  
ENDBRANCH  23  24
ENDBRANCH  22  23
ENDBRANCH  21  22
ENDBRANCH  20  21
ENDBRANCH  19  20
ENDBRANCH  13  19
ENDBRANCH  12  13
ENDBRANCH   7  12
ENDBRANCH   2   3
TORSDOF 10
ENDMDL
MODEL        6
REMARK 921   NORMALIZED FREE ENERGY PREDICTED BY IDOCK:   -5.98 KCAL/MOL
REMARK 922        TOTAL FREE ENERGY PREDICTED BY IDOCK:  -10.75 KCAL/MOL
REMARK 923 INTER-LIGAND FREE ENERGY PREDICTED BY IDOCK:   -9.82 KCAL/MOL
REMARK 924 INTRA-LIGAND FREE ENERGY PREDICTED BY IDOCK:   -0.92 KCAL/MOL
REMARK 927      BINDING AFFINITY PREDICTED BY RF-SCORE:    0.00 PKD
ROOT
HETATM    1  C   UNL     1     -11.012   6.781  67.132  1.00  0.00    -0.388 C  
HETATM    2  O   UNL     1     -10.852   7.599  68.283  1.00  0.00    -0.102 OA 
ENDROOT
BRANCH   2   3
HETATM    3  C   UNL     1     -10.448   8.893  68.107  1.00  0.00    -0.202 A  
HETATM    4  C   UNL     1     -10.755  10.013  68.891  1.00  0.00    -0.219 A  
HETATM    5  C   UNL     1      -9.697   9.069  66.939  1.00  0.00    -0.260 A  
HETATM    6  C   UNL     1     -10.319  11.278  68.473  1.00  0.00    -0.217 A  
HETATM    7  C   UNL     1      -9.688  11.481  67.226  1.00  0.00    -0.197 A  
HETATM    8 BR   UNL     1      -8.208  10.408  64.960  1.00  0.00    -0.125 Br 
HETATM    9  C   UNL     1      -9.299  10.338  66.513  1.00  0.00    -0.166 A  
BRANCH   4  10
HETATM   10  O   UNL     1     -11.451   9.850  70.055  1.00  0.00    -0.247 OA 
HETATM   11  C   UNL     1     -10.681   9.441  71.186  1.00  0.00    -0.347 C  
ENDBRANCH   4  10
BRANCH   7  12
HETATM   12  C   UNL     1      -9.598  12.890  66.659  1.00  0.00    -0.257 C  
BRANCH  12  13
HETATM   13  N   UNL     1     -10.967  13.457  66.088  1.00  0.00    -0.276 N  
HETATM   14  O   UNL     1     -12.483  13.775  63.558  1.00  0.00    -0.780 OA 
HETATM   15  C   UNL     1     -10.693  14.571  65.025  1.00  0.00    -0.427 C  
HETATM   16  C   UNL     1     -11.973  14.921  64.241  1.00  0.00    -0.338 C  
HETATM   17  C   UNL     1     -11.651  12.291  65.310  1.00  0.00    -0.355 C  
HETATM   18  C   UNL     1     -12.849  12.740  64.471  1.00  0.00    -0.241 C  
BRANCH  13  19
HETATM   19  C   UNL     1     -11.874  14.002  67.245  1.00  0.00    -0.411 C  
BRANCH  19  20
HETATM   20  C   UNL     1     -11.456  15.427  67.661  1.00  0.00    -0.251 C  
BRANCH  20  21
HETATM   21  O   UNL     1     -11.813  15.782  68.993  1.00  0.00    -0.391 OA 
BRANCH  21  22
HETATM   22  C   UNL     1     -10.729  16.458  69.687  1.00  0.00    -0.337 C  
BRANCH  22  23
HETATM   23  C   UNL     1      -9.444  16.523  68.858  1.00  0.00    -0.260 C  
BRANCH  23  24
HETATM   24  C   UNL     1      -8.783  17.903  68.689  1.00  0.00    -0.270 C  
HETATM   25  C   UNL     1      -9.865  18.989  68.947  1.00  0.00    -0.464 C  
HETATM   26  C   UNL     1     -10.375  19.716  67.695  1.00  0.00    -0.583 C  
HETATM   27  C   UNL     1      -9.383  19.622  66.535  1.00  0.00    -0.464 C  
HETATM   28  C   UNL     1      -9.199  18.124  66.155  1.00  0.00    -0.136 C  
HETATM   29  C   UNL     1      -8.135  18.107  67.296  1.00  0.00    -0.230 C  
HETATM   30  C   UNL     1      -7.834  19.624  66.870  1.00  0.00    -0.300 C  
HETATM   31  C   UNL     1      -7.301  20.582  67.939  1.00  0.00    -0.254 C  
HETATM   32  C   UNL     1      -6.959  19.841  65.615  1.00  0.00    -0.329 C  
ENDBRANCH  23  24
ENDBRANCH  22  23
ENDBRANCH  21  22
ENDBRANCH  20  21
ENDBRANCH  19  20
ENDBRANCH  13  19
ENDBRANCH  12  13
ENDBRANCH   7  12
ENDBRANCH   2   3
TORSDOF 10
ENDMDL
MODEL        7
REMARK 921   NORMALIZED FREE ENERGY PREDICTED BY IDOCK:   -5.96 KCAL/MOL
REMARK 922        TOTAL FREE ENERGY PREDICTED BY IDOCK:  -10.72 KCAL/MOL
REMARK 923 INTER-LIGAND FREE ENERGY PREDICTED BY IDOCK:  -10.17 KCAL/MOL
REMARK 924 INTRA-LIGAND FREE ENERGY PREDICTED BY IDOCK:   -0.55 KCAL/MOL
REMARK 927      BINDING AFFINITY PREDICTED BY RF-SCORE:    0.00 PKD
ROOT
HETATM    1  C   UNL     1      -6.719  18.942  68.363  1.00  0.00    -0.248 C  
HETATM    2  O   UNL     1      -6.859  18.288  67.110  1.00  0.00    -0.189 OA 
ENDROOT
BRANCH   2   3
HETATM    3  C   UNL     1      -7.892  17.407  66.951  1.00  0.00    -0.226 A  
HETATM    4  C   UNL     1      -9.166  17.649  66.418  1.00  0.00    -0.244 A  
HETATM    5  C   UNL     1      -7.605  16.140  67.472  1.00  0.00    -0.173 A  
HETATM    6  C   UNL     1     -10.120  16.622  66.442  1.00  0.00    -0.325 A  
HETATM    7  C   UNL     1      -9.885  15.392  67.095  1.00  0.00    -0.221 A  
HETATM    8 BR   UNL     1      -8.009  13.443  68.173  1.00  0.00    -0.160 Br 
HETATM    9  C   UNL     1      -8.574  15.136  67.524  1.00  0.00    -0.180 A  
BRANCH   4  10
HETATM   10  O   UNL     1      -9.446  18.867  65.869  1.00  0.00    -0.458 OA 
HETATM   11  C   UNL     1     -10.573  19.550  66.419  1.00  0.00    -0.472 C  
ENDBRANCH   4  10
BRANCH   7  12
HETATM   12  C   UNL     1     -11.064  14.490  67.430  1.00  0.00    -0.314 C  
BRANCH  12  13
HETATM   13  N   UNL     1     -11.324  13.331  66.376  1.00  0.00    -0.303 N  
HETATM   14  O   UNL     1     -11.741  12.871  63.475  1.00  0.00    -0.490 OA 
HETATM   15  C   UNL     1     -12.675  13.572  65.626  1.00  0.00    -0.421 C  
HETATM   16  C   UNL     1     -12.805  12.646  64.401  1.00  0.00    -0.257 C  
HETATM   17  C   UNL     1     -10.211  13.450  65.289  1.00  0.00    -0.298 C  
HETATM   18  C   UNL     1     -10.470  12.580  64.058  1.00  0.00    -0.422 C  
BRANCH  13  19
HETATM   19  C   UNL     1     -11.316  11.928  67.073  1.00  0.00    -0.329 C  
BRANCH  19  20
HETATM   20  C   UNL     1     -11.553  12.054  68.592  1.00  0.00    -0.319 C  
BRANCH  20  21
HETATM   21  O   UNL     1     -12.279  10.974  69.169  1.00  0.00    -0.434 OA 
BRANCH  21  22
HETATM   22  C   UNL     1     -11.898  10.736  70.551  1.00  0.00    -0.356 C  
BRANCH  22  23
HETATM   23  C   UNL     1     -12.411   9.396  71.085  1.00  0.00    -0.386 C  
BRANCH  23  24
HETATM   24  C   UNL     1     -11.543   8.676  72.133  1.00  0.00    -0.440 C  
HETATM   25  C   UNL     1     -10.051   8.906  71.761  1.00  0.00    -0.407 C  
HETATM   26  C   UNL     1      -9.329   7.689  71.166  1.00  0.00    -0.161 C  
HETATM   27  C   UNL     1     -10.025   6.377  71.529  1.00  0.00    -0.200 C  
HETATM   28  C   UNL     1     -11.465   6.394  70.938  1.00  0.00    -0.406 C  
HETATM   29  C   UNL     1     -11.844   7.159  72.243  1.00  0.00    -0.278 C  
HETATM   30  C   UNL     1     -10.718   6.263  72.950  1.00  0.00    -0.274 C  
HETATM   31  C   UNL     1     -10.005   6.836  74.178  1.00  0.00    -0.373 C  
HETATM   32  C   UNL     1     -11.099   4.808  73.306  1.00  0.00    -0.411 C  
ENDBRANCH  23  24
ENDBRANCH  22  23
ENDBRANCH  21  22
ENDBRANCH  20  21
ENDBRANCH  19  20
ENDBRANCH  13  19
ENDBRANCH  12  13
ENDBRANCH   7  12
ENDBRANCH   2   3
TORSDOF 10
ENDMDL
MODEL        8
REMARK 921   NORMALIZED FREE ENERGY PREDICTED BY IDOCK:   -5.95 KCAL/MOL
REMARK 922        TOTAL FREE ENERGY PREDICTED BY IDOCK:  -10.71 KCAL/MOL
REMARK 923 INTER-LIGAND FREE ENERGY PREDICTED BY IDOCK:   -9.56 KCAL/MOL
REMARK 924 INTRA-LIGAND FREE ENERGY PREDICTED BY IDOCK:   -1.15 KCAL/MOL
REMARK 927      BINDING AFFINITY PREDICTED BY RF-SCORE:    0.00 PKD
ROOT
HETATM    1  C   UNL     1     -12.982   9.747  71.813  1.00  0.00    -0.438 C  
HETATM    2  O   UNL     1     -13.153  11.136  72.056  1.00  0.00    -0.492 OA 
ENDROOT
BRANCH   2   3
HETATM    3  C   UNL     1     -12.682  12.019  71.124  1.00  0.00    -0.266 A  
HETATM    4  C   UNL     1     -12.826  13.413  71.097  1.00  0.00    -0.291 A  
HETATM    5  C   UNL     1     -12.049  11.383  70.050  1.00  0.00    -0.417 A  
HETATM    6  C   UNL     1     -12.352  14.125  69.987  1.00  0.00    -0.403 A  
HETATM    7  C   UNL     1     -11.845  13.478  68.838  1.00  0.00    -0.384 A  
HETATM    8 BR   UNL     1     -10.692  11.110  67.598  1.00  0.00    -0.297 Br 
HETATM    9  C   UNL     1     -11.614  12.098  68.933  1.00  0.00    -0.324 A  
BRANCH   4  10
HETATM   10  O   UNL     1     -13.404  14.051  72.158  1.00  0.00    -0.376 OA 
HETATM   11  C   UNL     1     -14.268  15.139  71.830  1.00  0.00    -0.578 C  
ENDBRANCH   4  10
BRANCH   7  12
HETATM   12  C   UNL     1     -11.720  14.259  67.539  1.00  0.00    -0.384 C  
BRANCH  12  13
HETATM   13  N   UNL     1     -10.465  15.230  67.474  1.00  0.00    -0.260 N  
HETATM   14  O   UNL     1      -8.760  16.951  69.186  1.00  0.00    -0.193 OA 
HETATM   15  C   UNL     1     -10.860  16.662  67.961  1.00  0.00    -0.337 C  
HETATM   16  C   UNL     1      -9.611  17.534  68.198  1.00  0.00    -0.294 C  
HETATM   17  C   UNL     1      -9.430  14.700  68.514  1.00  0.00    -0.216 C  
HETATM   18  C   UNL     1      -8.277  15.672  68.772  1.00  0.00    -0.183 C  
BRANCH  13  19
HETATM   19  C   UNL     1      -9.868  15.278  66.026  1.00  0.00    -0.328 C  
BRANCH  19  20
HETATM   20  C   UNL     1     -10.799  14.580  65.012  1.00  0.00    -0.412 C  
BRANCH  20  21
HETATM   21  O   UNL     1     -10.181  13.539  64.263  1.00  0.00    -0.368 OA 
BRANCH  21  22
HETATM   22  C   UNL     1     -11.143  12.552  63.803  1.00  0.00    -0.448 C  
BRANCH  22  23
HETATM   23  C   UNL     1     -10.602  11.122  63.864  1.00  0.00    -0.431 C  
BRANCH  23  24
HETATM   24  C   UNL     1      -9.093  10.928  63.628  1.00  0.00    -0.196 C  
HETATM   25  C   UNL     1      -8.914  10.056  62.354  1.00  0.00    -0.287 C  
HETATM   26  C   UNL     1      -8.478   8.606  62.608  1.00  0.00    -0.163 C  
HETATM   27  C   UNL     1      -7.808   8.441  63.972  1.00  0.00    -0.146 C  
HETATM   28  C   UNL     1      -8.833   8.815  65.082  1.00  0.00    -0.177 C  
HETATM   29  C   UNL     1      -8.361  10.281  64.832  1.00  0.00    -0.173 C  
HETATM   30  C   UNL     1      -6.926   9.636  64.524  1.00  0.00    -0.117 C  
HETATM   31  C   UNL     1      -5.990  10.379  63.568  1.00  0.00    -0.122 C  
HETATM   32  C   UNL     1      -6.065   9.222  65.740  1.00  0.00    -0.056 C  
ENDBRANCH  23  24
ENDBRANCH  22  23
ENDBRANCH  21  22
ENDBRANCH  20  21
ENDBRANCH  19  20
ENDBRANCH  13  19
ENDBRANCH  12  13
ENDBRANCH   7  12
ENDBRANCH   2   3
TORSDOF 10
ENDMDL
MODEL        9
REMARK 921   NORMALIZED FREE ENERGY PREDICTED BY IDOCK:   -5.93 KCAL/MOL
REMARK 922        TOTAL FREE ENERGY PREDICTED BY IDOCK:  -10.68 KCAL/MOL
REMARK 923 INTER-LIGAND FREE ENERGY PREDICTED BY IDOCK:   -9.67 KCAL/MOL
REMARK 924 INTRA-LIGAND FREE ENERGY PREDICTED BY IDOCK:   -1.00 KCAL/MOL
REMARK 927      BINDING AFFINITY PREDICTED BY RF-SCORE:    0.00 PKD
ROOT
HETATM    1  C   UNL     1     -13.391  15.648  72.589  1.00  0.00    -0.536 C  
HETATM    2  O   UNL     1     -13.182  15.913  71.209  1.00  0.00    -0.503 OA 
ENDROOT
BRANCH   2   3
HETATM    3  C   UNL     1     -12.258  15.163  70.539  1.00  0.00    -0.341 A  
HETATM    4  C   UNL     1     -11.190  15.606  69.746  1.00  0.00    -0.321 A  
HETATM    5  C   UNL     1     -12.505  13.788  70.634  1.00  0.00    -0.429 A  
HETATM    6  C   UNL     1     -10.416  14.662  69.057  1.00  0.00    -0.248 A  
HETATM    7  C   UNL     1     -10.749  13.289  69.033  1.00  0.00    -0.156 A  
HETATM    8 BR   UNL     1     -12.146  11.027  70.219  1.00  0.00    -0.473 Br 
HETATM    9  C   UNL     1     -11.751  12.860  69.914  1.00  0.00    -0.254 A  
BRANCH   4  10
HETATM   10  O   UNL     1     -10.911  16.941  69.677  1.00  0.00    -0.302 OA 
HETATM   11  C   UNL     1     -10.527  17.428  68.390  1.00  0.00    -0.384 C  
ENDBRANCH   4  10
BRANCH   7  12
HETATM   12  C   UNL     1     -10.127  12.392  67.973  1.00  0.00    -0.214 C  
BRANCH  12  13
HETATM   13  N   UNL     1     -10.701  12.609  66.509  1.00  0.00    -0.248 N  
HETATM   14  O   UNL     1     -11.979  14.660  64.788  1.00  0.00    -0.411 OA 
HETATM   15  C   UNL     1     -12.214  13.000  66.571  1.00  0.00    -0.246 C  
HETATM   16  C   UNL     1     -12.715  13.509  65.205  1.00  0.00    -0.399 C  
HETATM   17  C   UNL     1      -9.969  13.851  65.915  1.00  0.00    -0.300 C  
HETATM   18  C   UNL     1     -10.593  14.361  64.615  1.00  0.00    -0.306 C  
BRANCH  13  19
HETATM   19  C   UNL     1     -10.492  11.329  65.629  1.00  0.00    -0.261 C  
BRANCH  19  20
HETATM   20  C   UNL     1      -9.673  10.259  66.380  1.00  0.00    -0.201 C  
BRANCH  20  21
HETATM   21  O   UNL     1      -9.869   8.929  65.913  1.00  0.00    -0.255 OA 
BRANCH  21  22
HETATM   22  C   UNL     1     -10.438   8.069  66.937  1.00  0.00    -0.317 C  
BRANCH  22  23
HETATM   23  C   UNL     1      -9.372   7.344  67.762  1.00  0.00    -0.144 C  
BRANCH  23  24
HETATM   24  C   UNL     1      -9.317   7.651  69.270  1.00  0.00    -0.148 C  
HETATM   25  C   UNL     1      -8.401   6.591  69.944  1.00  0.00    -0.131 C  
HETATM   26  C   UNL     1      -9.133   5.524  70.770  1.00  0.00    -0.168 C  
HETATM   27  C   UNL     1     -10.523   5.991  71.204  1.00  0.00    -0.284 C  
HETATM   28  C   UNL     1     -11.381   6.257  69.933  1.00  0.00    -0.504 C  
HETATM   29  C   UNL     1     -10.712   7.667  69.945  1.00  0.00    -0.253 C  
HETATM   30  C   UNL     1     -10.727   7.525  71.542  1.00  0.00    -0.242 C  
HETATM   31  C   UNL     1      -9.652   8.265  72.343  1.00  0.00    -0.364 C  
HETATM   32  C   UNL     1     -12.069   7.799  72.260  1.00  0.00    -0.332 C  
ENDBRANCH  23  24
ENDBRANCH  22  23
ENDBRANCH  21  22
ENDBRANCH  20  21
ENDBRANCH  19  20
ENDBRANCH  13  19
ENDBRANCH  12  13
ENDBRANCH   7  12
ENDBRANCH   2   3
TORSDOF 10
ENDMDL
MODEL       10
REMARK 921   NORMALIZED FREE ENERGY PREDICTED BY IDOCK:   -5.92 KCAL/MOL
REMARK 922        TOTAL FREE ENERGY PREDICTED BY IDOCK:  -10.66 KCAL/MOL
REMARK 923 INTER-LIGAND FREE ENERGY PREDICTED BY IDOCK:  -10.10 KCAL/MOL
REMARK 924 INTRA-LIGAND FREE ENERGY PREDICTED BY IDOCK:   -0.56 KCAL/MOL
REMARK 927      BINDING AFFINITY PREDICTED BY RF-SCORE:    0.00 PKD
ROOT
HETATM    1  C   UNL     1     -13.631   9.090  71.648  1.00  0.00    -0.390 C  
HETATM    2  O   UNL     1     -13.298  10.360  72.191  1.00  0.00    -0.441 OA 
ENDROOT
BRANCH   2   3
HETATM    3  C   UNL     1     -12.815  11.319  71.346  1.00  0.00    -0.410 A  
HETATM    4  C   UNL     1     -12.922  12.712  71.461  1.00  0.00    -0.282 A  
HETATM    5  C   UNL     1     -12.212  10.778  70.204  1.00  0.00    -0.425 A  
HETATM    6  C   UNL     1     -12.441  13.520  70.421  1.00  0.00    -0.345 A  
HETATM    7  C   UNL     1     -11.965  12.979  69.206  1.00  0.00    -0.331 A  
HETATM    8 BR   UNL     1     -10.890  10.719  67.719  1.00  0.00    -0.348 Br 
HETATM    9  C   UNL     1     -11.770  11.591  69.159  1.00  0.00    -0.329 A  
BRANCH   4  10
HETATM   10  O   UNL     1     -13.469  13.255  72.588  1.00  0.00    -0.560 OA 
HETATM   11  C   UNL     1     -13.239  14.652  72.777  1.00  0.00    -0.497 C  
ENDBRANCH   4  10
BRANCH   7  12
HETATM   12  C   UNL     1     -11.834  13.883  67.990  1.00  0.00    -0.375 C  
BRANCH  12  13
HETATM   13  N   UNL     1     -10.458  14.670  67.902  1.00  0.00    -0.240 N  
HETATM   14  O   UNL     1      -7.561  14.368  68.467  1.00  0.00    -0.111 OA 
HETATM   15  C   UNL     1      -9.814  14.800  69.321  1.00  0.00    -0.116 C  
HETATM   16  C   UNL     1      -8.352  15.281  69.228  1.00  0.00    -0.243 C  
HETATM   17  C   UNL     1      -9.480  13.779  67.075  1.00  0.00    -0.255 C  
HETATM   18  C   UNL     1      -8.030  14.264  67.122  1.00  0.00    -0.101 C  
BRANCH  13  19
HETATM   19  C   UNL     1     -10.659  16.081  67.250  1.00  0.00    -0.313 C  
BRANCH  19  20
HETATM   20  C   UNL     1     -10.993  17.147  68.313  1.00  0.00    -0.229 C  
BRANCH  20  21
HETATM   21  O   UNL     1     -10.735  18.487  67.907  1.00  0.00    -0.385 OA 
BRANCH  21  22
HETATM   22  C   UNL     1     -10.117  18.551  66.593  1.00  0.00    -0.389 C  
BRANCH  22  23
HETATM   23  C   UNL     1      -9.108  19.695  66.467  1.00  0.00    -0.436 C  
BRANCH  23  24
HETATM   24  C   UNL     1      -8.195  19.967  67.677  1.00  0.00    -0.347 C  
HETATM   25  C   UNL     1      -7.146  21.035  67.256  1.00  0.00    -0.399 C  
HETATM   26  C   UNL     1      -5.725  20.503  67.029  1.00  0.00    -0.216 C  
HETATM   27  C   UNL     1      -5.490  19.174  67.747  1.00  0.00    -0.176 C  
HETATM   28  C   UNL     1      -6.476  18.114  67.175  1.00  0.00    -0.192 C  
HETATM   29  C   UNL     1      -7.487  18.696  68.210  1.00  0.00    -0.302 C  
HETATM   30  C   UNL     1      -6.205  18.938  69.142  1.00  0.00    -0.284 C  
HETATM   31  C   UNL     1      -6.257  20.081  70.159  1.00  0.00    -0.393 C  
HETATM   32  C   UNL     1      -5.641  17.711  69.895  1.00  0.00    -0.238 C  
ENDBRANCH  23  24
ENDBRANCH  22  23
ENDBRANCH  21  22
ENDBRANCH  20  21
ENDBRANCH  19  20
ENDBRANCH  13  19
ENDBRANCH  12  13
ENDBRANCH   7  12
ENDBRANCH   2   3
TORSDOF 10
ENDMDL
MODEL       11
REMARK 921   NORMALIZED FREE ENERGY PREDICTED BY IDOCK:   -5.86 KCAL/MOL
REMARK 922        TOTAL FREE ENERGY PREDICTED BY IDOCK:  -10.57 KCAL/MOL
REMARK 923 INTER-LIGAND FREE ENERGY PREDICTED BY IDOCK:   -9.75 KCAL/MOL
REMARK 924 INTRA-LIGAND FREE ENERGY PREDICTED BY IDOCK:   -0.82 KCAL/MOL
REMARK 927      BINDING AFFINITY PREDICTED BY RF-SCORE:    0.00 PKD
ROOT
HETATM    1  C   UNL     1     -10.372   6.920  72.284  1.00  0.00    -0.196 C  
HETATM    2  O   UNL     1     -10.618   8.280  72.611  1.00  0.00    -0.332 OA 
ENDROOT
BRANCH   2   3
HETATM    3  C   UNL     1     -10.879   9.154  71.594  1.00  0.00    -0.372 A  
HETATM    4  C   UNL     1     -12.112   9.705  71.218  1.00  0.00    -0.371 A  
HETATM    5  C   UNL     1      -9.747   9.438  70.822  1.00  0.00    -0.332 A  
HETATM    6  C   UNL     1     -12.178  10.507  70.070  1.00  0.00    -0.323 A  
HETATM    7  C   UNL     1     -11.072  10.678  69.207  1.00  0.00    -0.306 A  
HETATM    8 BR   UNL     1      -8.195  10.583  68.770  1.00  0.00    -0.142 Br 
HETATM    9  C   UNL     1      -9.831  10.207  69.660  1.00  0.00    -0.225 A  
BRANCH   4  10
HETATM   10  O   UNL     1     -13.217   9.471  71.985  1.00  0.00    -0.392 OA 
HETATM   11  C   UNL     1     -14.011   8.349  71.601  1.00  0.00    -0.399 C  
ENDBRANCH   4  10
BRANCH   7  12
HETATM   12  C   UNL     1     -11.300  11.215  67.802  1.00  0.00    -0.293 C  
BRANCH  12  13
HETATM   13  N   UNL     1     -10.949  12.753  67.621  1.00  0.00    -0.237 N  
HETATM   14  O   UNL     1     -10.536  14.817  65.531  1.00  0.00    -0.312 OA 
HETATM   15  C   UNL     1      -9.639  12.915  66.783  1.00  0.00    -0.246 C  
HETATM   16  C   UNL     1      -9.441  14.377  66.335  1.00  0.00    -0.285 C  
HETATM   17  C   UNL     1     -12.085  13.377  66.753  1.00  0.00    -0.365 C  
HETATM   18  C   UNL     1     -11.765  14.789  66.259  1.00  0.00    -0.257 C  
BRANCH  13  19
HETATM   19  C   UNL     1     -10.813  13.465  69.011  1.00  0.00    -0.183 C  
BRANCH  19  20
HETATM   20  C   UNL     1     -12.165  14.043  69.478  1.00  0.00    -0.308 C  
BRANCH  20  21
HETATM   21  O   UNL     1     -12.118  15.410  69.872  1.00  0.00    -0.330 OA 
BRANCH  21  22
HETATM   22  C   UNL     1     -10.797  15.988  69.686  1.00  0.00    -0.329 C  
BRANCH  22  23
HETATM   23  C   UNL     1     -10.798  17.169  68.713  1.00  0.00    -0.211 C  
BRANCH  23  24
HETATM   24  C   UNL     1      -9.558  18.081  68.710  1.00  0.00    -0.309 C  
HETATM   25  C   UNL     1     -10.030  19.536  68.985  1.00  0.00    -0.490 C  
HETATM   26  C   UNL     1     -10.014  20.472  67.769  1.00  0.00    -0.410 C  
HETATM   27  C   UNL     1      -9.068  19.973  66.676  1.00  0.00    -0.463 C  
HETATM   28  C   UNL     1      -9.564  18.582  66.181  1.00  0.00    -0.203 C  
HETATM   29  C   UNL     1      -8.751  18.017  67.387  1.00  0.00    -0.248 C  
HETATM   30  C   UNL     1      -7.739  19.230  67.115  1.00  0.00    -0.267 C  
HETATM   31  C   UNL     1      -6.933  19.776  68.297  1.00  0.00    -0.333 C  
HETATM   32  C   UNL     1      -6.741  19.064  65.947  1.00  0.00    -0.281 C  
ENDBRANCH  23  24
ENDBRANCH  22  23
ENDBRANCH  21  22
ENDBRANCH  20  21
ENDBRANCH  19  20
ENDBRANCH  13  19
ENDBRANCH  12  13
ENDBRANCH   7  12
ENDBRANCH   2   3
TORSDOF 10
ENDMDL
MODEL       12
REMARK 921   NORMALIZED FREE ENERGY PREDICTED BY IDOCK:   -5.80 KCAL/MOL
REMARK 922        TOTAL FREE ENERGY PREDICTED BY IDOCK:  -10.46 KCAL/MOL
REMARK 923 INTER-LIGAND FREE ENERGY PREDICTED BY IDOCK:   -9.22 KCAL/MOL
REMARK 924 INTRA-LIGAND FREE ENERGY PREDICTED BY IDOCK:   -1.24 KCAL/MOL
REMARK 927      BINDING AFFINITY PREDICTED BY RF-SCORE:    0.00 PKD
ROOT
HETATM    1  C   UNL     1     -12.045  15.480  64.114  1.00  0.00    -0.045 C  
HETATM    2  O   UNL     1     -12.827  14.417  64.639  1.00  0.00    -0.643 OA 
ENDROOT
BRANCH   2   3
HETATM    3  C   UNL     1     -12.237  13.550  65.516  1.00  0.00    -0.451 A  
HETATM    4  C   UNL     1     -11.763  12.254  65.271  1.00  0.00    -0.361 A  
HETATM    5  C   UNL     1     -12.196  14.050  66.823  1.00  0.00    -0.439 A  
HETATM    6  C   UNL     1     -11.282  11.490  66.343  1.00  0.00    -0.307 A  
HETATM    7  C   UNL     1     -11.373  11.932  67.682  1.00  0.00    -0.372 A  
HETATM    8 BR   UNL     1     -11.666  14.114  69.588  1.00  0.00    -0.393 Br 
HETATM    9  C   UNL     1     -11.750  13.267  67.889  1.00  0.00    -0.357 A  
BRANCH   4  10
HETATM   10  O   UNL     1     -11.758  11.770  63.994  1.00  0.00    -0.372 OA 
HETATM   11  C   UNL     1     -10.476  11.676  63.372  1.00  0.00    -0.426 C  
ENDBRANCH   4  10
BRANCH   7  12
HETATM   12  C   UNL     1     -11.209  10.925  68.810  1.00  0.00    -0.270 C  
BRANCH  12  13
HETATM   13  N   UNL     1      -9.894  10.040  68.716  1.00  0.00    -0.161 N  
HETATM   14  O   UNL     1      -8.758   7.453  69.619  1.00  0.00    -0.136 OA 
HETATM   15  C   UNL     1      -9.312   9.779  70.143  1.00  0.00    -0.215 C  
HETATM   16  C   UNL     1      -8.227   8.684  70.110  1.00  0.00    -0.123 C  
HETATM   17  C   UNL     1     -10.328   8.643  68.174  1.00  0.00    -0.216 C  
HETATM   18  C   UNL     1      -9.228   7.584  68.277  1.00  0.00    -0.138 C  
BRANCH  13  19
HETATM   19  C   UNL     1      -8.826  10.721  67.793  1.00  0.00    -0.130 C  
BRANCH  19  20
HETATM   20  C   UNL     1      -8.153  11.915  68.501  1.00  0.00    -0.130 C  
BRANCH  20  21
HETATM   21  O   UNL     1      -7.611  12.895  67.621  1.00  0.00    -0.129 OA 
BRANCH  21  22
HETATM   22  C   UNL     1      -8.113  14.227  67.912  1.00  0.00    -0.151 C  
BRANCH  22  23
HETATM   23  C   UNL     1      -8.685  14.929  66.678  1.00  0.00    -0.262 C  
BRANCH  23  24
HETATM   24  C   UNL     1      -8.324  16.412  66.479  1.00  0.00    -0.337 C  
HETATM   25  C   UNL     1      -7.485  16.871  67.704  1.00  0.00    -0.176 C  
HETATM   26  C   UNL     1      -8.221  17.776  68.702  1.00  0.00    -0.272 C  
HETATM   27  C   UNL     1      -9.425  18.469  68.064  1.00  0.00    -0.326 C  
HETATM   28  C   UNL     1     -10.436  17.383  67.592  1.00  0.00    -0.368 C  
HETATM   29  C   UNL     1      -9.563  17.327  66.301  1.00  0.00    -0.268 C  
HETATM   30  C   UNL     1      -9.326  18.895  66.540  1.00  0.00    -0.351 C  
HETATM   31  C   UNL     1      -8.027  19.516  66.020  1.00  0.00    -0.312 C  
HETATM   32  C   UNL     1     -10.465  19.850  66.118  1.00  0.00    -0.581 C  
ENDBRANCH  23  24
ENDBRANCH  22  23
ENDBRANCH  21  22
ENDBRANCH  20  21
ENDBRANCH  19  20
ENDBRANCH  13  19
ENDBRANCH  12  13
ENDBRANCH   7  12
ENDBRANCH   2   3
TORSDOF 10
ENDMDL
MODEL       13
REMARK 921   NORMALIZED FREE ENERGY PREDICTED BY IDOCK:   -5.79 KCAL/MOL
REMARK 922        TOTAL FREE ENERGY PREDICTED BY IDOCK:  -10.45 KCAL/MOL
REMARK 923 INTER-LIGAND FREE ENERGY PREDICTED BY IDOCK:   -9.21 KCAL/MOL
REMARK 924 INTRA-LIGAND FREE ENERGY PREDICTED BY IDOCK:   -1.24 KCAL/MOL
REMARK 927      BINDING AFFINITY PREDICTED BY RF-SCORE:    0.00 PKD
ROOT
HETATM    1  C   UNL     1     -13.824   8.991  72.430  1.00  0.00    -0.475 C  
HETATM    2  O   UNL     1     -12.791   9.965  72.446  1.00  0.00    -0.318 OA 
ENDROOT
BRANCH   2   3
HETATM    3  C   UNL     1     -12.220  10.324  71.258  1.00  0.00    -0.395 A  
HETATM    4  C   UNL     1     -12.274  11.565  70.608  1.00  0.00    -0.378 A  
HETATM    5  C   UNL     1     -11.576   9.255  70.624  1.00  0.00    -0.305 A  
HETATM    6  C   UNL     1     -11.701  11.692  69.335  1.00  0.00    -0.405 A  
HETATM    7  C   UNL     1     -11.180  10.584  68.630  1.00  0.00    -0.328 A  
HETATM    8 BR   UNL     1     -10.118   7.874  68.650  1.00  0.00    -0.219 Br 
HETATM    9  C   UNL     1     -11.041   9.384  69.340  1.00  0.00    -0.076 A  
BRANCH   4  10
HETATM   10  O   UNL     1     -12.862  12.627  71.232  1.00  0.00    -0.355 OA 
HETATM   11  C   UNL     1     -12.433  13.917  70.794  1.00  0.00    -0.375 C  
ENDBRANCH   4  10
BRANCH   7  12
HETATM   12  C   UNL     1     -10.942  10.701  67.132  1.00  0.00    -0.247 C  
BRANCH  12  13
HETATM   13  N   UNL     1      -9.584  11.422  66.737  1.00  0.00    -0.185 N  
HETATM   14  O   UNL     1      -6.704  11.512  67.442  1.00  0.00    -0.082 OA 
HETATM   15  C   UNL     1      -8.997  12.187  67.968  1.00  0.00    -0.189 C  
HETATM   16  C   UNL     1      -7.545  12.635  67.705  1.00  0.00    -0.152 C  
HETATM   17  C   UNL     1      -8.554  10.298  66.408  1.00  0.00    -0.133 C  
HETATM   18  C   UNL     1      -7.119  10.810  66.270  1.00  0.00    -0.134 C  
BRANCH  13  19
HETATM   19  C   UNL     1      -9.796  12.394  65.526  1.00  0.00    -0.200 C  
BRANCH  19  20
HETATM   20  C   UNL     1     -11.283  12.469  65.121  1.00  0.00    -0.304 C  
BRANCH  20  21
HETATM   21  O   UNL     1     -11.603  13.544  64.244  1.00  0.00    -0.378 OA 
BRANCH  21  22
HETATM   22  C   UNL     1     -11.998  14.741  64.968  1.00  0.00    -0.318 C  
BRANCH  22  23
HETATM   23  C   UNL     1     -10.907  15.815  64.977  1.00  0.00    -0.461 C  
BRANCH  23  24
HETATM   24  C   UNL     1      -9.966  15.853  66.195  1.00  0.00    -0.337 C  
HETATM   25  C   UNL     1     -10.775  15.399  67.442  1.00  0.00    -0.296 C  
HETATM   26  C   UNL     1     -11.155  16.519  68.421  1.00  0.00    -0.333 C  
HETATM   27  C   UNL     1     -10.247  17.740  68.272  1.00  0.00    -0.382 C  
HETATM   28  C   UNL     1     -10.407  18.312  66.833  1.00  0.00    -0.404 C  
HETATM   29  C   UNL     1      -9.335  17.248  66.440  1.00  0.00    -0.281 C  
HETATM   30  C   UNL     1      -8.724  17.503  67.900  1.00  0.00    -0.247 C  
HETATM   31  C   UNL     1      -7.960  16.359  68.572  1.00  0.00    -0.203 C  
HETATM   32  C   UNL     1      -7.864  18.773  68.091  1.00  0.00    -0.314 C  
ENDBRANCH  23  24
ENDBRANCH  22  23
ENDBRANCH  21  22
ENDBRANCH  20  21
ENDBRANCH  19  20
ENDBRANCH  13  19
ENDBRANCH  12  13
ENDBRANCH   7  12
ENDBRANCH   2   3
TORSDOF 10
ENDMDL
MODEL       14
REMARK 921   NORMALIZED FREE ENERGY PREDICTED BY IDOCK:   -5.76 KCAL/MOL
REMARK 922        TOTAL FREE ENERGY PREDICTED BY IDOCK:  -10.40 KCAL/MOL
REMARK 923 INTER-LIGAND FREE ENERGY PREDICTED BY IDOCK:   -9.17 KCAL/MOL
REMARK 924 INTRA-LIGAND FREE ENERGY PREDICTED BY IDOCK:   -1.23 KCAL/MOL
REMARK 927      BINDING AFFINITY PREDICTED BY RF-SCORE:    0.00 PKD
ROOT
HETATM    1  C   UNL     1     -10.188   7.148  73.717  1.00  0.00    -0.352 C  
HETATM    2  O   UNL     1     -11.109   8.016  73.073  1.00  0.00    -0.382 OA 
ENDROOT
BRANCH   2   3
HETATM    3  C   UNL     1     -10.682   8.721  71.983  1.00  0.00    -0.347 A  
HETATM    4  C   UNL     1     -11.444   9.488  71.091  1.00  0.00    -0.360 A  
HETATM    5  C   UNL     1      -9.314   8.555  71.736  1.00  0.00    -0.323 A  
HETATM    6  C   UNL     1     -10.819  10.049  69.969  1.00  0.00    -0.352 A  
HETATM    7  C   UNL     1      -9.475   9.767  69.637  1.00  0.00    -0.237 A  
HETATM    8 BR   UNL     1      -6.830   8.858  70.446  1.00  0.00    -0.056 Br 
HETATM    9  C   UNL     1      -8.709   9.088  70.595  1.00  0.00    -0.213 A  
BRANCH   4  10
HETATM   10  O   UNL     1     -12.770   9.693  71.342  1.00  0.00    -0.328 OA 
HETATM   11  C   UNL     1     -13.127  11.015  71.749  1.00  0.00    -0.449 C  
ENDBRANCH   4  10
BRANCH   7  12
HETATM   12  C   UNL     1      -8.977  10.070  68.232  1.00  0.00    -0.119 C  
BRANCH  12  13
HETATM   13  N   UNL     1      -9.228   8.907  67.180  1.00  0.00    -0.136 N  
HETATM   14  O   UNL     1      -9.592   5.969  66.999  1.00  0.00    -0.124 OA 
HETATM   15  C   UNL     1      -8.063   7.866  67.233  1.00  0.00    -0.118 C  
HETATM   16  C   UNL     1      -8.425   6.585  66.455  1.00  0.00    -0.124 C  
HETATM   17  C   UNL     1     -10.502   8.140  67.650  1.00  0.00    -0.231 C  
HETATM   18  C   UNL     1     -10.730   6.826  66.902  1.00  0.00    -0.324 C  
BRANCH  13  19
HETATM   19  C   UNL     1      -9.393   9.486  65.733  1.00  0.00    -0.233 C  
BRANCH  19  20
HETATM   20  C   UNL     1     -10.218  10.789  65.741  1.00  0.00    -0.257 C  
BRANCH  20  21
HETATM   21  O   UNL     1     -10.742  11.165  64.471  1.00  0.00    -0.336 OA 
BRANCH  21  22
HETATM   22  C   UNL     1     -10.699  12.603  64.267  1.00  0.00    -0.382 C  
BRANCH  22  23
HETATM   23  C   UNL     1     -11.813  13.341  65.014  1.00  0.00    -0.384 C  
BRANCH  23  24
HETATM   24  C   UNL     1     -11.391  14.464  65.979  1.00  0.00    -0.335 C  
HETATM   25  C   UNL     1      -9.841  14.444  66.091  1.00  0.00    -0.340 C  
HETATM   26  C   UNL     1      -9.285  13.884  67.408  1.00  0.00    -0.224 C  
HETATM   27  C   UNL     1     -10.317  13.945  68.535  1.00  0.00    -0.244 C  
HETATM   28  C   UNL     1     -11.541  13.068  68.141  1.00  0.00    -0.379 C  
HETATM   29  C   UNL     1     -12.035  14.340  67.384  1.00  0.00    -0.426 C  
HETATM   30  C   UNL     1     -11.328  15.166  68.562  1.00  0.00    -0.321 C  
HETATM   31  C   UNL     1     -10.811  16.572  68.248  1.00  0.00    -0.352 C  
HETATM   32  C   UNL     1     -12.090  15.272  69.903  1.00  0.00    -0.375 C  
ENDBRANCH  23  24
ENDBRANCH  22  23
ENDBRANCH  21  22
ENDBRANCH  20  21
ENDBRANCH  19  20
ENDBRANCH  13  19
ENDBRANCH  12  13
ENDBRANCH   7  12
ENDBRANCH   2   3
TORSDOF 10
ENDMDL
MODEL       15
REMARK 921   NORMALIZED FREE ENERGY PREDICTED BY IDOCK:   -5.75 KCAL/MOL
REMARK 922        TOTAL FREE ENERGY PREDICTED BY IDOCK:  -10.38 KCAL/MOL
REMARK 923 INTER-LIGAND FREE ENERGY PREDICTED BY IDOCK:   -9.64 KCAL/MOL
REMARK 924 INTRA-LIGAND FREE ENERGY PREDICTED BY IDOCK:   -0.74 KCAL/MOL
REMARK 927      BINDING AFFINITY PREDICTED BY RF-SCORE:    0.00 PKD
ROOT
HETATM    1  C   UNL     1     -13.994   9.047  72.540  1.00  0.00    -0.401 C  
HETATM    2  O   UNL     1     -12.656   8.961  72.073  1.00  0.00    -0.341 OA 
ENDROOT
BRANCH   2   3
HETATM    3  C   UNL     1     -12.241   9.855  71.126  1.00  0.00    -0.373 A  
HETATM    4  C   UNL     1     -11.384   9.635  70.040  1.00  0.00    -0.195 A  
HETATM    5  C   UNL     1     -12.707  11.153  71.369  1.00  0.00    -0.524 A  
HETATM    6  C   UNL     1     -11.001  10.723  69.242  1.00  0.00    -0.292 A  
HETATM    7  C   UNL     1     -11.350  12.053  69.567  1.00  0.00    -0.298 A  
HETATM    8 BR   UNL     1     -13.080  13.917  70.985  1.00  0.00    -0.261 Br 
HETATM    9  C   UNL     1     -12.291  12.235  70.591  1.00  0.00    -0.286 A  
BRANCH   4  10
HETATM   10  O   UNL     1     -10.955   8.368  69.765  1.00  0.00    -0.221 OA 
HETATM   11  C   UNL     1      -9.577   8.243  69.413  1.00  0.00    -0.171 C  
ENDBRANCH   4  10
BRANCH   7  12
HETATM   12  C   UNL     1     -10.595  13.201  68.913  1.00  0.00    -0.131 C  
BRANCH  12  13
HETATM   13  N   UNL     1     -10.748  13.272  67.334  1.00  0.00    -0.256 N  
HETATM   14  O   UNL     1     -12.787  13.133  65.183  1.00  0.00    -0.669 OA 
HETATM   15  C   UNL     1     -11.371  11.945  66.788  1.00  0.00    -0.330 C  
HETATM   16  C   UNL     1     -11.810  12.100  65.319  1.00  0.00    -0.295 C  
HETATM   17  C   UNL     1     -11.798  14.386  67.032  1.00  0.00    -0.412 C  
HETATM   18  C   UNL     1     -12.264  14.402  65.575  1.00  0.00    -0.348 C  
BRANCH  13  19
HETATM   19  C   UNL     1      -9.370  13.565  66.649  1.00  0.00    -0.245 C  
BRANCH  19  20
HETATM   20  C   UNL     1      -8.207  13.447  67.657  1.00  0.00    -0.177 C  
BRANCH  20  21
HETATM   21  O   UNL     1      -7.003  14.087  67.247  1.00  0.00    -0.179 OA 
BRANCH  21  22
HETATM   22  C   UNL     1      -6.722  15.277  68.032  1.00  0.00    -0.144 C  
BRANCH  22  23
HETATM   23  C   UNL     1      -6.593  16.537  67.173  1.00  0.00    -0.229 C  
BRANCH  23  24
HETATM   24  C   UNL     1      -7.473  17.742  67.553  1.00  0.00    -0.213 C  
HETATM   25  C   UNL     1      -8.298  17.357  68.813  1.00  0.00    -0.223 C  
HETATM   26  C   UNL     1      -9.786  17.078  68.562  1.00  0.00    -0.290 C  
HETATM   27  C   UNL     1     -10.279  17.726  67.267  1.00  0.00    -0.350 C  
HETATM   28  C   UNL     1      -9.488  17.118  66.072  1.00  0.00    -0.167 C  
HETATM   29  C   UNL     1      -8.415  18.200  66.410  1.00  0.00    -0.263 C  
HETATM   30  C   UNL     1      -9.656  19.119  66.841  1.00  0.00    -0.379 C  
HETATM   31  C   UNL     1      -9.423  20.193  67.907  1.00  0.00    -0.438 C  
HETATM   32  C   UNL     1     -10.454  19.800  65.705  1.00  0.00    -0.545 C  
ENDBRANCH  23  24
ENDBRANCH  22  23
ENDBRANCH  21  22
ENDBRANCH  20  21
ENDBRANCH  19  20
ENDBRANCH  13  19
ENDBRANCH  12  13
ENDBRANCH   7  12
ENDBRANCH   2   3
TORSDOF 10
ENDMDL
MODEL       16
REMARK 921   NORMALIZED FREE ENERGY PREDICTED BY IDOCK:   -5.74 KCAL/MOL
REMARK 922        TOTAL FREE ENERGY PREDICTED BY IDOCK:  -10.37 KCAL/MOL
REMARK 923 INTER-LIGAND FREE ENERGY PREDICTED BY IDOCK:   -9.40 KCAL/MOL
REMARK 924 INTRA-LIGAND FREE ENERGY PREDICTED BY IDOCK:   -0.97 KCAL/MOL
REMARK 927      BINDING AFFINITY PREDICTED BY RF-SCORE:    0.00 PKD
ROOT
HETATM    1  C   UNL     1     -13.924  14.109  72.542  1.00  0.00    -0.433 C  
HETATM    2  O   UNL     1     -13.325  12.861  72.226  1.00  0.00    -0.534 OA 
ENDROOT
BRANCH   2   3
HETATM    3  C   UNL     1     -12.694  12.732  71.020  1.00  0.00    -0.243 A  
HETATM    4  C   UNL     1     -12.386  11.556  70.323  1.00  0.00    -0.273 A  
HETATM    5  C   UNL     1     -12.260  13.958  70.504  1.00  0.00    -0.443 A  
HETATM    6  C   UNL     1     -11.637  11.641  69.141  1.00  0.00    -0.378 A  
HETATM    7  C   UNL     1     -11.073  12.857  68.694  1.00  0.00    -0.307 A  
HETATM    8 BR   UNL     1     -11.048  15.768  68.720  1.00  0.00    -0.344 Br 
HETATM    9  C   UNL     1     -11.483  14.028  69.347  1.00  0.00    -0.290 A  
BRANCH   4  10
HETATM   10  O   UNL     1     -12.839  10.356  70.792  1.00  0.00    -0.358 OA 
HETATM   11  C   UNL     1     -11.933   9.636  71.629  1.00  0.00    -0.394 C  
ENDBRANCH   4  10
BRANCH   7  12
HETATM   12  C   UNL     1      -9.964  12.824  67.653  1.00  0.00    -0.217 C  
BRANCH  12  13
HETATM   13  N   UNL     1     -10.474  12.835  66.149  1.00  0.00    -0.263 N  
HETATM   14  O   UNL     1     -12.549  14.035  64.402  1.00  0.00    -0.651 OA 
HETATM   15  C   UNL     1     -11.958  12.349  66.075  1.00  0.00    -0.350 C  
HETATM   16  C   UNL     1     -12.570  12.637  64.690  1.00  0.00    -0.440 C  
HETATM   17  C   UNL     1     -10.494  14.326  65.690  1.00  0.00    -0.324 C  
HETATM   18  C   UNL     1     -11.214  14.541  64.358  1.00  0.00    -0.195 C  
BRANCH  13  19
HETATM   19  C   UNL     1      -9.552  11.954  65.238  1.00  0.00    -0.138 C  
BRANCH  19  20
HETATM   20  C   UNL     1      -9.455  10.509  65.771  1.00  0.00    -0.201 C  
BRANCH  20  21
HETATM   21  O   UNL     1      -8.436   9.723  65.162  1.00  0.00    -0.133 OA 
BRANCH  21  22
HETATM   22  C   UNL     1      -8.497   8.332  65.580  1.00  0.00    -0.161 C  
BRANCH  22  23
HETATM   23  C   UNL     1      -8.084   8.133  67.040  1.00  0.00    -0.108 C  
BRANCH  23  24
HETATM   24  C   UNL     1      -8.501   6.815  67.718  1.00  0.00    -0.122 C  
HETATM   25  C   UNL     1      -9.389   6.021  66.719  1.00  0.00    -0.148 C  
HETATM   26  C   UNL     1     -10.888   5.998  67.048  1.00  0.00    -0.413 C  
HETATM   27  C   UNL     1     -11.153   6.294  68.525  1.00  0.00    -0.397 C  
HETATM   28  C   UNL     1     -10.630   7.723  68.851  1.00  0.00    -0.168 C  
HETATM   29  C   UNL     1      -9.251   7.023  69.058  1.00  0.00    -0.137 C  
HETATM   30  C   UNL     1     -10.104   5.776  69.594  1.00  0.00    -0.276 C  
HETATM   31  C   UNL     1      -9.508   4.374  69.439  1.00  0.00    -0.251 C  
HETATM   32  C   UNL     1     -10.643   5.862  71.041  1.00  0.00    -0.312 C  
ENDBRANCH  23  24
ENDBRANCH  22  23
ENDBRANCH  21  22
ENDBRANCH  20  21
ENDBRANCH  19  20
ENDBRANCH  13  19
ENDBRANCH  12  13
ENDBRANCH   7  12
ENDBRANCH   2   3
TORSDOF 10
ENDMDL
MODEL       17
REMARK 921   NORMALIZED FREE ENERGY PREDICTED BY IDOCK:   -5.72 KCAL/MOL
REMARK 922        TOTAL FREE ENERGY PREDICTED BY IDOCK:  -10.34 KCAL/MOL
REMARK 923 INTER-LIGAND FREE ENERGY PREDICTED BY IDOCK:   -8.88 KCAL/MOL
REMARK 924 INTRA-LIGAND FREE ENERGY PREDICTED BY IDOCK:   -1.46 KCAL/MOL
REMARK 927      BINDING AFFINITY PREDICTED BY RF-SCORE:    0.00 PKD
ROOT
HETATM    1  C   UNL     1     -13.772  15.040  71.377  1.00  0.00    -0.473 C  
HETATM    2  O   UNL     1     -12.617  14.218  71.475  1.00  0.00    -0.322 OA 
ENDROOT
BRANCH   2   3
HETATM    3  C   UNL     1     -12.460  13.212  70.563  1.00  0.00    -0.248 A  
HETATM    4  C   UNL     1     -12.494  11.828  70.784  1.00  0.00    -0.312 A  
HETATM    5  C   UNL     1     -12.158  13.686  69.282  1.00  0.00    -0.360 A  
HETATM    6  C   UNL     1     -12.203  10.962  69.721  1.00  0.00    -0.381 A  
HETATM    7  C   UNL     1     -11.756  11.434  68.466  1.00  0.00    -0.386 A  
HETATM    8 BR   UNL     1     -11.537  13.603  66.537  1.00  0.00    -0.420 Br 
HETATM    9  C   UNL     1     -11.834  12.815  68.240  1.00  0.00    -0.312 A  
BRANCH   4  10
HETATM   10  O   UNL     1     -12.829  11.350  72.018  1.00  0.00    -0.359 OA 
HETATM   11  C   UNL     1     -13.231   9.981  72.064  1.00  0.00    -0.443 C  
ENDBRANCH   4  10
BRANCH   7  12
HETATM   12  C   UNL     1     -11.089  10.465  67.502  1.00  0.00    -0.267 C  
BRANCH  12  13
HETATM   13  N   UNL     1      -9.632  10.006  67.935  1.00  0.00    -0.144 N  
HETATM   14  O   UNL     1      -7.866   7.623  68.009  1.00  0.00    -0.116 OA 
HETATM   15  C   UNL     1      -9.716   8.874  69.010  1.00  0.00    -0.171 C  
HETATM   16  C   UNL     1      -8.344   8.204  69.223  1.00  0.00    -0.130 C  
HETATM   17  C   UNL     1      -8.973   9.350  66.682  1.00  0.00    -0.146 C  
HETATM   18  C   UNL     1      -7.671   8.612  66.997  1.00  0.00    -0.095 C  
BRANCH  13  19
HETATM   19  C   UNL     1      -8.796  11.220  68.468  1.00  0.00    -0.159 C  
BRANCH  19  20
HETATM   20  C   UNL     1      -8.210  12.050  67.308  1.00  0.00    -0.173 C  
BRANCH  20  21
HETATM   21  O   UNL     1      -7.044  12.794  67.643  1.00  0.00    -0.116 OA 
BRANCH  21  22
HETATM   22  C   UNL     1      -7.368  14.071  68.257  1.00  0.00    -0.115 C  
BRANCH  22  23
HETATM   23  C   UNL     1      -7.958  15.074  67.262  1.00  0.00    -0.234 C  
BRANCH  23  24
HETATM   24  C   UNL     1      -8.166  16.517  67.756  1.00  0.00    -0.173 C  
HETATM   25  C   UNL     1      -9.123  16.473  68.981  1.00  0.00    -0.229 C  
HETATM   26  C   UNL     1     -10.552  16.965  68.715  1.00  0.00    -0.355 C  
HETATM   27  C   UNL     1     -10.624  17.874  67.487  1.00  0.00    -0.386 C  
HETATM   28  C   UNL     1     -10.176  17.064  66.236  1.00  0.00    -0.336 C  
HETATM   29  C   UNL     1      -8.730  17.464  66.665  1.00  0.00    -0.286 C  
HETATM   30  C   UNL     1      -9.394  18.828  67.185  1.00  0.00    -0.315 C  
HETATM   31  C   UNL     1      -8.717  19.564  68.344  1.00  0.00    -0.389 C  
HETATM   32  C   UNL     1      -9.724  19.900  66.122  1.00  0.00    -0.527 C  
ENDBRANCH  23  24
ENDBRANCH  22  23
ENDBRANCH  21  22
ENDBRANCH  20  21
ENDBRANCH  19  20
ENDBRANCH  13  19
ENDBRANCH  12  13
ENDBRANCH   7  12
ENDBRANCH   2   3
TORSDOF 10
ENDMDL
MODEL       18
REMARK 921   NORMALIZED FREE ENERGY PREDICTED BY IDOCK:   -5.71 KCAL/MOL
REMARK 922        TOTAL FREE ENERGY PREDICTED BY IDOCK:  -10.33 KCAL/MOL
REMARK 923 INTER-LIGAND FREE ENERGY PREDICTED BY IDOCK:   -8.66 KCAL/MOL
REMARK 924 INTRA-LIGAND FREE ENERGY PREDICTED BY IDOCK:   -1.67 KCAL/MOL
REMARK 927      BINDING AFFINITY PREDICTED BY RF-SCORE:    0.00 PKD
ROOT
HETATM    1  C   UNL     1     -13.527   9.394  71.553  1.00  0.00    -0.373 C  
HETATM    2  O   UNL     1     -13.148  10.682  72.017  1.00  0.00    -0.481 OA 
ENDROOT
BRANCH   2   3
HETATM    3  C   UNL     1     -12.663  11.581  71.109  1.00  0.00    -0.356 A  
HETATM    4  C   UNL     1     -12.684  12.980  71.177  1.00  0.00    -0.283 A  
HETATM    5  C   UNL     1     -12.162  10.966  69.956  1.00  0.00    -0.422 A  
HETATM    6  C   UNL     1     -12.222  13.722  70.081  1.00  0.00    -0.425 A  
HETATM    7  C   UNL     1     -11.852  13.112  68.861  1.00  0.00    -0.361 A  
HETATM    8 BR   UNL     1     -11.000  10.742  67.401  1.00  0.00    -0.351 Br 
HETATM    9  C   UNL     1     -11.739  11.714  68.856  1.00  0.00    -0.334 A  
BRANCH   4  10
HETATM   10  O   UNL     1     -13.130  13.593  72.312  1.00  0.00    -0.388 OA 
HETATM   11  C   UNL     1     -14.391  14.254  72.205  1.00  0.00    -0.522 C  
ENDBRANCH   4  10
BRANCH   7  12
HETATM   12  C   UNL     1     -11.744  13.964  67.606  1.00  0.00    -0.368 C  
BRANCH  12  13
HETATM   13  N   UNL     1     -10.538  14.997  67.615  1.00  0.00    -0.262 N  
HETATM   14  O   UNL     1      -9.731  17.645  66.548  1.00  0.00    -0.280 OA 
HETATM   15  C   UNL     1     -10.026  15.247  66.158  1.00  0.00    -0.302 C  
HETATM   16  C   UNL     1      -9.074  16.458  66.102  1.00  0.00    -0.326 C  
HETATM   17  C   UNL     1     -11.115  16.363  68.099  1.00  0.00    -0.320 C  
HETATM   18  C   UNL     1     -10.148  17.532  67.909  1.00  0.00    -0.330 C  
BRANCH  13  19
HETATM   19  C   UNL     1      -9.374  14.493  68.536  1.00  0.00    -0.203 C  
BRANCH  19  20
HETATM   20  C   UNL     1      -8.494  13.456  67.809  1.00  0.00    -0.181 C  
BRANCH  20  21
HETATM   21  O   UNL     1      -8.051  12.378  68.628  1.00  0.00    -0.114 OA 
BRANCH  21  22
HETATM   22  C   UNL     1      -7.255  11.417  67.884  1.00  0.00    -0.084 C  
BRANCH  22  23
HETATM   23  C   UNL     1      -6.799  10.234  68.741  1.00  0.00    -0.058 C  
BRANCH  23  24
HETATM   24  C   UNL     1      -7.718   9.807  69.900  1.00  0.00    -0.162 C  
HETATM   25  C   UNL     1      -6.834   9.152  70.998  1.00  0.00    -0.095 C  
HETATM   26  C   UNL     1      -6.946   7.625  71.105  1.00  0.00    -0.050 C  
HETATM   27  C   UNL     1      -8.250   7.103  70.500  1.00  0.00    -0.125 C  
HETATM   28  C   UNL     1      -8.280   7.464  68.986  1.00  0.00    -0.128 C  
HETATM   29  C   UNL     1      -8.846   8.837  69.464  1.00  0.00    -0.144 C  
HETATM   30  C   UNL     1      -9.551   7.999  70.636  1.00  0.00    -0.172 C  
HETATM   31  C   UNL     1      -9.835   8.710  71.961  1.00  0.00    -0.396 C  
HETATM   32  C   UNL     1     -10.840   7.228  70.271  1.00  0.00    -0.264 C  
ENDBRANCH  23  24
ENDBRANCH  22  23
ENDBRANCH  21  22
ENDBRANCH  20  21
ENDBRANCH  19  20
ENDBRANCH  13  19
ENDBRANCH  12  13
ENDBRANCH   7  12
ENDBRANCH   2   3
TORSDOF 10
ENDMDL
MODEL       19
REMARK 921   NORMALIZED FREE ENERGY PREDICTED BY IDOCK:   -5.70 KCAL/MOL
REMARK 922        TOTAL FREE ENERGY PREDICTED BY IDOCK:  -10.30 KCAL/MOL
REMARK 923 INTER-LIGAND FREE ENERGY PREDICTED BY IDOCK:   -9.54 KCAL/MOL
REMARK 924 INTRA-LIGAND FREE ENERGY PREDICTED BY IDOCK:   -0.76 KCAL/MOL
REMARK 927      BINDING AFFINITY PREDICTED BY RF-SCORE:    0.00 PKD
ROOT
HETATM    1  C   UNL     1      -8.718  19.328  67.856  1.00  0.00    -0.313 C  
HETATM    2  O   UNL     1     -10.065  18.941  67.631  1.00  0.00    -0.329 OA 
ENDROOT
BRANCH   2   3
HETATM    3  C   UNL     1     -10.394  17.623  67.780  1.00  0.00    -0.365 A  
HETATM    4  C   UNL     1     -10.577  16.655  66.782  1.00  0.00    -0.214 A  
HETATM    5  C   UNL     1     -10.638  17.275  69.113  1.00  0.00    -0.209 A  
HETATM    6  C   UNL     1     -11.017  15.376  67.147  1.00  0.00    -0.317 A  
HETATM    7  C   UNL     1     -11.403  15.062  68.469  1.00  0.00    -0.317 A  
HETATM    8 BR   UNL     1     -11.306  15.656  71.318  1.00  0.00    -0.437 Br 
HETATM    9  C   UNL     1     -11.111  16.008  69.462  1.00  0.00    -0.333 A  
BRANCH   4  10
HETATM   10  O   UNL     1     -10.303  16.968  65.482  1.00  0.00    -0.585 OA 
HETATM   11  C   UNL     1     -11.163  16.376  64.507  1.00  0.00    -0.126 C  
ENDBRANCH   4  10
BRANCH   7  12
HETATM   12  C   UNL     1     -12.231  13.811  68.725  1.00  0.00    -0.186 C  
BRANCH  12  13
HETATM   13  N   UNL     1     -11.445  12.448  68.513  1.00  0.00    -0.280 N  
HETATM   14  O   UNL     1      -9.322  11.219  66.845  1.00  0.00    -0.173 OA 
HETATM   15  C   UNL     1     -11.658  11.919  67.057  1.00  0.00    -0.291 C  
HETATM   16  C   UNL     1     -10.675  10.777  66.730  1.00  0.00    -0.231 C  
HETATM   17  C   UNL     1      -9.925  12.781  68.623  1.00  0.00    -0.091 C  
HETATM   18  C   UNL     1      -9.018  11.632  68.177  1.00  0.00    -0.182 C  
BRANCH  13  19
HETATM   19  C   UNL     1     -11.888  11.375  69.566  1.00  0.00    -0.357 C  
BRANCH  19  20
HETATM   20  C   UNL     1     -12.452  12.039  70.839  1.00  0.00    -0.288 C  
BRANCH  20  21
HETATM   21  O   UNL     1     -13.011  11.129  71.781  1.00  0.00    -0.451 OA 
BRANCH  21  22
HETATM   22  C   UNL     1     -12.972   9.756  71.305  1.00  0.00    -0.380 C  
BRANCH  22  23
HETATM   23  C   UNL     1     -12.814   8.740  72.439  1.00  0.00    -0.434 C  
BRANCH  23  24
HETATM   24  C   UNL     1     -11.449   8.039  72.572  1.00  0.00    -0.471 C  
HETATM   25  C   UNL     1     -10.392   8.899  71.824  1.00  0.00    -0.426 C  
HETATM   26  C   UNL     1      -9.911   8.326  70.483  1.00  0.00    -0.198 C  
HETATM   27  C   UNL     1     -10.148   6.819  70.388  1.00  0.00    -0.200 C  
HETATM   28  C   UNL     1     -11.677   6.545  70.484  1.00  0.00    -0.438 C  
HETATM   29  C   UNL     1     -11.448   6.588  72.027  1.00  0.00    -0.342 C  
HETATM   30  C   UNL     1     -10.011   5.952  71.708  1.00  0.00    -0.200 C  
HETATM   31  C   UNL     1      -8.862   6.242  72.677  1.00  0.00    -0.126 C  
HETATM   32  C   UNL     1      -9.963   4.435  71.416  1.00  0.00    -0.248 C  
ENDBRANCH  23  24
ENDBRANCH  22  23
ENDBRANCH  21  22
ENDBRANCH  20  21
ENDBRANCH  19  20
ENDBRANCH  13  19
ENDBRANCH  12  13
ENDBRANCH   7  12
ENDBRANCH   2   3
TORSDOF 10
ENDMDL
MODEL       20
REMARK 921   NORMALIZED FREE ENERGY PREDICTED BY IDOCK:   -5.68 KCAL/MOL
REMARK 922        TOTAL FREE ENERGY PREDICTED BY IDOCK:  -10.28 KCAL/MOL
REMARK 923 INTER-LIGAND FREE ENERGY PREDICTED BY IDOCK:   -9.02 KCAL/MOL
REMARK 924 INTRA-LIGAND FREE ENERGY PREDICTED BY IDOCK:   -1.27 KCAL/MOL
REMARK 927      BINDING AFFINITY PREDICTED BY RF-SCORE:    0.00 PKD
ROOT
HETATM    1  C   UNL     1     -10.918  16.671  68.412  1.00  0.00    -0.345 C  
HETATM    2  O   UNL     1     -12.012  15.880  68.854  1.00  0.00    -0.370 OA 
ENDROOT
BRANCH   2   3
HETATM    3  C   UNL     1     -11.960  14.530  68.644  1.00  0.00    -0.285 A  
HETATM    4  C   UNL     1     -11.863  13.506  69.596  1.00  0.00    -0.336 A  
HETATM    5  C   UNL     1     -11.931  14.196  67.285  1.00  0.00    -0.449 A  
HETATM    6  C   UNL     1     -11.719  12.182  69.160  1.00  0.00    -0.384 A  
HETATM    7  C   UNL     1     -11.542  11.854  67.797  1.00  0.00    -0.393 A  
HETATM    8 BR   UNL     1     -11.823  12.570  64.989  1.00  0.00    -0.462 Br 
HETATM    9  C   UNL     1     -11.749  12.878  66.862  1.00  0.00    -0.382 A  
BRANCH   4  10
HETATM   10  O   UNL     1     -11.933  13.812  70.925  1.00  0.00    -0.312 OA 
HETATM   11  C   UNL     1     -13.125  13.398  71.594  1.00  0.00    -0.375 C  
ENDBRANCH   4  10
BRANCH   7  12
HETATM   12  C   UNL     1     -11.003  10.481  67.426  1.00  0.00    -0.288 C  
BRANCH  12  13
HETATM   13  N   UNL     1      -9.421  10.357  67.489  1.00  0.00    -0.148 N  
HETATM   14  O   UNL     1      -7.029  11.652  68.673  1.00  0.00    -0.074 OA 
HETATM   15  C   UNL     1      -8.752  11.657  66.935  1.00  0.00    -0.185 C  
HETATM   16  C   UNL     1      -7.246  11.692  67.262  1.00  0.00    -0.137 C  
HETATM   17  C   UNL     1      -9.032  10.293  68.999  1.00  0.00    -0.172 C  
HETATM   18  C   UNL     1      -7.530  10.444  69.246  1.00  0.00    -0.120 C  
BRANCH  13  19
HETATM   19  C   UNL     1      -8.925   9.096  66.702  1.00  0.00    -0.137 C  
BRANCH  19  20
HETATM   20  C   UNL     1      -9.999   7.989  66.683  1.00  0.00    -0.256 C  
BRANCH  20  21
HETATM   21  O   UNL     1      -9.527   6.702  67.068  1.00  0.00    -0.134 OA 
BRANCH  21  22
HETATM   22  C   UNL     1     -10.599   5.852  67.560  1.00  0.00    -0.273 C  
BRANCH  22  23
HETATM   23  C   UNL     1     -10.365   5.376  68.996  1.00  0.00    -0.282 C  
BRANCH  23  24
HETATM   24  C   UNL     1      -9.989   6.442  70.041  1.00  0.00    -0.200 C  
HETATM   25  C   UNL     1      -9.642   5.712  71.369  1.00  0.00    -0.188 C  
HETATM   26  C   UNL     1     -10.701   5.824  72.475  1.00  0.00    -0.279 C  
HETATM   27  C   UNL     1     -11.619   7.029  72.267  1.00  0.00    -0.307 C  
HETATM   28  C   UNL     1     -12.378   6.853  70.919  1.00  0.00    -0.365 C  
HETATM   29  C   UNL     1     -11.106   7.491  70.278  1.00  0.00    -0.263 C  
HETATM   30  C   UNL     1     -11.002   8.343  71.632  1.00  0.00    -0.345 C  
HETATM   31  C   UNL     1      -9.617   8.813  72.084  1.00  0.00    -0.325 C  
HETATM   32  C   UNL     1     -11.941   9.563  71.769  1.00  0.00    -0.443 C  
ENDBRANCH  23  24
ENDBRANCH  22  23
ENDBRANCH  21  22
ENDBRANCH  20  21
ENDBRANCH  19  20
ENDBRANCH  13  19
ENDBRANCH  12  13
ENDBRANCH   7  12
ENDBRANCH   2   3
TORSDOF 10
ENDMDL
MODEL       21
REMARK 921   NORMALIZED FREE ENERGY PREDICTED BY IDOCK:   -5.68 KCAL/MOL
REMARK 922        TOTAL FREE ENERGY PREDICTED BY IDOCK:  -10.28 KCAL/MOL
REMARK 923 INTER-LIGAND FREE ENERGY PREDICTED BY IDOCK:   -8.76 KCAL/MOL
REMARK 924 INTRA-LIGAND FREE ENERGY PREDICTED BY IDOCK:   -1.51 KCAL/MOL
REMARK 927      BINDING AFFINITY PREDICTED BY RF-SCORE:    0.00 PKD
ROOT
HETATM    1  C   UNL     1      -6.932   7.880  63.990  1.00  0.00    -0.063 C  
HETATM    2  O   UNL     1      -8.274   7.805  64.449  1.00  0.00    -0.124 OA 
ENDROOT
BRANCH   2   3
HETATM    3  C   UNL     1      -8.784   8.871  65.135  1.00  0.00    -0.178 A  
HETATM    4  C   UNL     1      -8.840   9.066  66.522  1.00  0.00    -0.135 A  
HETATM    5  C   UNL     1      -9.378   9.819  64.294  1.00  0.00    -0.253 A  
HETATM    6  C   UNL     1      -9.505  10.192  67.025  1.00  0.00    -0.197 A  
HETATM    7  C   UNL     1     -10.229  11.074  66.192  1.00  0.00    -0.298 A  
HETATM    8 BR   UNL     1     -10.741  12.166  63.542  1.00  0.00    -0.493 Br 
HETATM    9  C   UNL     1     -10.070  10.918  64.807  1.00  0.00    -0.321 A  
BRANCH   4  10
HETATM   10  O   UNL     1      -8.228   8.171  67.353  1.00  0.00    -0.119 OA 
HETATM   11  C   UNL     1      -7.369   8.734  68.344  1.00  0.00    -0.086 C  
ENDBRANCH   4  10
BRANCH   7  12
HETATM   12  C   UNL     1     -11.238  12.026  66.815  1.00  0.00    -0.322 C  
BRANCH  12  13
HETATM   13  N   UNL     1     -10.634  13.428  67.252  1.00  0.00    -0.254 N  
HETATM   14  O   UNL     1      -9.471  15.916  66.130  1.00  0.00    -0.285 OA 
HETATM   15  C   UNL     1      -9.161  13.567  66.746  1.00  0.00    -0.240 C  
HETATM   16  C   UNL     1      -8.658  15.018  66.887  1.00  0.00    -0.249 C  
HETATM   17  C   UNL     1     -11.445  14.526  66.496  1.00  0.00    -0.362 C  
HETATM   18  C   UNL     1     -10.821  15.919  66.595  1.00  0.00    -0.213 C  
BRANCH  13  19
HETATM   19  C   UNL     1     -10.709  13.611  68.807  1.00  0.00    -0.244 C  
BRANCH  19  20
HETATM   20  C   UNL     1     -12.127  13.314  69.338  1.00  0.00    -0.248 C  
BRANCH  20  21
HETATM   21  O   UNL     1     -12.162  12.505  70.509  1.00  0.00    -0.365 OA 
BRANCH  21  22
HETATM   22  C   UNL     1     -12.238  11.089  70.192  1.00  0.00    -0.344 C  
BRANCH  22  23
HETATM   23  C   UNL     1     -12.401  10.211  71.436  1.00  0.00    -0.515 C  
BRANCH  23  24
HETATM   24  C   UNL     1     -11.303   9.167  71.711  1.00  0.00    -0.451 C  
HETATM   25  C   UNL     1     -10.522   8.931  70.388  1.00  0.00    -0.245 C  
HETATM   26  C   UNL     1     -10.812   7.598  69.684  1.00  0.00    -0.195 C  
HETATM   27  C   UNL     1     -11.387   6.557  70.646  1.00  0.00    -0.409 C  
HETATM   28  C   UNL     1     -12.738   7.086  71.207  1.00  0.00    -0.400 C  
HETATM   29  C   UNL     1     -11.855   7.826  72.259  1.00  0.00    -0.378 C  
HETATM   30  C   UNL     1     -10.877   6.560  72.147  1.00  0.00    -0.264 C  
HETATM   31  C   UNL     1      -9.388   6.770  72.431  1.00  0.00    -0.146 C  
HETATM   32  C   UNL     1     -11.290   5.282  72.913  1.00  0.00    -0.368 C  
ENDBRANCH  23  24
ENDBRANCH  22  23
ENDBRANCH  21  22
ENDBRANCH  20  21
ENDBRANCH  19  20
ENDBRANCH  13  19
ENDBRANCH  12  13
ENDBRANCH   7  12
ENDBRANCH   2   3
TORSDOF 10
ENDMDL
MODEL       22
REMARK 921   NORMALIZED FREE ENERGY PREDICTED BY IDOCK:   -5.68 KCAL/MOL
REMARK 922        TOTAL FREE ENERGY PREDICTED BY IDOCK:  -10.27 KCAL/MOL
REMARK 923 INTER-LIGAND FREE ENERGY PREDICTED BY IDOCK:   -8.94 KCAL/MOL
REMARK 924 INTRA-LIGAND FREE ENERGY PREDICTED BY IDOCK:   -1.33 KCAL/MOL
REMARK 927      BINDING AFFINITY PREDICTED BY RF-SCORE:    0.00 PKD
ROOT
HETATM    1  C   UNL     1     -10.926   6.741  72.872  1.00  0.00    -0.263 C  
HETATM    2  O   UNL     1     -11.789   6.926  71.760  1.00  0.00    -0.284 OA 
ENDROOT
BRANCH   2   3
HETATM    3  C   UNL     1     -11.272   7.486  70.625  1.00  0.00    -0.268 A  
HETATM    4  C   UNL     1     -11.029   8.840  70.358  1.00  0.00    -0.235 A  
HETATM    5  C   UNL     1     -11.046   6.545  69.614  1.00  0.00    -0.435 A  
HETATM    6  C   UNL     1     -10.587   9.214  69.081  1.00  0.00    -0.224 A  
HETATM    7  C   UNL     1     -10.497   8.290  68.016  1.00  0.00    -0.239 A  
HETATM    8 BR   UNL     1     -10.287   5.535  67.097  1.00  0.00    -0.322 Br 
HETATM    9  C   UNL     1     -10.641   6.932  68.335  1.00  0.00    -0.210 A  
BRANCH   4  10
HETATM   10  O   UNL     1     -11.204   9.764  71.347  1.00  0.00    -0.366 OA 
HETATM   11  C   UNL     1     -12.401  10.539  71.266  1.00  0.00    -0.397 C  
ENDBRANCH   4  10
BRANCH   7  12
HETATM   12  C   UNL     1     -10.400   8.807  66.589  1.00  0.00    -0.228 C  
BRANCH  12  13
HETATM   13  N   UNL     1      -8.939   9.241  66.144  1.00  0.00    -0.155 N  
HETATM   14  O   UNL     1      -6.138   8.265  66.081  1.00  0.00    -0.043 OA 
HETATM   15  C   UNL     1      -7.974   9.239  67.374  1.00  0.00    -0.106 C  
HETATM   16  C   UNL     1      -6.503   9.355  66.928  1.00  0.00    -0.067 C  
HETATM   17  C   UNL     1      -8.408   8.127  65.189  1.00  0.00    -0.143 C  
HETATM   18  C   UNL     1      -6.915   8.251  64.882  1.00  0.00    -0.074 C  
BRANCH  13  19
HETATM   19  C   UNL     1      -8.957  10.646  65.451  1.00  0.00    -0.189 C  
BRANCH  19  20
HETATM   20  C   UNL     1      -9.665  10.588  64.082  1.00  0.00    -0.327 C  
BRANCH  20  21
HETATM   21  O   UNL     1     -10.941  11.219  64.050  1.00  0.00    -0.377 OA 
BRANCH  21  22
HETATM   22  C   UNL     1     -10.833  12.662  63.908  1.00  0.00    -0.429 C  
BRANCH  22  23
HETATM   23  C   UNL     1     -12.012  13.409  64.537  1.00  0.00    -0.452 C  
BRANCH  23  24
HETATM   24  C   UNL     1     -11.708  14.316  65.744  1.00  0.00    -0.359 C  
HETATM   25  C   UNL     1     -10.174  14.566  65.783  1.00  0.00    -0.354 C  
HETATM   26  C   UNL     1      -9.415  13.814  66.885  1.00  0.00    -0.265 C  
HETATM   27  C   UNL     1     -10.337  13.396  68.030  1.00  0.00    -0.242 C  
HETATM   28  C   UNL     1     -11.420  12.426  67.472  1.00  0.00    -0.410 C  
HETATM   29  C   UNL     1     -12.193  13.727  67.093  1.00  0.00    -0.352 C  
HETATM   30  C   UNL     1     -11.539  14.355  68.416  1.00  0.00    -0.351 C  
HETATM   31  C   UNL     1     -11.305  15.867  68.457  1.00  0.00    -0.374 C  
HETATM   32  C   UNL     1     -12.186  13.977  69.768  1.00  0.00    -0.396 C  
ENDBRANCH  23  24
ENDBRANCH  22  23
ENDBRANCH  21  22
ENDBRANCH  20  21
ENDBRANCH  19  20
ENDBRANCH  13  19
ENDBRANCH  12  13
ENDBRANCH   7  12
ENDBRANCH   2   3
TORSDOF 10
ENDMDL
MODEL       23
REMARK 921   NORMALIZED FREE ENERGY PREDICTED BY IDOCK:   -5.63 KCAL/MOL
REMARK 922        TOTAL FREE ENERGY PREDICTED BY IDOCK:  -10.19 KCAL/MOL
REMARK 923 INTER-LIGAND FREE ENERGY PREDICTED BY IDOCK:   -9.55 KCAL/MOL
REMARK 924 INTRA-LIGAND FREE ENERGY PREDICTED BY IDOCK:   -0.64 KCAL/MOL
REMARK 927      BINDING AFFINITY PREDICTED BY RF-SCORE:    0.00 PKD
ROOT
HETATM    1  C   UNL     1     -10.925   6.689  67.063  1.00  0.00    -0.393 C  
HETATM    2  O   UNL     1      -9.887   7.406  66.411  1.00  0.00    -0.165 OA 
ENDROOT
BRANCH   2   3
HETATM    3  C   UNL     1      -9.981   8.768  66.350  1.00  0.00    -0.275 A  
HETATM    4  C   UNL     1      -9.515   9.627  65.345  1.00  0.00    -0.278 A  
HETATM    5  C   UNL     1     -10.561   9.321  67.497  1.00  0.00    -0.329 A  
HETATM    6  C   UNL     1      -9.623  11.012  65.528  1.00  0.00    -0.263 A  
HETATM    7  C   UNL     1     -10.071  11.578  66.742  1.00  0.00    -0.245 A  
HETATM    8 BR   UNL     1     -11.526  11.303  69.250  1.00  0.00    -0.407 Br 
HETATM    9  C   UNL     1     -10.630  10.703  67.686  1.00  0.00    -0.246 A  
BRANCH   4  10
HETATM   10  O   UNL     1      -8.986   9.101  64.201  1.00  0.00    -0.158 OA 
HETATM   11  C   UNL     1      -9.279   9.812  62.998  1.00  0.00    -0.194 C  
ENDBRANCH   4  10
BRANCH   7  12
HETATM   12  C   UNL     1      -9.798  13.047  67.025  1.00  0.00    -0.238 C  
BRANCH  12  13
HETATM   13  N   UNL     1     -10.888  14.043  66.440  1.00  0.00    -0.297 N  
HETATM   14  O   UNL     1     -12.506  14.556  64.007  1.00  0.00    -0.778 OA 
HETATM   15  C   UNL     1     -10.349  14.740  65.148  1.00  0.00    -0.410 C  
HETATM   16  C   UNL     1     -11.479  15.469  64.395  1.00  0.00    -0.259 C  
HETATM   17  C   UNL     1     -12.095  13.170  65.976  1.00  0.00    -0.436 C  
HETATM   18  C   UNL     1     -13.118  13.943  65.143  1.00  0.00    -0.088 C  
BRANCH  13  19
HETATM   19  C   UNL     1     -11.310  15.105  67.512  1.00  0.00    -0.320 C  
BRANCH  19  20
HETATM   20  C   UNL     1     -10.328  16.294  67.540  1.00  0.00    -0.288 C  
BRANCH  20  21
HETATM   21  O   UNL     1     -10.910  17.549  67.203  1.00  0.00    -0.242 OA 
BRANCH  21  22
HETATM   22  C   UNL     1     -10.372  18.634  68.006  1.00  0.00    -0.377 C  
BRANCH  22  23
HETATM   23  C   UNL     1      -9.363  19.494  67.241  1.00  0.00    -0.403 C  
BRANCH  23  24
HETATM   24  C   UNL     1      -8.130  19.993  68.017  1.00  0.00    -0.270 C  
HETATM   25  C   UNL     1      -7.147  20.633  66.996  1.00  0.00    -0.375 C  
HETATM   26  C   UNL     1      -5.897  19.800  66.679  1.00  0.00    -0.170 C  
HETATM   27  C   UNL     1      -5.593  18.783  67.780  1.00  0.00    -0.178 C  
HETATM   28  C   UNL     1      -6.790  17.795  67.893  1.00  0.00    -0.193 C  
HETATM   29  C   UNL     1      -7.419  18.877  68.824  1.00  0.00    -0.360 C  
HETATM   30  C   UNL     1      -5.912  19.183  69.280  1.00  0.00    -0.276 C  
HETATM   31  C   UNL     1      -5.578  20.597  69.765  1.00  0.00    -0.394 C  
HETATM   32  C   UNL     1      -5.275  18.212  70.300  1.00  0.00    -0.246 C  
ENDBRANCH  23  24
ENDBRANCH  22  23
ENDBRANCH  21  22
ENDBRANCH  20  21
ENDBRANCH  19  20
ENDBRANCH  13  19
ENDBRANCH  12  13
ENDBRANCH   7  12
ENDBRANCH   2   3
TORSDOF 10
ENDMDL
MODEL       24
REMARK 921   NORMALIZED FREE ENERGY PREDICTED BY IDOCK:   -5.61 KCAL/MOL
REMARK 922        TOTAL FREE ENERGY PREDICTED BY IDOCK:  -10.16 KCAL/MOL
REMARK 923 INTER-LIGAND FREE ENERGY PREDICTED BY IDOCK:   -9.64 KCAL/MOL
REMARK 924 INTRA-LIGAND FREE ENERGY PREDICTED BY IDOCK:   -0.52 KCAL/MOL
REMARK 927      BINDING AFFINITY PREDICTED BY RF-SCORE:    0.00 PKD
ROOT
HETATM    1  C   UNL     1     -10.235   6.623  74.041  1.00  0.00    -0.369 C  
HETATM    2  O   UNL     1     -11.265   7.255  73.296  1.00  0.00    -0.290 OA 
ENDROOT
BRANCH   2   3
HETATM    3  C   UNL     1     -10.914   8.221  72.395  1.00  0.00    -0.368 A  
HETATM    4  C   UNL     1     -11.736   9.175  71.780  1.00  0.00    -0.386 A  
HETATM    5  C   UNL     1      -9.566   8.150  72.026  1.00  0.00    -0.284 A  
HETATM    6  C   UNL     1     -11.189  10.015  70.800  1.00  0.00    -0.428 A  
HETATM    7  C   UNL     1      -9.871   9.851  70.319  1.00  0.00    -0.236 A  
HETATM    8 BR   UNL     1      -7.175   8.818  70.696  1.00  0.00    -0.076 Br 
HETATM    9  C   UNL     1      -9.041   8.966  71.022  1.00  0.00    -0.243 A  
BRANCH   4  10
HETATM   10  O   UNL     1     -13.043   9.285  72.161  1.00  0.00    -0.386 OA 
HETATM   11  C   UNL     1     -13.954   8.398  71.511  1.00  0.00    -0.349 C  
ENDBRANCH   4  10
BRANCH   7  12
HETATM   12  C   UNL     1      -9.469  10.511  69.008  1.00  0.00    -0.201 C  
BRANCH  12  13
HETATM   13  N   UNL     1      -9.688   9.604  67.723  1.00  0.00    -0.143 N  
HETATM   14  O   UNL     1      -9.191   6.867  66.692  1.00  0.00    -0.147 OA 
HETATM   15  C   UNL     1      -8.313   9.100  67.174  1.00  0.00    -0.117 C  
HETATM   16  C   UNL     1      -8.506   7.985  66.127  1.00  0.00    -0.135 C  
HETATM   17  C   UNL     1     -10.447   8.326  68.195  1.00  0.00    -0.171 C  
HETATM   18  C   UNL     1     -10.501   7.225  67.134  1.00  0.00    -0.324 C  
BRANCH  13  19
HETATM   19  C   UNL     1     -10.479  10.381  66.616  1.00  0.00    -0.215 C  
BRANCH  19  20
HETATM   20  C   UNL     1     -10.630  11.873  66.978  1.00  0.00    -0.227 C  
BRANCH  20  21
HETATM   21  O   UNL     1     -11.976  12.333  67.043  1.00  0.00    -0.576 OA 
BRANCH  21  22
HETATM   22  C   UNL     1     -12.095  13.731  66.665  1.00  0.00    -0.429 C  
BRANCH  22  23
HETATM   23  C   UNL     1     -11.067  14.624  67.365  1.00  0.00    -0.331 C  
BRANCH  23  24
HETATM   24  C   UNL     1     -10.855  16.037  66.792  1.00  0.00    -0.195 C  
HETATM   25  C   UNL     1      -9.612  15.996  65.859  1.00  0.00    -0.370 C  
HETATM   26  C   UNL     1      -8.346  16.656  66.424  1.00  0.00    -0.353 C  
HETATM   27  C   UNL     1      -8.671  17.662  67.528  1.00  0.00    -0.234 C  
HETATM   28  C   UNL     1      -9.363  16.911  68.703  1.00  0.00    -0.268 C  
HETATM   29  C   UNL     1     -10.674  17.122  67.884  1.00  0.00    -0.355 C  
HETATM   30  C   UNL     1     -10.010  18.502  67.409  1.00  0.00    -0.351 C  
HETATM   31  C   UNL     1     -10.418  19.068  66.046  1.00  0.00    -0.530 C  
HETATM   32  C   UNL     1     -10.056  19.684  68.403  1.00  0.00    -0.557 C  
ENDBRANCH  23  24
ENDBRANCH  22  23
ENDBRANCH  21  22
ENDBRANCH  20  21
ENDBRANCH  19  20
ENDBRANCH  13  19
ENDBRANCH  12  13
ENDBRANCH   7  12
ENDBRANCH   2   3
TORSDOF 10
ENDMDL
MODEL       25
REMARK 921   NORMALIZED FREE ENERGY PREDICTED BY IDOCK:   -5.60 KCAL/MOL
REMARK 922        TOTAL FREE ENERGY PREDICTED BY IDOCK:  -10.15 KCAL/MOL
REMARK 923 INTER-LIGAND FREE ENERGY PREDICTED BY IDOCK:   -9.24 KCAL/MOL
REMARK 924 INTRA-LIGAND FREE ENERGY PREDICTED BY IDOCK:   -0.91 KCAL/MOL
REMARK 927      BINDING AFFINITY PREDICTED BY RF-SCORE:    0.00 PKD
ROOT
HETATM    1  C   UNL     1     -10.172   6.102  66.640  1.00  0.00    -0.178 C  
HETATM    2  O   UNL     1      -9.098   6.968  66.304  1.00  0.00    -0.162 OA 
ENDROOT
BRANCH   2   3
HETATM    3  C   UNL     1      -9.361   8.302  66.164  1.00  0.00    -0.188 A  
HETATM    4  C   UNL     1      -8.942   9.167  65.144  1.00  0.00    -0.189 A  
HETATM    5  C   UNL     1     -10.081   8.826  67.244  1.00  0.00    -0.301 A  
HETATM    6  C   UNL     1      -9.238  10.534  65.246  1.00  0.00    -0.238 A  
HETATM    7  C   UNL     1      -9.835  11.090  66.399  1.00  0.00    -0.252 A  
HETATM    8 BR   UNL     1     -11.405  10.743  68.825  1.00  0.00    -0.370 Br 
HETATM    9  C   UNL     1     -10.338  10.194  67.353  1.00  0.00    -0.238 A  
BRANCH   4  10
HETATM   10  O   UNL     1      -8.275   8.663  64.064  1.00  0.00    -0.159 OA 
HETATM   11  C   UNL     1      -8.549   9.299  62.815  1.00  0.00    -0.222 C  
ENDBRANCH   4  10
BRANCH   7  12
HETATM   12  C   UNL     1      -9.770  12.594  66.617  1.00  0.00    -0.249 C  
BRANCH  12  13
HETATM   13  N   UNL     1     -11.048  13.388  66.108  1.00  0.00    -0.287 N  
HETATM   14  O   UNL     1     -12.510  14.102  63.627  1.00  0.00    -0.819 OA 
HETATM   15  C   UNL     1     -10.623  14.529  65.126  1.00  0.00    -0.410 C  
HETATM   16  C   UNL     1     -11.844  15.111  64.387  1.00  0.00    -0.305 C  
HETATM   17  C   UNL     1     -11.889  12.389  65.254  1.00  0.00    -0.399 C  
HETATM   18  C   UNL     1     -13.014  13.062  64.466  1.00  0.00    -0.028 C  
BRANCH  13  19
HETATM   19  C   UNL     1     -11.867  13.965  67.312  1.00  0.00    -0.407 C  
BRANCH  19  20
HETATM   20  C   UNL     1     -11.001  14.898  68.184  1.00  0.00    -0.272 C  
BRANCH  20  21
HETATM   21  O   UNL     1     -11.670  16.070  68.639  1.00  0.00    -0.382 OA 
BRANCH  21  22
HETATM   22  C   UNL     1     -10.778  17.215  68.707  1.00  0.00    -0.289 C  
BRANCH  22  23
HETATM   23  C   UNL     1     -10.535  17.860  67.340  1.00  0.00    -0.390 C  
BRANCH  23  24
HETATM   24  C   UNL     1      -9.109  17.779  66.765  1.00  0.00    -0.273 C  
HETATM   25  C   UNL     1      -8.156  17.326  67.907  1.00  0.00    -0.210 C  
HETATM   26  C   UNL     1      -7.249  18.424  68.478  1.00  0.00    -0.298 C  
HETATM   27  C   UNL     1      -7.072  19.585  67.500  1.00  0.00    -0.245 C  
HETATM   28  C   UNL     1      -8.462  20.231  67.232  1.00  0.00    -0.415 C  
HETATM   29  C   UNL     1      -8.618  19.116  66.152  1.00  0.00    -0.233 C  
HETATM   30  C   UNL     1      -7.034  19.262  65.949  1.00  0.00    -0.300 C  
HETATM   31  C   UNL     1      -6.253  18.040  65.458  1.00  0.00    -0.210 C  
HETATM   32  C   UNL     1      -6.541  20.461  65.107  1.00  0.00    -0.327 C  
ENDBRANCH  23  24
ENDBRANCH  22  23
ENDBRANCH  21  22
ENDBRANCH  20  21
ENDBRANCH  19  20
ENDBRANCH  13  19
ENDBRANCH  12  13
ENDBRANCH   7  12
ENDBRANCH   2   3
TORSDOF 10
ENDMDL
MODEL       26
REMARK 921   NORMALIZED FREE ENERGY PREDICTED BY IDOCK:   -5.60 KCAL/MOL
REMARK 922        TOTAL FREE ENERGY PREDICTED BY IDOCK:  -10.15 KCAL/MOL
REMARK 923 INTER-LIGAND FREE ENERGY PREDICTED BY IDOCK:   -8.69 KCAL/MOL
REMARK 924 INTRA-LIGAND FREE ENERGY PREDICTED BY IDOCK:   -1.46 KCAL/MOL
REMARK 927      BINDING AFFINITY PREDICTED BY RF-SCORE:    0.00 PKD
ROOT
HETATM    1  C   UNL     1     -12.840  15.291  71.033  1.00  0.00    -0.440 C  
HETATM    2  O   UNL     1     -12.400  13.966  71.293  1.00  0.00    -0.352 OA 
ENDROOT
BRANCH   2   3
HETATM    3  C   UNL     1     -12.238  13.118  70.234  1.00  0.00    -0.306 A  
HETATM    4  C   UNL     1     -12.147  11.719  70.248  1.00  0.00    -0.342 A  
HETATM    5  C   UNL     1     -12.075  13.795  69.020  1.00  0.00    -0.359 A  
HETATM    6  C   UNL     1     -11.875  11.042  69.051  1.00  0.00    -0.399 A  
HETATM    7  C   UNL     1     -11.566  11.726  67.854  1.00  0.00    -0.377 A  
HETATM    8 BR   UNL     1     -11.669  14.159  66.258  1.00  0.00    -0.420 Br 
HETATM    9  C   UNL     1     -11.768  13.114  67.841  1.00  0.00    -0.357 A  
BRANCH   4  10
HETATM   10  O   UNL     1     -12.345  11.042  71.417  1.00  0.00    -0.328 OA 
HETATM   11  C   UNL     1     -13.248   9.938  71.348  1.00  0.00    -0.400 C  
ENDBRANCH   4  10
BRANCH   7  12
HETATM   12  C   UNL     1     -10.904  10.968  66.713  1.00  0.00    -0.251 C  
BRANCH  12  13
HETATM   13  N   UNL     1      -9.392  10.563  66.984  1.00  0.00    -0.154 N  
HETATM   14  O   UNL     1      -6.622  11.591  66.714  1.00  0.00    -0.134 OA 
HETATM   15  C   UNL     1      -8.579  10.578  65.648  1.00  0.00    -0.175 C  
HETATM   16  C   UNL     1      -7.064  10.491  65.918  1.00  0.00    -0.134 C  
HETATM   17  C   UNL     1      -8.774  11.691  67.867  1.00  0.00    -0.154 C  
HETATM   18  C   UNL     1      -7.253  11.595  67.996  1.00  0.00    -0.083 C  
BRANCH  13  19
HETATM   19  C   UNL     1      -9.302   9.161  67.676  1.00  0.00    -0.135 C  
BRANCH  19  20
HETATM   20  C   UNL     1      -9.926   8.059  66.795  1.00  0.00    -0.274 C  
BRANCH  20  21
HETATM   21  O   UNL     1     -11.055   7.410  67.371  1.00  0.00    -0.185 OA 
BRANCH  21  22
HETATM   22  C   UNL     1     -10.672   6.276  68.195  1.00  0.00    -0.293 C  
BRANCH  22  23
HETATM   23  C   UNL     1     -11.323   6.303  69.580  1.00  0.00    -0.492 C  
BRANCH  23  24
HETATM   24  C   UNL     1     -10.407   6.063  70.795  1.00  0.00    -0.280 C  
HETATM   25  C   UNL     1     -11.291   6.085  72.074  1.00  0.00    -0.345 C  
HETATM   26  C   UNL     1     -11.154   7.343  72.943  1.00  0.00    -0.397 C  
HETATM   27  C   UNL     1      -9.836   8.073  72.688  1.00  0.00    -0.347 C  
HETATM   28  C   UNL     1      -9.798   8.534  71.201  1.00  0.00    -0.263 C  
HETATM   29  C   UNL     1      -9.260   7.098  70.914  1.00  0.00    -0.152 C  
HETATM   30  C   UNL     1      -8.552   7.209  72.348  1.00  0.00    -0.133 C  
HETATM   31  C   UNL     1      -8.292   5.916  73.127  1.00  0.00    -0.116 C  
HETATM   32  C   UNL     1      -7.246   8.033  72.426  1.00  0.00    -0.109 C  
ENDBRANCH  23  24
ENDBRANCH  22  23
ENDBRANCH  21  22
ENDBRANCH  20  21
ENDBRANCH  19  20
ENDBRANCH  13  19
ENDBRANCH  12  13
ENDBRANCH   7  12
ENDBRANCH   2   3
TORSDOF 10
ENDMDL
MODEL       27
REMARK 921   NORMALIZED FREE ENERGY PREDICTED BY IDOCK:   -5.59 KCAL/MOL
REMARK 922        TOTAL FREE ENERGY PREDICTED BY IDOCK:  -10.13 KCAL/MOL
REMARK 923 INTER-LIGAND FREE ENERGY PREDICTED BY IDOCK:   -9.37 KCAL/MOL
REMARK 924 INTRA-LIGAND FREE ENERGY PREDICTED BY IDOCK:   -0.76 KCAL/MOL
REMARK 927      BINDING AFFINITY PREDICTED BY RF-SCORE:    0.00 PKD
ROOT
HETATM    1  C   UNL     1      -6.773  19.657  69.475  1.00  0.00    -0.344 C  
HETATM    2  O   UNL     1      -7.903  19.660  68.615  1.00  0.00    -0.346 OA 
ENDROOT
BRANCH   2   3
HETATM    3  C   UNL     1      -8.541  18.474  68.381  1.00  0.00    -0.331 A  
HETATM    4  C   UNL     1      -9.877  18.266  68.013  1.00  0.00    -0.330 A  
HETATM    5  C   UNL     1      -7.726  17.364  68.629  1.00  0.00    -0.273 A  
HETATM    6  C   UNL     1     -10.363  16.953  67.924  1.00  0.00    -0.332 A  
HETATM    7  C   UNL     1      -9.589  15.837  68.312  1.00  0.00    -0.201 A  
HETATM    8 BR   UNL     1      -6.981  14.657  68.843  1.00  0.00    -0.120 Br 
HETATM    9  C   UNL     1      -8.229  16.063  68.573  1.00  0.00    -0.181 A  
BRANCH   4  10
HETATM   10  O   UNL     1     -10.673  19.338  67.727  1.00  0.00    -0.426 OA 
HETATM   11  C   UNL     1     -10.733  19.715  66.351  1.00  0.00    -0.424 C  
ENDBRANCH   4  10
BRANCH   7  12
HETATM   12  C   UNL     1     -10.279  14.507  68.570  1.00  0.00    -0.240 C  
BRANCH  12  13
HETATM   13  N   UNL     1     -10.772  13.758  67.259  1.00  0.00    -0.281 N  
HETATM   14  O   UNL     1     -11.707  14.277  64.492  1.00  0.00    -0.399 OA 
HETATM   15  C   UNL     1     -12.220  14.215  66.884  1.00  0.00    -0.365 C  
HETATM   16  C   UNL     1     -12.604  13.745  65.467  1.00  0.00    -0.512 C  
HETATM   17  C   UNL     1      -9.861  14.244  66.090  1.00  0.00    -0.316 C  
HETATM   18  C   UNL     1     -10.369  13.827  64.709  1.00  0.00    -0.398 C  
BRANCH  13  19
HETATM   19  C   UNL     1     -10.710  12.203  67.444  1.00  0.00    -0.234 C  
BRANCH  19  20
HETATM   20  C   UNL     1      -9.279  11.669  67.221  1.00  0.00    -0.170 C  
BRANCH  20  21
HETATM   21  O   UNL     1      -9.217  10.385  66.609  1.00  0.00    -0.153 OA 
BRANCH  21  22
HETATM   22  C   UNL     1     -10.314   9.528  67.025  1.00  0.00    -0.250 C  
BRANCH  22  23
HETATM   23  C   UNL     1      -9.911   8.538  68.121  1.00  0.00    -0.214 C  
BRANCH  23  24
HETATM   24  C   UNL     1     -10.648   8.641  69.469  1.00  0.00    -0.218 C  
HETATM   25  C   UNL     1      -9.829   9.584  70.394  1.00  0.00    -0.329 C  
HETATM   26  C   UNL     1      -9.055   8.887  71.521  1.00  0.00    -0.299 C  
HETATM   27  C   UNL     1      -9.634   7.509  71.845  1.00  0.00    -0.178 C  
HETATM   28  C   UNL     1      -9.519   6.608  70.580  1.00  0.00    -0.174 C  
HETATM   29  C   UNL     1     -10.867   7.268  70.155  1.00  0.00    -0.274 C  
HETATM   30  C   UNL     1     -11.201   7.305  71.723  1.00  0.00    -0.278 C  
HETATM   31  C   UNL     1     -12.139   8.401  72.235  1.00  0.00    -0.456 C  
HETATM   32  C   UNL     1     -11.678   5.986  72.372  1.00  0.00    -0.322 C  
ENDBRANCH  23  24
ENDBRANCH  22  23
ENDBRANCH  21  22
ENDBRANCH  20  21
ENDBRANCH  19  20
ENDBRANCH  13  19
ENDBRANCH  12  13
ENDBRANCH   7  12
ENDBRANCH   2   3
TORSDOF 10
ENDMDL
MODEL       28
REMARK 921   NORMALIZED FREE ENERGY PREDICTED BY IDOCK:   -5.59 KCAL/MOL
REMARK 922        TOTAL FREE ENERGY PREDICTED BY IDOCK:  -10.12 KCAL/MOL
REMARK 923 INTER-LIGAND FREE ENERGY PREDICTED BY IDOCK:   -8.90 KCAL/MOL
REMARK 924 INTRA-LIGAND FREE ENERGY PREDICTED BY IDOCK:   -1.22 KCAL/MOL
REMARK 927      BINDING AFFINITY PREDICTED BY RF-SCORE:    0.00 PKD
ROOT
HETATM    1  C   UNL     1      -5.576  19.194  68.102  1.00  0.00    -0.196 C  
HETATM    2  O   UNL     1      -6.995  19.137  68.085  1.00  0.00    -0.240 OA 
ENDROOT
BRANCH   2   3
HETATM    3  C   UNL     1      -7.594  18.097  67.431  1.00  0.00    -0.213 A  
HETATM    4  C   UNL     1      -8.599  18.147  66.456  1.00  0.00    -0.263 A  
HETATM    5  C   UNL     1      -7.158  16.848  67.890  1.00  0.00    -0.162 A  
HETATM    6  C   UNL     1      -9.152  16.948  65.984  1.00  0.00    -0.199 A  
HETATM    7  C   UNL     1      -8.820  15.695  66.546  1.00  0.00    -0.345 A  
HETATM    8 BR   UNL     1      -6.979  14.045  68.085  1.00  0.00    -0.142 Br 
HETATM    9  C   UNL     1      -7.740  15.662  67.440  1.00  0.00    -0.187 A  
BRANCH   4  10
HETATM   10  O   UNL     1      -9.005  19.356  65.968  1.00  0.00    -0.413 OA 
HETATM   11  C   UNL     1     -10.404  19.625  66.065  1.00  0.00    -0.523 C  
ENDBRANCH   4  10
BRANCH   7  12
HETATM   12  C   UNL     1      -9.720  14.498  66.279  1.00  0.00    -0.309 C  
BRANCH  12  13
HETATM   13  N   UNL     1     -10.975  14.391  67.246  1.00  0.00    -0.291 N  
HETATM   14  O   UNL     1     -11.703  14.359  70.122  1.00  0.00    -0.275 OA 
HETATM   15  C   UNL     1     -10.834  13.146  68.181  1.00  0.00    -0.251 C  
HETATM   16  C   UNL     1     -11.869  13.187  69.323  1.00  0.00    -0.323 C  
HETATM   17  C   UNL     1     -10.928  15.634  68.188  1.00  0.00    -0.314 C  
HETATM   18  C   UNL     1     -11.910  15.547  69.357  1.00  0.00    -0.374 C  
BRANCH  13  19
HETATM   19  C   UNL     1     -12.310  14.325  66.428  1.00  0.00    -0.350 C  
BRANCH  19  20
HETATM   20  C   UNL     1     -12.388  13.035  65.585  1.00  0.00    -0.446 C  
BRANCH  20  21
HETATM   21  O   UNL     1     -12.491  13.252  64.182  1.00  0.00    -0.596 OA 
BRANCH  21  22
HETATM   22  C   UNL     1     -11.431  12.583  63.447  1.00  0.00    -0.452 C  
BRANCH  22  23
HETATM   23  C   UNL     1     -11.032  11.243  64.068  1.00  0.00    -0.377 C  
BRANCH  23  24
HETATM   24  C   UNL     1      -9.565  11.075  64.503  1.00  0.00    -0.299 C  
HETATM   25  C   UNL     1      -8.907  10.014  63.576  1.00  0.00    -0.251 C  
HETATM   26  C   UNL     1      -8.657   8.644  64.222  1.00  0.00    -0.048 C  
HETATM   27  C   UNL     1      -8.607   8.732  65.747  1.00  0.00    -0.185 C  
HETATM   28  C   UNL     1      -9.984   9.241  66.265  1.00  0.00    -0.357 C  
HETATM   29  C   UNL     1      -9.407  10.664  65.989  1.00  0.00    -0.219 C  
HETATM   30  C   UNL     1      -7.991  10.037  66.404  1.00  0.00    -0.116 C  
HETATM   31  C   UNL     1      -6.725  10.651  65.802  1.00  0.00    -0.097 C  
HETATM   32  C   UNL     1      -7.715   9.863  67.915  1.00  0.00    -0.090 C  
ENDBRANCH  23  24
ENDBRANCH  22  23
ENDBRANCH  21  22
ENDBRANCH  20  21
ENDBRANCH  19  20
ENDBRANCH  13  19
ENDBRANCH  12  13
ENDBRANCH   7  12
ENDBRANCH   2   3
TORSDOF 10
ENDMDL
MODEL       29
REMARK 921   NORMALIZED FREE ENERGY PREDICTED BY IDOCK:   -5.58 KCAL/MOL
REMARK 922        TOTAL FREE ENERGY PREDICTED BY IDOCK:  -10.12 KCAL/MOL
REMARK 923 INTER-LIGAND FREE ENERGY PREDICTED BY IDOCK:   -8.91 KCAL/MOL
REMARK 924 INTRA-LIGAND FREE ENERGY PREDICTED BY IDOCK:   -1.21 KCAL/MOL
REMARK 927      BINDING AFFINITY PREDICTED BY RF-SCORE:    0.00 PKD
ROOT
HETATM    1  C   UNL     1     -13.889  14.310  71.859  1.00  0.00    -0.457 C  
HETATM    2  O   UNL     1     -12.556  13.987  71.492  1.00  0.00    -0.336 OA 
ENDROOT
BRANCH   2   3
HETATM    3  C   UNL     1     -12.361  13.166  70.417  1.00  0.00    -0.279 A  
HETATM    4  C   UNL     1     -12.254  11.768  70.400  1.00  0.00    -0.330 A  
HETATM    5  C   UNL     1     -12.179  13.873  69.223  1.00  0.00    -0.319 A  
HETATM    6  C   UNL     1     -11.949  11.123  69.194  1.00  0.00    -0.413 A  
HETATM    7  C   UNL     1     -11.622  11.837  68.020  1.00  0.00    -0.386 A  
HETATM    8 BR   UNL     1     -11.716  14.306  66.480  1.00  0.00    -0.420 Br 
HETATM    9  C   UNL     1     -11.839  13.223  68.035  1.00  0.00    -0.355 A  
BRANCH   4  10
HETATM   10  O   UNL     1     -12.471  11.062  71.549  1.00  0.00    -0.342 OA 
HETATM   11  C   UNL     1     -13.153   9.817  71.392  1.00  0.00    -0.400 C  
ENDBRANCH   4  10
BRANCH   7  12
HETATM   12  C   UNL     1     -10.926  11.113  66.878  1.00  0.00    -0.273 C  
BRANCH  12  13
HETATM   13  N   UNL     1      -9.603  10.341  67.298  1.00  0.00    -0.157 N  
HETATM   14  O   UNL     1      -7.972   7.964  66.599  1.00  0.00    -0.099 OA 
HETATM   15  C   UNL     1      -9.942   8.877  67.728  1.00  0.00    -0.192 C  
HETATM   16  C   UNL     1      -8.665   8.021  67.846  1.00  0.00    -0.128 C  
HETATM   17  C   UNL     1      -8.728  10.212  66.013  1.00  0.00    -0.140 C  
HETATM   18  C   UNL     1      -7.542   9.260  66.179  1.00  0.00    -0.096 C  
BRANCH  13  19
HETATM   19  C   UNL     1      -8.851  11.100  68.445  1.00  0.00    -0.157 C  
BRANCH  19  20
HETATM   20  C   UNL     1      -8.186  12.389  67.922  1.00  0.00    -0.163 C  
BRANCH  20  21
HETATM   21  O   UNL     1      -7.392  13.076  68.884  1.00  0.00    -0.095 OA 
BRANCH  21  22
HETATM   22  C   UNL     1      -7.219  14.480  68.547  1.00  0.00    -0.120 C  
BRANCH  22  23
HETATM   23  C   UNL     1      -8.391  15.349  69.009  1.00  0.00    -0.223 C  
BRANCH  23  24
HETATM   24  C   UNL     1      -9.087  16.218  67.946  1.00  0.00    -0.196 C  
HETATM   25  C   UNL     1      -8.297  16.074  66.615  1.00  0.00    -0.331 C  
HETATM   26  C   UNL     1      -7.444  17.288  66.224  1.00  0.00    -0.354 C  
HETATM   27  C   UNL     1      -7.925  18.569  66.907  1.00  0.00    -0.250 C  
HETATM   28  C   UNL     1      -7.797  18.392  68.448  1.00  0.00    -0.323 C  
HETATM   29  C   UNL     1      -9.197  17.711  68.349  1.00  0.00    -0.288 C  
HETATM   30  C   UNL     1      -9.480  18.747  67.158  1.00  0.00    -0.328 C  
HETATM   31  C   UNL     1     -10.467  18.335  66.063  1.00  0.00    -0.380 C  
HETATM   32  C   UNL     1      -9.852  20.193  67.558  1.00  0.00    -0.574 C  
ENDBRANCH  23  24
ENDBRANCH  22  23
ENDBRANCH  21  22
ENDBRANCH  20  21
ENDBRANCH  19  20
ENDBRANCH  13  19
ENDBRANCH  12  13
ENDBRANCH   7  12
ENDBRANCH   2   3
TORSDOF 10
ENDMDL
MODEL       30
REMARK 921   NORMALIZED FREE ENERGY PREDICTED BY IDOCK:   -5.57 KCAL/MOL
REMARK 922        TOTAL FREE ENERGY PREDICTED BY IDOCK:  -10.10 KCAL/MOL
REMARK 923 INTER-LIGAND FREE ENERGY PREDICTED BY IDOCK:   -8.97 KCAL/MOL
REMARK 924 INTRA-LIGAND FREE ENERGY PREDICTED BY IDOCK:   -1.13 KCAL/MOL
REMARK 927      BINDING AFFINITY PREDICTED BY RF-SCORE:    0.00 PKD
ROOT
HETATM    1  C   UNL     1     -12.368  10.759  70.260  1.00  0.00    -0.341 C  
HETATM    2  O   UNL     1     -12.088  11.104  68.911  1.00  0.00    -0.475 OA 
ENDROOT
BRANCH   2   3
HETATM    3  C   UNL     1     -11.999  12.429  68.587  1.00  0.00    -0.225 A  
HETATM    4  C   UNL     1     -11.908  13.007  67.314  1.00  0.00    -0.363 A  
HETATM    5  C   UNL     1     -11.919  13.256  69.713  1.00  0.00    -0.391 A  
HETATM    6  C   UNL     1     -11.719  14.392  67.206  1.00  0.00    -0.429 A  
HETATM    7  C   UNL     1     -11.493  15.210  68.336  1.00  0.00    -0.347 A  
HETATM    8 BR   UNL     1     -11.702  15.632  71.209  1.00  0.00    -0.532 Br 
HETATM    9  C   UNL     1     -11.694  14.629  69.596  1.00  0.00    -0.313 A  
BRANCH   4  10
HETATM   10  O   UNL     1     -12.027  12.219  66.205  1.00  0.00    -0.588 OA 
HETATM   11  C   UNL     1     -12.336  12.901  64.989  1.00  0.00    -0.485 C  
ENDBRANCH   4  10
BRANCH   7  12
HETATM   12  C   UNL     1     -10.910  16.602  68.141  1.00  0.00    -0.348 C  
BRANCH  12  13
HETATM   13  N   UNL     1      -9.333  16.635  67.958  1.00  0.00    -0.224 N  
HETATM   14  O   UNL     1      -7.168  18.215  66.687  1.00  0.00    -0.193 OA 
HETATM   15  C   UNL     1      -8.961  16.567  66.441  1.00  0.00    -0.305 C  
HETATM   16  C   UNL     1      -7.473  16.901  66.217  1.00  0.00    -0.247 C  
HETATM   17  C   UNL     1      -8.850  18.034  68.449  1.00  0.00    -0.292 C  
HETATM   18  C   UNL     1      -7.393  18.333  68.093  1.00  0.00    -0.260 C  
BRANCH  13  19
HETATM   19  C   UNL     1      -8.652  15.468  68.752  1.00  0.00    -0.188 C  
BRANCH  19  20
HETATM   20  C   UNL     1      -8.062  14.410  67.797  1.00  0.00    -0.168 C  
BRANCH  20  21
HETATM   21  O   UNL     1      -8.504  13.079  68.044  1.00  0.00    -0.162 OA 
BRANCH  21  22
HETATM   22  C   UNL     1      -7.864  12.118  67.161  1.00  0.00    -0.160 C  
BRANCH  22  23
HETATM   23  C   UNL     1      -8.808  10.996  66.722  1.00  0.00    -0.158 C  
BRANCH  23  24
HETATM   24  C   UNL     1      -9.229   9.970  67.790  1.00  0.00    -0.143 C  
HETATM   25  C   UNL     1      -7.945   9.477  68.515  1.00  0.00    -0.093 C  
HETATM   26  C   UNL     1      -7.491   8.056  68.151  1.00  0.00    -0.101 C  
HETATM   27  C   UNL     1      -8.635   7.221  67.574  1.00  0.00    -0.122 C  
HETATM   28  C   UNL     1      -9.135   7.895  66.263  1.00  0.00    -0.224 C  
HETATM   29  C   UNL     1     -10.016   8.767  67.210  1.00  0.00    -0.281 C  
HETATM   30  C   UNL     1     -10.097   7.461  68.136  1.00  0.00    -0.210 C  
HETATM   31  C   UNL     1     -10.298   7.654  69.641  1.00  0.00    -0.213 C  
HETATM   32  C   UNL     1     -11.085   6.353  67.704  1.00  0.00    -0.388 C  
ENDBRANCH  23  24
ENDBRANCH  22  23
ENDBRANCH  21  22
ENDBRANCH  20  21
ENDBRANCH  19  20
ENDBRANCH  13  19
ENDBRANCH  12  13
ENDBRANCH   7  12
ENDBRANCH   2   3
TORSDOF 10
ENDMDL
MODEL       31
REMARK 921   NORMALIZED FREE ENERGY PREDICTED BY IDOCK:   -5.51 KCAL/MOL
REMARK 922        TOTAL FREE ENERGY PREDICTED BY IDOCK:  -10.01 KCAL/MOL
REMARK 923 INTER-LIGAND FREE ENERGY PREDICTED BY IDOCK:   -8.95 KCAL/MOL
REMARK 924 INTRA-LIGAND FREE ENERGY PREDICTED BY IDOCK:   -1.06 KCAL/MOL
REMARK 927      BINDING AFFINITY PREDICTED BY RF-SCORE:    0.00 PKD
ROOT
HETATM    1  C   UNL     1     -14.366   8.253  71.878  1.00  0.00    -0.476 C  
HETATM    2  O   UNL     1     -13.210   8.760  72.530  1.00  0.00    -0.400 OA 
ENDROOT
BRANCH   2   3
HETATM    3  C   UNL     1     -12.100   9.013  71.775  1.00  0.00    -0.368 A  
HETATM    4  C   UNL     1     -11.884  10.064  70.872  1.00  0.00    -0.368 A  
HETATM    5  C   UNL     1     -11.119   8.024  71.908  1.00  0.00    -0.333 A  
HETATM    6  C   UNL     1     -10.704  10.082  70.116  1.00  0.00    -0.361 A  
HETATM    7  C   UNL     1      -9.780   9.013  70.140  1.00  0.00    -0.213 A  
HETATM    8 BR   UNL     1      -8.684   6.675  71.485  1.00  0.00    -0.130 Br 
HETATM    9  C   UNL     1      -9.964   8.031  71.124  1.00  0.00    -0.174 A  
BRANCH   4  10
HETATM   10  O   UNL     1     -12.813  11.059  70.762  1.00  0.00    -0.322 OA 
HETATM   11  C   UNL     1     -12.803  12.034  71.805  1.00  0.00    -0.272 C  
ENDBRANCH   4  10
BRANCH   7  12
HETATM   12  C   UNL     1      -8.744   8.901  69.031  1.00  0.00    -0.136 C  
BRANCH  12  13
HETATM   13  N   UNL     1      -9.201   8.018  67.793  1.00  0.00    -0.134 N  
HETATM   14  O   UNL     1      -9.806   5.217  67.026  1.00  0.00    -0.148 OA 
HETATM   15  C   UNL     1      -8.120   6.935  67.470  1.00  0.00    -0.116 C  
HETATM   16  C   UNL     1      -8.664   5.882  66.485  1.00  0.00    -0.126 C  
HETATM   17  C   UNL     1     -10.468   7.228  68.244  1.00  0.00    -0.199 C  
HETATM   18  C   UNL     1     -10.879   6.129  67.263  1.00  0.00    -0.352 C  
BRANCH  13  19
HETATM   19  C   UNL     1      -9.484   8.914  66.539  1.00  0.00    -0.211 C  
BRANCH  19  20
HETATM   20  C   UNL     1      -8.235   9.725  66.136  1.00  0.00    -0.120 C  
BRANCH  20  21
HETATM   21  O   UNL     1      -8.401  10.527  64.971  1.00  0.00    -0.164 OA 
BRANCH  21  22
HETATM   22  C   UNL     1      -9.659  10.254  64.295  1.00  0.00    -0.313 C  
BRANCH  22  23
HETATM   23  C   UNL     1     -10.545  11.496  64.169  1.00  0.00    -0.420 C  
BRANCH  23  24
HETATM   24  C   UNL     1     -11.197  12.031  65.457  1.00  0.00    -0.372 C  
HETATM   25  C   UNL     1     -12.535  12.721  65.068  1.00  0.00    -0.572 C  
HETATM   26  C   UNL     1     -12.520  14.255  65.120  1.00  0.00    -0.423 C  
HETATM   27  C   UNL     1     -11.406  14.786  66.023  1.00  0.00    -0.332 C  
HETATM   28  C   UNL     1     -10.034  14.331  65.445  1.00  0.00    -0.334 C  
HETATM   29  C   UNL     1     -10.291  13.014  66.242  1.00  0.00    -0.291 C  
HETATM   30  C   UNL     1     -11.026  13.952  67.315  1.00  0.00    -0.299 C  
HETATM   31  C   UNL     1     -12.142  13.338  68.165  1.00  0.00    -0.248 C  
HETATM   32  C   UNL     1     -10.125  14.747  68.288  1.00  0.00    -0.221 C  
ENDBRANCH  23  24
ENDBRANCH  22  23
ENDBRANCH  21  22
ENDBRANCH  20  21
ENDBRANCH  19  20
ENDBRANCH  13  19
ENDBRANCH  12  13
ENDBRANCH   7  12
ENDBRANCH   2   3
TORSDOF 10
ENDMDL
MODEL       32
REMARK 921   NORMALIZED FREE ENERGY PREDICTED BY IDOCK:   -5.51 KCAL/MOL
REMARK 922        TOTAL FREE ENERGY PREDICTED BY IDOCK:  -10.01 KCAL/MOL
REMARK 923 INTER-LIGAND FREE ENERGY PREDICTED BY IDOCK:   -8.19 KCAL/MOL
REMARK 924 INTRA-LIGAND FREE ENERGY PREDICTED BY IDOCK:   -1.82 KCAL/MOL
REMARK 927      BINDING AFFINITY PREDICTED BY RF-SCORE:    0.00 PKD
ROOT
HETATM    1  C   UNL     1      -9.202  11.175  62.541  1.00  0.00    -0.276 C  
HETATM    2  O   UNL     1     -10.309  11.726  63.239  1.00  0.00    -0.405 OA 
ENDROOT
BRANCH   2   3
HETATM    3  C   UNL     1     -10.415  11.482  64.580  1.00  0.00    -0.301 A  
HETATM    4  C   UNL     1     -11.445  11.860  65.453  1.00  0.00    -0.251 A  
HETATM    5  C   UNL     1      -9.288  10.836  65.102  1.00  0.00    -0.254 A  
HETATM    6  C   UNL     1     -11.307  11.598  66.823  1.00  0.00    -0.354 A  
HETATM    7  C   UNL     1     -10.113  11.080  67.373  1.00  0.00    -0.216 A  
HETATM    8 BR   UNL     1      -7.605   9.644  67.019  1.00  0.00    -0.095 Br 
HETATM    9  C   UNL     1      -9.145  10.614  66.473  1.00  0.00    -0.162 A  
BRANCH   4  10
HETATM   10  O   UNL     1     -12.568  12.453  64.952  1.00  0.00    -0.563 OA 
HETATM   11  C   UNL     1     -12.756  13.824  65.307  1.00  0.00    -0.439 C  
ENDBRANCH   4  10
BRANCH   7  12
HETATM   12  C   UNL     1      -9.877  11.187  68.872  1.00  0.00    -0.162 C  
BRANCH  12  13
HETATM   13  N   UNL     1     -10.295   9.897  69.698  1.00  0.00    -0.224 N  
HETATM   14  O   UNL     1      -9.575   7.045  70.084  1.00  0.00    -0.165 OA 
HETATM   15  C   UNL     1     -10.704   8.741  68.727  1.00  0.00    -0.077 C  
HETATM   16  C   UNL     1     -10.818   7.398  69.477  1.00  0.00    -0.189 C  
HETATM   17  C   UNL     1      -9.014   9.397  70.434  1.00  0.00    -0.250 C  
HETATM   18  C   UNL     1      -9.175   8.010  71.059  1.00  0.00    -0.149 C  
BRANCH  13  19
HETATM   19  C   UNL     1     -11.457  10.222  70.698  1.00  0.00    -0.349 C  
BRANCH  19  20
HETATM   20  C   UNL     1     -12.281  11.437  70.224  1.00  0.00    -0.349 C  
BRANCH  20  21
HETATM   21  O   UNL     1     -12.169  12.588  71.054  1.00  0.00    -0.307 OA 
BRANCH  21  22
HETATM   22  C   UNL     1     -12.809  13.752  70.465  1.00  0.00    -0.142 C  
BRANCH  22  23
HETATM   23  C   UNL     1     -11.828  14.893  70.189  1.00  0.00    -0.357 C  
BRANCH  23  24
HETATM   24  C   UNL     1     -10.968  14.792  68.916  1.00  0.00    -0.262 C  
HETATM   25  C   UNL     1      -9.474  14.771  69.345  1.00  0.00     0.004 C  
HETATM   26  C   UNL     1      -8.697  16.068  69.077  1.00  0.00    -0.245 C  
HETATM   27  C   UNL     1      -9.361  16.919  67.995  1.00  0.00    -0.238 C  
HETATM   28  C   UNL     1     -10.783  17.326  68.480  1.00  0.00    -0.305 C  
HETATM   29  C   UNL     1     -11.224  15.943  67.909  1.00  0.00    -0.297 C  
HETATM   30  C   UNL     1     -10.091  16.178  66.799  1.00  0.00    -0.275 C  
HETATM   31  C   UNL     1      -9.433  14.948  66.168  1.00  0.00    -0.328 C  
HETATM   32  C   UNL     1     -10.436  17.133  65.634  1.00  0.00    -0.208 C  
ENDBRANCH  23  24
ENDBRANCH  22  23
ENDBRANCH  21  22
ENDBRANCH  20  21
ENDBRANCH  19  20
ENDBRANCH  13  19
ENDBRANCH  12  13
ENDBRANCH   7  12
ENDBRANCH   2   3
TORSDOF 10
ENDMDL
MODEL       33
REMARK 921   NORMALIZED FREE ENERGY PREDICTED BY IDOCK:   -5.48 KCAL/MOL
REMARK 922        TOTAL FREE ENERGY PREDICTED BY IDOCK:   -9.95 KCAL/MOL
REMARK 923 INTER-LIGAND FREE ENERGY PREDICTED BY IDOCK:   -8.68 KCAL/MOL
REMARK 924 INTRA-LIGAND FREE ENERGY PREDICTED BY IDOCK:   -1.28 KCAL/MOL
REMARK 927      BINDING AFFINITY PREDICTED BY RF-SCORE:    0.00 PKD
ROOT
HETATM    1  C   UNL     1     -12.118  10.656  69.985  1.00  0.00    -0.316 C  
HETATM    2  O   UNL     1     -12.092  11.066  68.625  1.00  0.00    -0.551 OA 
ENDROOT
BRANCH   2   3
HETATM    3  C   UNL     1     -12.039  12.405  68.354  1.00  0.00    -0.060 A  
HETATM    4  C   UNL     1     -12.023  13.037  67.103  1.00  0.00    -0.329 A  
HETATM    5  C   UNL     1     -11.911  13.185  69.509  1.00  0.00    -0.354 A  
HETATM    6  C   UNL     1     -11.859  14.428  67.045  1.00  0.00    -0.437 A  
HETATM    7  C   UNL     1     -11.585  15.202  68.195  1.00  0.00    -0.358 A  
HETATM    8 BR   UNL     1     -11.649  15.499  71.091  1.00  0.00    -0.496 Br 
HETATM    9  C   UNL     1     -11.712  14.565  69.438  1.00  0.00    -0.318 A  
BRANCH   4  10
HETATM   10  O   UNL     1     -12.188  12.294  65.970  1.00  0.00    -0.646 OA 
HETATM   11  C   UNL     1     -12.061  13.005  64.738  1.00  0.00    -0.415 C  
ENDBRANCH   4  10
BRANCH   7  12
HETATM   12  C   UNL     1     -11.033  16.610  68.030  1.00  0.00    -0.311 C  
BRANCH  12  13
HETATM   13  N   UNL     1      -9.452  16.685  67.903  1.00  0.00    -0.223 N  
HETATM   14  O   UNL     1      -7.281  18.402  66.835  1.00  0.00    -0.198 OA 
HETATM   15  C   UNL     1      -9.031  16.747  66.398  1.00  0.00    -0.289 C  
HETATM   16  C   UNL     1      -7.544  17.125  66.251  1.00  0.00    -0.317 C  
HETATM   17  C   UNL     1      -9.014  18.049  68.520  1.00  0.00    -0.289 C  
HETATM   18  C   UNL     1      -7.552  18.402  68.237  1.00  0.00    -0.286 C  
BRANCH  13  19
HETATM   19  C   UNL     1      -8.773  15.470  68.623  1.00  0.00    -0.188 C  
BRANCH  19  20
HETATM   20  C   UNL     1      -7.996  14.589  67.623  1.00  0.00    -0.177 C  
BRANCH  20  21
HETATM   21  O   UNL     1      -8.620  13.345  67.323  1.00  0.00    -0.198 OA 
BRANCH  21  22
HETATM   22  C   UNL     1      -8.356  12.342  68.342  1.00  0.00    -0.137 C  
BRANCH  22  23
HETATM   23  C   UNL     1      -8.720  10.926  67.889  1.00  0.00    -0.131 C  
BRANCH  23  24
HETATM   24  C   UNL     1      -9.109  10.737  66.411  1.00  0.00    -0.188 C  
HETATM   25  C   UNL     1     -10.041   9.496  66.315  1.00  0.00    -0.327 C  
HETATM   26  C   UNL     1      -9.398   8.238  65.713  1.00  0.00    -0.101 C  
HETATM   27  C   UNL     1      -8.175   8.575  64.860  1.00  0.00    -0.166 C  
HETATM   28  C   UNL     1      -7.104   9.252  65.764  1.00  0.00    -0.086 C  
HETATM   29  C   UNL     1      -7.888  10.568  65.471  1.00  0.00    -0.138 C  
HETATM   30  C   UNL     1      -8.185   9.926  64.032  1.00  0.00    -0.159 C  
HETATM   31  C   UNL     1      -9.464  10.348  63.304  1.00  0.00    -0.361 C  
HETATM   32  C   UNL     1      -7.048   9.988  62.986  1.00  0.00    -0.129 C  
ENDBRANCH  23  24
ENDBRANCH  22  23
ENDBRANCH  21  22
ENDBRANCH  20  21
ENDBRANCH  19  20
ENDBRANCH  13  19
ENDBRANCH  12  13
ENDBRANCH   7  12
ENDBRANCH   2   3
TORSDOF 10
ENDMDL
MODEL       34
REMARK 921   NORMALIZED FREE ENERGY PREDICTED BY IDOCK:   -5.45 KCAL/MOL
REMARK 922        TOTAL FREE ENERGY PREDICTED BY IDOCK:   -9.92 KCAL/MOL
REMARK 923 INTER-LIGAND FREE ENERGY PREDICTED BY IDOCK:   -9.82 KCAL/MOL
REMARK 924 INTRA-LIGAND FREE ENERGY PREDICTED BY IDOCK:   -0.10 KCAL/MOL
REMARK 927      BINDING AFFINITY PREDICTED BY RF-SCORE:    0.00 PKD
ROOT
HETATM    1  C   UNL     1     -13.122  16.004  73.342  1.00  0.00    -0.573 C  
HETATM    2  O   UNL     1     -13.818  15.356  72.287  1.00  0.00    -0.461 OA 
ENDROOT
BRANCH   2   3
HETATM    3  C   UNL     1     -13.139  14.444  71.528  1.00  0.00    -0.340 A  
HETATM    4  C   UNL     1     -12.368  14.672  70.380  1.00  0.00    -0.339 A  
HETATM    5  C   UNL     1     -13.340  13.128  71.959  1.00  0.00    -0.587 A  
HETATM    6  C   UNL     1     -11.838  13.575  69.687  1.00  0.00    -0.398 A  
HETATM    7  C   UNL     1     -12.156  12.242  70.032  1.00  0.00    -0.346 A  
HETATM    8 BR   UNL     1     -13.113  10.322  72.000  1.00  0.00    -0.446 Br 
HETATM    9  C   UNL     1     -12.838  12.041  71.240  1.00  0.00    -0.265 A  
BRANCH   4  10
HETATM   10  O   UNL     1     -12.129  15.953  69.972  1.00  0.00    -0.336 OA 
HETATM   11  C   UNL     1     -11.383  16.088  68.761  1.00  0.00    -0.380 C  
ENDBRANCH   4  10
BRANCH   7  12
HETATM   12  C   UNL     1     -11.885  11.130  69.030  1.00  0.00    -0.348 C  
BRANCH  12  13
HETATM   13  N   UNL     1     -10.931  11.543  67.831  1.00  0.00    -0.217 N  
HETATM   14  O   UNL     1      -9.307  13.812  66.822  1.00  0.00    -0.253 OA 
HETATM   15  C   UNL     1     -11.513  12.783  67.076  1.00  0.00    -0.341 C  
HETATM   16  C   UNL     1     -10.472  13.389  66.113  1.00  0.00    -0.295 C  
HETATM   17  C   UNL     1      -9.590  12.028  68.466  1.00  0.00    -0.143 C  
HETATM   18  C   UNL     1      -8.658  12.715  67.467  1.00  0.00    -0.185 C  
BRANCH  13  19
HETATM   19  C   UNL     1     -10.713  10.343  66.847  1.00  0.00    -0.207 C  
BRANCH  19  20
HETATM   20  C   UNL     1     -10.351   9.052  67.610  1.00  0.00    -0.257 C  
BRANCH  20  21
HETATM   21  O   UNL     1     -10.268   7.887  66.795  1.00  0.00    -0.277 OA 
BRANCH  21  22
HETATM   22  C   UNL     1      -9.528   6.818  67.443  1.00  0.00    -0.134 C  
BRANCH  22  23
HETATM   23  C   UNL     1      -9.051   7.194  68.848  1.00  0.00    -0.131 C  
BRANCH  23  24
HETATM   24  C   UNL     1      -9.548   6.326  70.018  1.00  0.00    -0.176 C  
HETATM   25  C   UNL     1     -11.073   6.092  69.830  1.00  0.00    -0.486 C  
HETATM   26  C   UNL     1     -11.980   6.883  70.782  1.00  0.00    -0.424 C  
HETATM   27  C   UNL     1     -11.237   7.326  72.043  1.00  0.00    -0.285 C  
HETATM   28  C   UNL     1     -10.069   8.268  71.631  1.00  0.00    -0.279 C  
HETATM   29  C   UNL     1      -9.266   6.949  71.410  1.00  0.00    -0.156 C  
HETATM   30  C   UNL     1     -10.122   6.367  72.633  1.00  0.00    -0.193 C  
HETATM   31  C   UNL     1     -10.382   4.859  72.680  1.00  0.00    -0.250 C  
HETATM   32  C   UNL     1      -9.683   6.777  74.058  1.00  0.00    -0.308 C  
ENDBRANCH  23  24
ENDBRANCH  22  23
ENDBRANCH  21  22
ENDBRANCH  20  21
ENDBRANCH  19  20
ENDBRANCH  13  19
ENDBRANCH  12  13
ENDBRANCH   7  12
ENDBRANCH   2   3
TORSDOF 10
ENDMDL
MODEL       35
REMARK 921   NORMALIZED FREE ENERGY PREDICTED BY IDOCK:   -5.42 KCAL/MOL
REMARK 922        TOTAL FREE ENERGY PREDICTED BY IDOCK:   -9.87 KCAL/MOL
REMARK 923 INTER-LIGAND FREE ENERGY PREDICTED BY IDOCK:   -9.30 KCAL/MOL
REMARK 924 INTRA-LIGAND FREE ENERGY PREDICTED BY IDOCK:   -0.57 KCAL/MOL
REMARK 927      BINDING AFFINITY PREDICTED BY RF-SCORE:    0.00 PKD
ROOT
HETATM    1  C   UNL     1     -14.156   8.876  72.305  1.00  0.00    -0.442 C  
HETATM    2  O   UNL     1     -13.065   8.078  71.869  1.00  0.00    -0.324 OA 
ENDROOT
BRANCH   2   3
HETATM    3  C   UNL     1     -12.161   8.633  71.008  1.00  0.00    -0.215 A  
HETATM    4  C   UNL     1     -11.082   8.013  70.363  1.00  0.00    -0.238 A  
HETATM    5  C   UNL     1     -12.343  10.012  70.848  1.00  0.00    -0.438 A  
HETATM    6  C   UNL     1     -10.206   8.794  69.596  1.00  0.00    -0.210 A  
HETATM    7  C   UNL     1     -10.299  10.203  69.549  1.00  0.00    -0.263 A  
HETATM    8 BR   UNL     1     -11.875  12.625  69.909  1.00  0.00    -0.303 Br 
HETATM    9  C   UNL     1     -11.444  10.786  70.112  1.00  0.00    -0.331 A  
BRANCH   4  10
HETATM   10  O   UNL     1     -10.916   6.662  70.476  1.00  0.00    -0.250 OA 
HETATM   11  C   UNL     1     -10.891   5.937  69.246  1.00  0.00    -0.344 C  
ENDBRANCH   4  10
BRANCH   7  12
HETATM   12  C   UNL     1      -9.115  11.010  69.039  1.00  0.00    -0.063 C  
BRANCH  12  13
HETATM   13  N   UNL     1      -8.976  11.045  67.458  1.00  0.00    -0.137 N  
HETATM   14  O   UNL     1      -9.408   9.376  65.044  1.00  0.00    -0.251 OA 
HETATM   15  C   UNL     1      -8.004   9.920  66.974  1.00  0.00    -0.109 C  
HETATM   16  C   UNL     1      -8.085   9.733  65.445  1.00  0.00    -0.127 C  
HETATM   17  C   UNL     1     -10.374  10.676  66.872  1.00  0.00    -0.236 C  
HETATM   18  C   UNL     1     -10.348  10.401  65.368  1.00  0.00    -0.200 C  
BRANCH  13  19
HETATM   19  C   UNL     1      -8.488  12.451  66.969  1.00  0.00    -0.170 C  
BRANCH  19  20
HETATM   20  C   UNL     1      -9.645  13.471  66.951  1.00  0.00    -0.258 C  
BRANCH  20  21
HETATM   21  O   UNL     1      -9.342  14.697  66.293  1.00  0.00    -0.286 OA 
BRANCH  21  22
HETATM   22  C   UNL     1     -10.540  15.458  65.978  1.00  0.00    -0.322 C  
BRANCH  22  23
HETATM   23  C   UNL     1     -10.270  16.959  65.842  1.00  0.00    -0.330 C  
BRANCH  23  24
HETATM   24  C   UNL     1      -9.419  17.625  66.939  1.00  0.00    -0.278 C  
HETATM   25  C   UNL     1     -10.373  18.069  68.084  1.00  0.00    -0.398 C  
HETATM   26  C   UNL     1     -10.634  19.579  68.171  1.00  0.00    -0.404 C  
HETATM   27  C   UNL     1      -9.535  20.390  67.483  1.00  0.00    -0.532 C  
HETATM   28  C   UNL     1      -9.505  20.013  65.973  1.00  0.00    -0.384 C  
HETATM   29  C   UNL     1      -8.592  18.832  66.427  1.00  0.00    -0.294 C  
HETATM   30  C   UNL     1      -8.049  19.844  67.546  1.00  0.00    -0.341 C  
HETATM   31  C   UNL     1      -7.523  19.255  68.857  1.00  0.00    -0.397 C  
HETATM   32  C   UNL     1      -7.012  20.899  67.096  1.00  0.00    -0.426 C  
ENDBRANCH  23  24
ENDBRANCH  22  23
ENDBRANCH  21  22
ENDBRANCH  20  21
ENDBRANCH  19  20
ENDBRANCH  13  19
ENDBRANCH  12  13
ENDBRANCH   7  12
ENDBRANCH   2   3
TORSDOF 10
ENDMDL
MODEL       36
REMARK 921   NORMALIZED FREE ENERGY PREDICTED BY IDOCK:   -5.42 KCAL/MOL
REMARK 922        TOTAL FREE ENERGY PREDICTED BY IDOCK:   -9.87 KCAL/MOL
REMARK 923 INTER-LIGAND FREE ENERGY PREDICTED BY IDOCK:   -9.23 KCAL/MOL
REMARK 924 INTRA-LIGAND FREE ENERGY PREDICTED BY IDOCK:   -0.64 KCAL/MOL
REMARK 927      BINDING AFFINITY PREDICTED BY RF-SCORE:    0.00 PKD
ROOT
HETATM    1  C   UNL     1     -10.961   5.871  69.668  1.00  0.00    -0.377 C  
HETATM    2  O   UNL     1     -10.691   6.937  70.567  1.00  0.00    -0.222 OA 
ENDROOT
BRANCH   2   3
HETATM    3  C   UNL     1     -10.862   8.218  70.123  1.00  0.00    -0.237 A  
HETATM    4  C   UNL     1     -11.525   9.276  70.760  1.00  0.00    -0.292 A  
HETATM    5  C   UNL     1     -10.355   8.415  68.834  1.00  0.00    -0.231 A  
HETATM    6  C   UNL     1     -11.678  10.492  70.079  1.00  0.00    -0.394 A  
HETATM    7  C   UNL     1     -11.298  10.650  68.728  1.00  0.00    -0.339 A  
HETATM    8 BR   UNL     1      -9.719   9.766  66.447  1.00  0.00    -0.296 Br 
HETATM    9  C   UNL     1     -10.545   9.618  68.151  1.00  0.00    -0.226 A  
BRANCH   4  10
HETATM   10  O   UNL     1     -11.988   9.112  72.034  1.00  0.00    -0.367 OA 
HETATM   11  C   UNL     1     -13.392   9.302  72.212  1.00  0.00    -0.477 C  
ENDBRANCH   4  10
BRANCH   7  12
HETATM   12  C   UNL     1     -11.837  11.833  67.937  1.00  0.00    -0.219 C  
BRANCH  12  13
HETATM   13  N   UNL     1     -11.201  13.233  68.333  1.00  0.00    -0.263 N  
HETATM   14  O   UNL     1     -11.951  15.990  69.133  1.00  0.00    -0.340 OA 
HETATM   15  C   UNL     1     -11.675  14.345  67.341  1.00  0.00    -0.397 C  
HETATM   16  C   UNL     1     -11.326  15.750  67.871  1.00  0.00    -0.277 C  
HETATM   17  C   UNL     1     -11.796  13.624  69.721  1.00  0.00    -0.327 C  
HETATM   18  C   UNL     1     -11.496  15.069  70.125  1.00  0.00    -0.277 C  
BRANCH  13  19
HETATM   19  C   UNL     1      -9.636  13.148  68.368  1.00  0.00    -0.186 C  
BRANCH  19  20
HETATM   20  C   UNL     1      -9.017  13.673  67.057  1.00  0.00    -0.236 C  
BRANCH  20  21
HETATM   21  O   UNL     1      -7.948  14.597  67.237  1.00  0.00    -0.189 OA 
BRANCH  21  22
HETATM   22  C   UNL     1      -7.919  15.143  68.583  1.00  0.00    -0.151 C  
BRANCH  22  23
HETATM   23  C   UNL     1      -6.900  16.275  68.742  1.00  0.00    -0.151 C  
BRANCH  23  24
HETATM   24  C   UNL     1      -6.969  17.433  67.730  1.00  0.00    -0.173 C  
HETATM   25  C   UNL     1      -6.121  18.610  68.289  1.00  0.00    -0.209 C  
HETATM   26  C   UNL     1      -6.928  19.797  68.833  1.00  0.00    -0.367 C  
HETATM   27  C   UNL     1      -8.345  19.836  68.261  1.00  0.00    -0.312 C  
HETATM   28  C   UNL     1      -9.092  18.538  68.685  1.00  0.00    -0.325 C  
HETATM   29  C   UNL     1      -8.415  17.903  67.431  1.00  0.00    -0.236 C  
HETATM   30  C   UNL     1      -8.565  19.355  66.767  1.00  0.00    -0.336 C  
HETATM   31  C   UNL     1      -7.555  19.765  65.693  1.00  0.00    -0.223 C  
HETATM   32  C   UNL     1      -9.960  19.739  66.222  1.00  0.00    -0.581 C  
ENDBRANCH  23  24
ENDBRANCH  22  23
ENDBRANCH  21  22
ENDBRANCH  20  21
ENDBRANCH  19  20
ENDBRANCH  13  19
ENDBRANCH  12  13
ENDBRANCH   7  12
ENDBRANCH   2   3
TORSDOF 10
ENDMDL
MODEL       37
REMARK 921   NORMALIZED FREE ENERGY PREDICTED BY IDOCK:   -5.42 KCAL/MOL
REMARK 922        TOTAL FREE ENERGY PREDICTED BY IDOCK:   -9.87 KCAL/MOL
REMARK 923 INTER-LIGAND FREE ENERGY PREDICTED BY IDOCK:   -9.13 KCAL/MOL
REMARK 924 INTRA-LIGAND FREE ENERGY PREDICTED BY IDOCK:   -0.74 KCAL/MOL
REMARK 927      BINDING AFFINITY PREDICTED BY RF-SCORE:    0.00 PKD
ROOT
HETATM    1  C   UNL     1     -11.471   6.690  69.712  1.00  0.00    -0.328 C  
HETATM    2  O   UNL     1     -10.844   7.803  70.333  1.00  0.00    -0.237 OA 
ENDROOT
BRANCH   2   3
HETATM    3  C   UNL     1     -11.000   9.036  69.764  1.00  0.00    -0.166 A  
HETATM    4  C   UNL     1     -11.622  10.169  70.305  1.00  0.00    -0.302 A  
HETATM    5  C   UNL     1     -10.525   9.087  68.448  1.00  0.00    -0.234 A  
HETATM    6  C   UNL     1     -11.768  11.312  69.506  1.00  0.00    -0.415 A  
HETATM    7  C   UNL     1     -11.423  11.322  68.136  1.00  0.00    -0.376 A  
HETATM    8 BR   UNL     1      -9.929  10.171  65.919  1.00  0.00    -0.330 Br 
HETATM    9  C   UNL     1     -10.709  10.218  67.650  1.00  0.00    -0.288 A  
BRANCH   4  10
HETATM   10  O   UNL     1     -12.052  10.148  71.600  1.00  0.00    -0.375 OA 
HETATM   11  C   UNL     1     -13.069  11.095  71.931  1.00  0.00    -0.408 C  
ENDBRANCH   4  10
BRANCH   7  12
HETATM   12  C   UNL     1     -11.959  12.430  67.242  1.00  0.00    -0.176 C  
BRANCH  12  13
HETATM   13  N   UNL     1     -11.090  13.759  67.250  1.00  0.00    -0.298 N  
HETATM   14  O   UNL     1      -8.547  14.886  66.218  1.00  0.00    -0.104 OA 
HETATM   15  C   UNL     1      -9.682  13.484  67.873  1.00  0.00    -0.225 C  
HETATM   16  C   UNL     1      -8.720  14.662  67.618  1.00  0.00    -0.177 C  
HETATM   17  C   UNL     1     -10.826  14.136  65.760  1.00  0.00    -0.297 C  
HETATM   18  C   UNL     1      -9.779  15.238  65.588  1.00  0.00    -0.325 C  
BRANCH  13  19
HETATM   19  C   UNL     1     -11.827  14.906  68.023  1.00  0.00    -0.268 C  
BRANCH  19  20
HETATM   20  C   UNL     1     -11.169  15.172  69.393  1.00  0.00    -0.283 C  
BRANCH  20  21
HETATM   21  O   UNL     1     -10.727  16.511  69.587  1.00  0.00    -0.322 OA 
BRANCH  21  22
HETATM   22  C   UNL     1     -10.898  17.321  68.392  1.00  0.00    -0.273 C  
BRANCH  22  23
HETATM   23  C   UNL     1      -9.971  18.539  68.364  1.00  0.00    -0.414 C  
BRANCH  23  24
HETATM   24  C   UNL     1      -8.608  18.372  67.669  1.00  0.00    -0.268 C  
HETATM   25  C   UNL     1      -7.504  18.407  68.763  1.00  0.00    -0.298 C  
HETATM   26  C   UNL     1      -6.674  19.697  68.816  1.00  0.00    -0.344 C  
HETATM   27  C   UNL     1      -6.725  20.465  67.495  1.00  0.00    -0.320 C  
HETATM   28  C   UNL     1      -8.199  20.875  67.210  1.00  0.00    -0.148 C  
HETATM   29  C   UNL     1      -8.332  19.450  66.589  1.00  0.00    -0.326 C  
HETATM   30  C   UNL     1      -6.802  19.634  66.147  1.00  0.00    -0.249 C  
HETATM   31  C   UNL     1      -5.940  18.379  65.992  1.00  0.00    -0.222 C  
HETATM   32  C   UNL     1      -6.531  20.505  64.899  1.00  0.00    -0.333 C  
ENDBRANCH  23  24
ENDBRANCH  22  23
ENDBRANCH  21  22
ENDBRANCH  20  21
ENDBRANCH  19  20
ENDBRANCH  13  19
ENDBRANCH  12  13
ENDBRANCH   7  12
ENDBRANCH   2   3
TORSDOF 10
ENDMDL
MODEL       38
REMARK 921   NORMALIZED FREE ENERGY PREDICTED BY IDOCK:   -5.41 KCAL/MOL
REMARK 922        TOTAL FREE ENERGY PREDICTED BY IDOCK:   -9.85 KCAL/MOL
REMARK 923 INTER-LIGAND FREE ENERGY PREDICTED BY IDOCK:   -9.87 KCAL/MOL
REMARK 924 INTRA-LIGAND FREE ENERGY PREDICTED BY IDOCK:    0.02 KCAL/MOL
REMARK 927      BINDING AFFINITY PREDICTED BY RF-SCORE:    0.00 PKD
ROOT
HETATM    1  C   UNL     1     -10.641   7.996  72.486  1.00  0.00    -0.329 C  
HETATM    2  O   UNL     1      -9.740   8.959  71.960  1.00  0.00    -0.316 OA 
ENDROOT
BRANCH   2   3
HETATM    3  C   UNL     1     -10.016   9.503  70.737  1.00  0.00    -0.264 A  
HETATM    4  C   UNL     1     -11.251   9.941  70.240  1.00  0.00    -0.301 A  
HETATM    5  C   UNL     1      -8.898   9.531  69.894  1.00  0.00    -0.227 A  
HETATM    6  C   UNL     1     -11.335  10.375  68.909  1.00  0.00    -0.278 A  
HETATM    7  C   UNL     1     -10.247  10.269  68.014  1.00  0.00    -0.200 A  
HETATM    8 BR   UNL     1      -7.382  10.003  67.569  1.00  0.00    -0.090 Br 
HETATM    9  C   UNL     1      -9.001   9.930  68.560  1.00  0.00    -0.122 A  
BRANCH   4  10
HETATM   10  O   UNL     1     -12.340   9.959  71.063  1.00  0.00    -0.317 OA 
HETATM   11  C   UNL     1     -12.826  11.254  71.419  1.00  0.00    -0.410 C  
ENDBRANCH   4  10
BRANCH   7  12
HETATM   12  C   UNL     1     -10.502  10.377  66.518  1.00  0.00    -0.196 C  
BRANCH  12  13
HETATM   13  N   UNL     1     -10.703  11.862  65.991  1.00  0.00    -0.275 N  
HETATM   14  O   UNL     1     -12.684  13.605  64.636  1.00  0.00    -0.635 OA 
HETATM   15  C   UNL     1     -10.979  11.859  64.452  1.00  0.00    -0.337 C  
HETATM   16  C   UNL     1     -11.474  13.238  63.972  1.00  0.00    -0.388 C  
HETATM   17  C   UNL     1     -12.007  12.404  66.653  1.00  0.00    -0.229 C  
HETATM   18  C   UNL     1     -12.492  13.722  66.047  1.00  0.00    -0.445 C  
BRANCH  13  19
HETATM   19  C   UNL     1      -9.458  12.751  66.333  1.00  0.00    -0.229 C  
BRANCH  19  20
HETATM   20  C   UNL     1      -9.574  13.358  67.746  1.00  0.00    -0.213 C  
BRANCH  20  21
HETATM   21  O   UNL     1      -9.429  14.774  67.795  1.00  0.00    -0.200 OA 
BRANCH  21  22
HETATM   22  C   UNL     1      -9.169  15.342  66.482  1.00  0.00    -0.290 C  
BRANCH  22  23
HETATM   23  C   UNL     1      -9.428  16.849  66.426  1.00  0.00    -0.306 C  
BRANCH  23  24
HETATM   24  C   UNL     1      -8.739  17.723  67.491  1.00  0.00    -0.239 C  
HETATM   25  C   UNL     1      -9.841  18.316  68.412  1.00  0.00    -0.386 C  
HETATM   26  C   UNL     1     -10.137  19.808  68.204  1.00  0.00    -0.574 C  
HETATM   27  C   UNL     1      -8.971  20.533  67.531  1.00  0.00    -0.379 C  
HETATM   28  C   UNL     1      -8.737  19.909  66.125  1.00  0.00    -0.350 C  
HETATM   29  C   UNL     1      -7.872  18.858  66.887  1.00  0.00    -0.256 C  
HETATM   30  C   UNL     1      -7.496  20.064  67.874  1.00  0.00    -0.330 C  
HETATM   31  C   UNL     1      -7.137  19.725  69.323  1.00  0.00    -0.335 C  
HETATM   32  C   UNL     1      -6.428  21.067  67.383  1.00  0.00    -0.427 C  
ENDBRANCH  23  24
ENDBRANCH  22  23
ENDBRANCH  21  22
ENDBRANCH  20  21
ENDBRANCH  19  20
ENDBRANCH  13  19
ENDBRANCH  12  13
ENDBRANCH   7  12
ENDBRANCH   2   3
TORSDOF 10
ENDMDL
MODEL       39
REMARK 921   NORMALIZED FREE ENERGY PREDICTED BY IDOCK:   -5.41 KCAL/MOL
REMARK 922        TOTAL FREE ENERGY PREDICTED BY IDOCK:   -9.84 KCAL/MOL
REMARK 923 INTER-LIGAND FREE ENERGY PREDICTED BY IDOCK:   -8.87 KCAL/MOL
REMARK 924 INTRA-LIGAND FREE ENERGY PREDICTED BY IDOCK:   -0.98 KCAL/MOL
REMARK 927      BINDING AFFINITY PREDICTED BY RF-SCORE:    0.00 PKD
ROOT
HETATM    1  C   UNL     1      -8.287   7.513  72.234  1.00  0.00    -0.103 C  
HETATM    2  O   UNL     1      -8.227   8.856  71.779  1.00  0.00    -0.318 OA 
ENDROOT
BRANCH   2   3
HETATM    3  C   UNL     1      -9.036   9.225  70.740  1.00  0.00    -0.232 A  
HETATM    4  C   UNL     1      -8.700   9.366  69.387  1.00  0.00    -0.157 A  
HETATM    5  C   UNL     1     -10.329   9.561  71.156  1.00  0.00    -0.330 A  
HETATM    6  C   UNL     1      -9.663   9.859  68.494  1.00  0.00    -0.163 A  
HETATM    7  C   UNL     1     -10.919  10.336  68.931  1.00  0.00    -0.279 A  
HETATM    8 BR   UNL     1     -13.007  10.407  70.958  1.00  0.00    -0.466 Br 
HETATM    9  C   UNL     1     -11.268  10.086  70.266  1.00  0.00    -0.313 A  
BRANCH   4  10
HETATM   10  O   UNL     1      -7.456   9.003  68.959  1.00  0.00    -0.072 OA 
HETATM   11  C   UNL     1      -6.902   9.802  67.913  1.00  0.00    -0.073 C  
ENDBRANCH   4  10
BRANCH   7  12
HETATM   12  C   UNL     1     -11.748  11.208  68.000  1.00  0.00    -0.212 C  
BRANCH  12  13
HETATM   13  N   UNL     1     -11.152  12.659  67.754  1.00  0.00    -0.235 N  
HETATM   14  O   UNL     1     -10.330  14.500  65.578  1.00  0.00    -0.315 OA 
HETATM   15  C   UNL     1      -9.797  12.565  66.979  1.00  0.00    -0.217 C  
HETATM   16  C   UNL     1      -9.354  13.948  66.462  1.00  0.00    -0.247 C  
HETATM   17  C   UNL     1     -12.137  13.395  66.794  1.00  0.00    -0.365 C  
HETATM   18  C   UNL     1     -11.579  14.707  66.240  1.00  0.00    -0.342 C  
BRANCH  13  19
HETATM   19  C   UNL     1     -10.968  13.427  69.107  1.00  0.00    -0.168 C  
BRANCH  19  20
HETATM   20  C   UNL     1     -12.302  14.031  69.595  1.00  0.00    -0.260 C  
BRANCH  20  21
HETATM   21  O   UNL     1     -12.259  15.432  69.845  1.00  0.00    -0.342 OA 
BRANCH  21  22
HETATM   22  C   UNL     1     -10.920  15.974  69.688  1.00  0.00    -0.326 C  
BRANCH  22  23
HETATM   23  C   UNL     1     -10.866  17.142  68.700  1.00  0.00    -0.250 C  
BRANCH  23  24
HETATM   24  C   UNL     1      -9.663  18.098  68.804  1.00  0.00    -0.337 C  
HETATM   25  C   UNL     1     -10.172  19.542  68.534  1.00  0.00    -0.517 C  
HETATM   26  C   UNL     1      -9.790  20.127  67.167  1.00  0.00    -0.586 C  
HETATM   27  C   UNL     1      -8.577  19.420  66.562  1.00  0.00    -0.363 C  
HETATM   28  C   UNL     1      -8.930  17.921  66.339  1.00  0.00    -0.247 C  
HETATM   29  C   UNL     1      -8.510  17.742  67.830  1.00  0.00    -0.245 C  
HETATM   30  C   UNL     1      -7.443  18.903  67.541  1.00  0.00    -0.244 C  
HETATM   31  C   UNL     1      -7.004  19.788  68.711  1.00  0.00    -0.366 C  
HETATM   32  C   UNL     1      -6.152  18.502  66.791  1.00  0.00    -0.176 C  
ENDBRANCH  23  24
ENDBRANCH  22  23
ENDBRANCH  21  22
ENDBRANCH  20  21
ENDBRANCH  19  20
ENDBRANCH  13  19
ENDBRANCH  12  13
ENDBRANCH   7  12
ENDBRANCH   2   3
TORSDOF 10
ENDMDL
MODEL       40
REMARK 921   NORMALIZED FREE ENERGY PREDICTED BY IDOCK:   -5.39 KCAL/MOL
REMARK 922        TOTAL FREE ENERGY PREDICTED BY IDOCK:   -9.82 KCAL/MOL
REMARK 923 INTER-LIGAND FREE ENERGY PREDICTED BY IDOCK:   -8.41 KCAL/MOL
REMARK 924 INTRA-LIGAND FREE ENERGY PREDICTED BY IDOCK:   -1.41 KCAL/MOL
REMARK 927      BINDING AFFINITY PREDICTED BY RF-SCORE:    0.00 PKD
ROOT
HETATM    1  C   UNL     1      -5.518   9.756  70.887  1.00  0.00    -0.065 C  
HETATM    2  O   UNL     1      -6.466  10.798  70.707  1.00  0.00    -0.348 OA 
ENDROOT
BRANCH   2   3
HETATM    3  C   UNL     1      -7.014  10.968  69.466  1.00  0.00    -0.126 A  
HETATM    4  C   UNL     1      -6.851  12.046  68.585  1.00  0.00    -0.091 A  
HETATM    5  C   UNL     1      -7.896   9.937  69.120  1.00  0.00    -0.105 A  
HETATM    6  C   UNL     1      -7.591  12.070  67.394  1.00  0.00    -0.151 A  
HETATM    7  C   UNL     1      -8.587  11.110  67.108  1.00  0.00    -0.139 A  
HETATM    8 BR   UNL     1      -9.737   8.476  67.570  1.00  0.00    -0.228 Br 
HETATM    9  C   UNL     1      -8.655   9.990  67.949  1.00  0.00    -0.121 A  
BRANCH   4  10
HETATM   10  O   UNL     1      -5.963  13.037  68.890  1.00  0.00    -0.072 OA 
HETATM   11  C   UNL     1      -5.845  14.082  67.924  1.00  0.00    -0.122 C  
ENDBRANCH   4  10
BRANCH   7  12
HETATM   12  C   UNL     1      -9.610  11.402  66.021  1.00  0.00    -0.221 C  
BRANCH  12  13
HETATM   13  N   UNL     1     -10.550  12.647  66.320  1.00  0.00    -0.250 N  
HETATM   14  O   UNL     1     -11.939  14.893  64.970  1.00  0.00    -0.336 OA 
HETATM   15  C   UNL     1      -9.856  13.972  65.865  1.00  0.00    -0.281 C  
HETATM   16  C   UNL     1     -10.852  15.149  65.859  1.00  0.00    -0.339 C  
HETATM   17  C   UNL     1     -11.806  12.494  65.408  1.00  0.00    -0.428 C  
HETATM   18  C   UNL     1     -12.686  13.745  65.372  1.00  0.00    -0.472 C  
BRANCH  13  19
HETATM   19  C   UNL     1     -10.932  12.709  67.838  1.00  0.00    -0.230 C  
BRANCH  19  20
HETATM   20  C   UNL     1     -11.901  11.572  68.220  1.00  0.00    -0.256 C  
BRANCH  20  21
HETATM   21  O   UNL     1     -12.264  11.542  69.597  1.00  0.00    -0.286 OA 
BRANCH  21  22
HETATM   22  C   UNL     1     -11.429  10.631  70.362  1.00  0.00    -0.334 C  
BRANCH  22  23
HETATM   23  C   UNL     1     -12.238   9.552  71.086  1.00  0.00    -0.421 C  
BRANCH  23  24
HETATM   24  C   UNL     1     -11.500   8.704  72.138  1.00  0.00    -0.443 C  
HETATM   25  C   UNL     1      -9.975   8.805  71.853  1.00  0.00    -0.401 C  
HETATM   26  C   UNL     1      -9.340   7.553  71.232  1.00  0.00    -0.157 C  
HETATM   27  C   UNL     1     -10.175   6.299  71.493  1.00  0.00    -0.233 C  
HETATM   28  C   UNL     1     -11.572   6.482  70.833  1.00  0.00    -0.417 C  
HETATM   29  C   UNL     1     -11.948   7.220  72.155  1.00  0.00    -0.307 C  
HETATM   30  C   UNL     1     -10.951   6.187  72.870  1.00  0.00    -0.294 C  
HETATM   31  C   UNL     1     -10.256   6.631  74.160  1.00  0.00    -0.390 C  
HETATM   32  C   UNL     1     -11.486   4.761  73.133  1.00  0.00    -0.348 C  
ENDBRANCH  23  24
ENDBRANCH  22  23
ENDBRANCH  21  22
ENDBRANCH  20  21
ENDBRANCH  19  20
ENDBRANCH  13  19
ENDBRANCH  12  13
ENDBRANCH   7  12
ENDBRANCH   2   3
TORSDOF 10
ENDMDL
MODEL       41
REMARK 921   NORMALIZED FREE ENERGY PREDICTED BY IDOCK:   -5.38 KCAL/MOL
REMARK 922        TOTAL FREE ENERGY PREDICTED BY IDOCK:   -9.80 KCAL/MOL
REMARK 923 INTER-LIGAND FREE ENERGY PREDICTED BY IDOCK:   -8.85 KCAL/MOL
REMARK 924 INTRA-LIGAND FREE ENERGY PREDICTED BY IDOCK:   -0.95 KCAL/MOL
REMARK 927      BINDING AFFINITY PREDICTED BY RF-SCORE:    0.00 PKD
ROOT
HETATM    1  C   UNL     1     -14.385   8.753  72.092  1.00  0.00    -0.393 C  
HETATM    2  O   UNL     1     -13.306   9.652  72.306  1.00  0.00    -0.438 OA 
ENDROOT
BRANCH   2   3
HETATM    3  C   UNL     1     -12.371   9.788  71.319  1.00  0.00    -0.371 A  
HETATM    4  C   UNL     1     -11.350   8.897  70.962  1.00  0.00    -0.291 A  
HETATM    5  C   UNL     1     -12.449  11.025  70.668  1.00  0.00    -0.465 A  
HETATM    6  C   UNL     1     -10.425   9.279  69.979  1.00  0.00    -0.254 A  
HETATM    7  C   UNL     1     -10.411  10.578  69.424  1.00  0.00    -0.264 A  
HETATM    8 BR   UNL     1     -11.793  13.077  68.855  1.00  0.00    -0.336 Br 
HETATM    9  C   UNL     1     -11.502  11.410  69.717  1.00  0.00    -0.300 A  
BRANCH   4  10
HETATM   10  O   UNL     1     -11.286   7.671  71.558  1.00  0.00    -0.247 OA 
HETATM   11  C   UNL     1     -11.680   6.565  70.745  1.00  0.00    -0.366 C  
ENDBRANCH   4  10
BRANCH   7  12
HETATM   12  C   UNL     1      -9.174  11.054  68.678  1.00  0.00    -0.185 C  
BRANCH  12  13
HETATM   13  N   UNL     1      -8.950  10.360  67.268  1.00  0.00    -0.135 N  
HETATM   14  O   UNL     1      -6.962   8.770  65.745  1.00  0.00    -0.074 OA 
HETATM   15  C   UNL     1      -7.689  10.959  66.562  1.00  0.00    -0.149 C  
HETATM   16  C   UNL     1      -7.273  10.106  65.347  1.00  0.00    -0.144 C  
HETATM   17  C   UNL     1      -8.604   8.865  67.550  1.00  0.00    -0.120 C  
HETATM   18  C   UNL     1      -8.095   8.117  66.316  1.00  0.00    -0.107 C  
BRANCH  13  19
HETATM   19  C   UNL     1     -10.219  10.508  66.361  1.00  0.00    -0.237 C  
BRANCH  19  20
HETATM   20  C   UNL     1     -10.128  11.762  65.468  1.00  0.00    -0.249 C  
BRANCH  20  21
HETATM   21  O   UNL     1     -11.357  12.464  65.307  1.00  0.00    -0.310 OA 
BRANCH  21  22
HETATM   22  C   UNL     1     -11.168  13.755  64.667  1.00  0.00    -0.378 C  
BRANCH  22  23
HETATM   23  C   UNL     1     -11.245  14.923  65.654  1.00  0.00    -0.347 C  
BRANCH  23  24
HETATM   24  C   UNL     1     -10.001  15.822  65.779  1.00  0.00    -0.389 C  
HETATM   25  C   UNL     1      -8.964  15.085  66.672  1.00  0.00    -0.313 C  
HETATM   26  C   UNL     1      -8.806  15.645  68.093  1.00  0.00    -0.174 C  
HETATM   27  C   UNL     1      -9.284  17.094  68.193  1.00  0.00    -0.261 C  
HETATM   28  C   UNL     1     -10.800  17.146  67.842  1.00  0.00    -0.294 C  
HETATM   29  C   UNL     1     -10.314  17.225  66.361  1.00  0.00    -0.316 C  
HETATM   30  C   UNL     1      -9.065  18.044  66.944  1.00  0.00    -0.273 C  
HETATM   31  C   UNL     1      -7.740  17.981  66.179  1.00  0.00    -0.266 C  
HETATM   32  C   UNL     1      -9.299  19.533  67.286  1.00  0.00    -0.403 C  
ENDBRANCH  23  24
ENDBRANCH  22  23
ENDBRANCH  21  22
ENDBRANCH  20  21
ENDBRANCH  19  20
ENDBRANCH  13  19
ENDBRANCH  12  13
ENDBRANCH   7  12
ENDBRANCH   2   3
TORSDOF 10
ENDMDL
MODEL       42
REMARK 921   NORMALIZED FREE ENERGY PREDICTED BY IDOCK:   -5.36 KCAL/MOL
REMARK 922        TOTAL FREE ENERGY PREDICTED BY IDOCK:   -9.77 KCAL/MOL
REMARK 923 INTER-LIGAND FREE ENERGY PREDICTED BY IDOCK:   -8.06 KCAL/MOL
REMARK 924 INTRA-LIGAND FREE ENERGY PREDICTED BY IDOCK:   -1.71 KCAL/MOL
REMARK 927      BINDING AFFINITY PREDICTED BY RF-SCORE:    0.00 PKD
ROOT
HETATM    1  C   UNL     1     -12.534  14.619  64.125  1.00  0.00    -0.147 C  
HETATM    2  O   UNL     1     -12.791  14.023  65.388  1.00  0.00    -0.658 OA 
ENDROOT
BRANCH   2   3
HETATM    3  C   UNL     1     -11.738  13.500  66.085  1.00  0.00    -0.365 A  
HETATM    4  C   UNL     1     -11.064  14.051  67.183  1.00  0.00    -0.303 A  
HETATM    5  C   UNL     1     -11.272  12.299  65.538  1.00  0.00    -0.376 A  
HETATM    6  C   UNL     1      -9.933  13.395  67.688  1.00  0.00    -0.229 A  
HETATM    7  C   UNL     1      -9.374  12.264  67.053  1.00  0.00    -0.205 A  
HETATM    8 BR   UNL     1      -9.669  10.003  65.242  1.00  0.00    -0.383 Br 
HETATM    9  C   UNL     1     -10.123  11.673  66.026  1.00  0.00    -0.224 A  
BRANCH   4  10
HETATM   10  O   UNL     1     -11.532  15.200  67.753  1.00  0.00    -0.325 OA 
HETATM   11  C   UNL     1     -11.617  15.195  69.179  1.00  0.00    -0.323 C  
ENDBRANCH   4  10
BRANCH   7  12
HETATM   12  C   UNL     1      -7.955  11.841  67.401  1.00  0.00    -0.155 C  
BRANCH  12  13
HETATM   13  N   UNL     1      -7.850  10.839  68.628  1.00  0.00    -0.114 N  
HETATM   14  O   UNL     1      -8.689   8.130  69.501  1.00  0.00    -0.139 OA 
HETATM   15  C   UNL     1      -9.276  10.482  69.162  1.00  0.00    -0.171 C  
HETATM   16  C   UNL     1      -9.224   9.291  70.139  1.00  0.00    -0.225 C  
HETATM   17  C   UNL     1      -7.262   9.504  68.073  1.00  0.00    -0.081 C  
HETATM   18  C   UNL     1      -7.346   8.344  69.066  1.00  0.00    -0.088 C  
BRANCH  13  19
HETATM   19  C   UNL     1      -6.962  11.440  69.770  1.00  0.00     0.038 C  
BRANCH  19  20
HETATM   20  C   UNL     1      -6.148  12.651  69.269  1.00  0.00    -0.100 C  
BRANCH  20  21
HETATM   21  O   UNL     1      -6.533  13.898  69.838  1.00  0.00    -0.129 OA 
BRANCH  21  22
HETATM   22  C   UNL     1      -6.566  14.963  68.849  1.00  0.00    -0.090 C  
BRANCH  22  23
HETATM   23  C   UNL     1      -7.367  16.181  69.316  1.00  0.00    -0.231 C  
BRANCH  23  24
HETATM   24  C   UNL     1      -8.403  16.762  68.336  1.00  0.00    -0.222 C  
HETATM   25  C   UNL     1      -7.945  16.414  66.892  1.00  0.00    -0.269 C  
HETATM   26  C   UNL     1      -7.371  17.588  66.086  1.00  0.00    -0.347 C  
HETATM   27  C   UNL     1      -7.830  18.938  66.636  1.00  0.00    -0.271 C  
HETATM   28  C   UNL     1      -7.313  19.086  68.096  1.00  0.00    -0.298 C  
HETATM   29  C   UNL     1      -8.598  18.293  68.486  1.00  0.00    -0.323 C  
HETATM   30  C   UNL     1      -9.288  19.043  67.248  1.00  0.00    -0.344 C  
HETATM   31  C   UNL     1     -10.450  18.345  66.537  1.00  0.00    -0.411 C  
HETATM   32  C   UNL     1      -9.731  20.507  67.471  1.00  0.00    -0.554 C  
ENDBRANCH  23  24
ENDBRANCH  22  23
ENDBRANCH  21  22
ENDBRANCH  20  21
ENDBRANCH  19  20
ENDBRANCH  13  19
ENDBRANCH  12  13
ENDBRANCH   7  12
ENDBRANCH   2   3
TORSDOF 10
ENDMDL
MODEL       43
REMARK 921   NORMALIZED FREE ENERGY PREDICTED BY IDOCK:   -5.36 KCAL/MOL
REMARK 922        TOTAL FREE ENERGY PREDICTED BY IDOCK:   -9.77 KCAL/MOL
REMARK 923 INTER-LIGAND FREE ENERGY PREDICTED BY IDOCK:   -8.68 KCAL/MOL
REMARK 924 INTRA-LIGAND FREE ENERGY PREDICTED BY IDOCK:   -1.09 KCAL/MOL
REMARK 927      BINDING AFFINITY PREDICTED BY RF-SCORE:    0.00 PKD
ROOT
HETATM    1  C   UNL     1      -7.926   6.855  69.680  1.00  0.00    -0.125 C  
HETATM    2  O   UNL     1      -9.108   7.312  70.322  1.00  0.00    -0.151 OA 
ENDROOT
BRANCH   2   3
HETATM    3  C   UNL     1      -9.669   8.481  69.889  1.00  0.00    -0.179 A  
HETATM    4  C   UNL     1     -10.492   9.365  70.600  1.00  0.00    -0.290 A  
HETATM    5  C   UNL     1      -9.413   8.734  68.536  1.00  0.00    -0.149 A  
HETATM    6  C   UNL     1     -11.050  10.463  69.931  1.00  0.00    -0.367 A  
HETATM    7  C   UNL     1     -10.914  10.643  68.537  1.00  0.00    -0.296 A  
HETATM    8 BR   UNL     1      -9.487  10.077  66.063  1.00  0.00    -0.271 Br 
HETATM    9  C   UNL     1     -10.003   9.810  67.871  1.00  0.00    -0.163 A  
BRANCH   4  10
HETATM   10  O   UNL     1     -10.717   9.154  71.930  1.00  0.00    -0.357 OA 
HETATM   11  C   UNL     1     -11.869   8.372  72.248  1.00  0.00    -0.389 C  
ENDBRANCH   4  10
BRANCH   7  12
HETATM   12  C   UNL     1     -11.848  11.604  67.816  1.00  0.00    -0.176 C  
BRANCH  12  13
HETATM   13  N   UNL     1     -11.491  13.138  68.012  1.00  0.00    -0.290 N  
HETATM   14  O   UNL     1     -10.148  14.995  69.896  1.00  0.00    -0.163 OA 
HETATM   15  C   UNL     1     -12.134  13.682  69.329  1.00  0.00    -0.314 C  
HETATM   16  C   UNL     1     -11.561  15.065  69.700  1.00  0.00    -0.304 C  
HETATM   17  C   UNL     1      -9.948  13.219  68.232  1.00  0.00    -0.236 C  
HETATM   18  C   UNL     1      -9.473  14.594  68.703  1.00  0.00    -0.211 C  
BRANCH  13  19
HETATM   19  C   UNL     1     -11.951  13.984  66.775  1.00  0.00    -0.444 C  
BRANCH  19  20
HETATM   20  C   UNL     1     -11.020  13.762  65.566  1.00  0.00    -0.299 C  
BRANCH  20  21
HETATM   21  O   UNL     1     -10.348  14.933  65.115  1.00  0.00    -0.382 OA 
BRANCH  21  22
HETATM   22  C   UNL     1     -11.272  16.018  64.829  1.00  0.00    -0.339 C  
BRANCH  22  23
HETATM   23  C   UNL     1     -10.695  17.394  65.170  1.00  0.00     0.129 C  
BRANCH  23  24
HETATM   24  C   UNL     1      -9.811  17.496  66.426  1.00  0.00    -0.316 C  
HETATM   25  C   UNL     1     -10.704  17.980  67.604  1.00  0.00    -0.360 C  
HETATM   26  C   UNL     1     -10.489  19.439  68.032  1.00  0.00    -0.512 C  
HETATM   27  C   UNL     1      -9.121  19.966  67.600  1.00  0.00    -0.431 C  
HETATM   28  C   UNL     1      -9.036  19.925  66.047  1.00  0.00    -0.321 C  
HETATM   29  C   UNL     1      -8.596  18.442  66.247  1.00  0.00    -0.215 C  
HETATM   30  C   UNL     1      -7.896  18.960  67.593  1.00  0.00    -0.265 C  
HETATM   31  C   UNL     1      -7.735  17.970  68.750  1.00  0.00    -0.273 C  
HETATM   32  C   UNL     1      -6.538  19.683  67.447  1.00  0.00    -0.223 C  
ENDBRANCH  23  24
ENDBRANCH  22  23
ENDBRANCH  21  22
ENDBRANCH  20  21
ENDBRANCH  19  20
ENDBRANCH  13  19
ENDBRANCH  12  13
ENDBRANCH   7  12
ENDBRANCH   2   3
TORSDOF 10
ENDMDL
MODEL       44
REMARK 921   NORMALIZED FREE ENERGY PREDICTED BY IDOCK:   -5.33 KCAL/MOL
REMARK 922        TOTAL FREE ENERGY PREDICTED BY IDOCK:   -9.73 KCAL/MOL
REMARK 923 INTER-LIGAND FREE ENERGY PREDICTED BY IDOCK:   -8.34 KCAL/MOL
REMARK 924 INTRA-LIGAND FREE ENERGY PREDICTED BY IDOCK:   -1.39 KCAL/MOL
REMARK 927      BINDING AFFINITY PREDICTED BY RF-SCORE:    0.00 PKD
ROOT
HETATM    1  C   UNL     1     -12.466  15.597  71.534  1.00  0.00    -0.437 C  
HETATM    2  O   UNL     1     -12.502  15.620  70.114  1.00  0.00    -0.389 OA 
ENDROOT
BRANCH   2   3
HETATM    3  C   UNL     1     -11.916  14.588  69.435  1.00  0.00    -0.322 A  
HETATM    4  C   UNL     1     -11.266  14.624  68.194  1.00  0.00    -0.289 A  
HETATM    5  C   UNL     1     -12.084  13.355  70.076  1.00  0.00    -0.404 A  
HETATM    6  C   UNL     1     -10.822  13.423  67.623  1.00  0.00    -0.273 A  
HETATM    7  C   UNL     1     -11.117  12.165  68.193  1.00  0.00    -0.295 A  
HETATM    8 BR   UNL     1     -11.884  10.581  70.513  1.00  0.00    -0.471 Br 
HETATM    9  C   UNL     1     -11.672  12.162  69.481  1.00  0.00    -0.336 A  
BRANCH   4  10
HETATM   10  O   UNL     1     -11.057  15.824  67.577  1.00  0.00    -0.317 OA 
HETATM   11  C   UNL     1      -9.876  16.525  67.970  1.00  0.00    -0.240 C  
ENDBRANCH   4  10
BRANCH   7  12
HETATM   12  C   UNL     1     -10.964  10.910  67.347  1.00  0.00    -0.293 C  
BRANCH  12  13
HETATM   13  N   UNL     1      -9.467  10.405  67.186  1.00  0.00    -0.157 N  
HETATM   14  O   UNL     1      -6.662  11.369  67.260  1.00  0.00    -0.091 OA 
HETATM   15  C   UNL     1      -8.760  11.164  66.016  1.00  0.00    -0.183 C  
HETATM   16  C   UNL     1      -7.238  10.920  66.033  1.00  0.00    -0.071 C  
HETATM   17  C   UNL     1      -8.706  10.825  68.482  1.00  0.00    -0.149 C  
HETATM   18  C   UNL     1      -7.190  10.654  68.378  1.00  0.00    -0.084 C  
BRANCH  13  19
HETATM   19  C   UNL     1      -9.420   8.856  66.955  1.00  0.00    -0.177 C  
BRANCH  19  20
HETATM   20  C   UNL     1     -10.655   8.160  67.563  1.00  0.00    -0.221 C  
BRANCH  20  21
HETATM   21  O   UNL     1     -10.835   6.809  67.150  1.00  0.00    -0.324 OA 
BRANCH  21  22
HETATM   22  C   UNL     1     -10.783   5.885  68.270  1.00  0.00    -0.243 C  
BRANCH  22  23
HETATM   23  C   UNL     1     -11.395   6.465  69.548  1.00  0.00    -0.460 C  
BRANCH  23  24
HETATM   24  C   UNL     1     -10.783   6.019  70.888  1.00  0.00    -0.329 C  
HETATM   25  C   UNL     1     -11.699   6.541  72.031  1.00  0.00    -0.367 C  
HETATM   26  C   UNL     1     -11.142   7.730  72.827  1.00  0.00    -0.457 C  
HETATM   27  C   UNL     1      -9.621   7.835  72.707  1.00  0.00    -0.281 C  
HETATM   28  C   UNL     1      -9.252   8.067  71.212  1.00  0.00    -0.180 C  
HETATM   29  C   UNL     1      -9.328   6.513  71.095  1.00  0.00    -0.167 C  
HETATM   30  C   UNL     1      -8.781   6.495  72.602  1.00  0.00    -0.125 C  
HETATM   31  C   UNL     1      -9.156   5.306  73.491  1.00  0.00    -0.128 C  
HETATM   32  C   UNL     1      -7.267   6.729  72.803  1.00  0.00    -0.079 C  
ENDBRANCH  23  24
ENDBRANCH  22  23
ENDBRANCH  21  22
ENDBRANCH  20  21
ENDBRANCH  19  20
ENDBRANCH  13  19
ENDBRANCH  12  13
ENDBRANCH   7  12
ENDBRANCH   2   3
TORSDOF 10
ENDMDL
MODEL       45
REMARK 921   NORMALIZED FREE ENERGY PREDICTED BY IDOCK:   -5.32 KCAL/MOL
REMARK 922        TOTAL FREE ENERGY PREDICTED BY IDOCK:   -9.70 KCAL/MOL
REMARK 923 INTER-LIGAND FREE ENERGY PREDICTED BY IDOCK:   -8.26 KCAL/MOL
REMARK 924 INTRA-LIGAND FREE ENERGY PREDICTED BY IDOCK:   -1.44 KCAL/MOL
REMARK 927      BINDING AFFINITY PREDICTED BY RF-SCORE:    0.00 PKD
ROOT
HETATM    1  C   UNL     1     -14.066   8.775  72.125  1.00  0.00    -0.450 C  
HETATM    2  O   UNL     1     -12.948   9.628  72.325  1.00  0.00    -0.395 OA 
ENDROOT
BRANCH   2   3
HETATM    3  C   UNL     1     -12.362  10.196  71.229  1.00  0.00    -0.400 A  
HETATM    4  C   UNL     1     -11.527   9.592  70.279  1.00  0.00    -0.233 A  
HETATM    5  C   UNL     1     -12.606  11.572  71.139  1.00  0.00    -0.463 A  
HETATM    6  C   UNL     1     -10.944  10.386  69.281  1.00  0.00    -0.287 A  
HETATM    7  C   UNL     1     -11.069  11.793  69.272  1.00  0.00    -0.278 A  
HETATM    8 BR   UNL     1     -12.492  14.191  70.112  1.00  0.00    -0.341 Br 
HETATM    9  C   UNL     1     -11.991  12.359  70.163  1.00  0.00    -0.298 A  
BRANCH   4  10
HETATM   10  O   UNL     1     -11.314   8.244  70.329  1.00  0.00    -0.234 OA 
HETATM   11  C   UNL     1     -10.303   7.810  71.239  1.00  0.00    -0.198 C  
ENDBRANCH   4  10
BRANCH   7  12
HETATM   12  C   UNL     1     -10.113  12.619  68.424  1.00  0.00    -0.222 C  
BRANCH  12  13
HETATM   13  N   UNL     1     -10.466  12.649  66.876  1.00  0.00    -0.232 N  
HETATM   14  O   UNL     1     -12.041  14.172  64.876  1.00  0.00    -0.387 OA 
HETATM   15  C   UNL     1     -12.009  12.505  66.668  1.00  0.00    -0.281 C  
HETATM   16  C   UNL     1     -12.409  12.835  65.216  1.00  0.00    -0.488 C  
HETATM   17  C   UNL     1     -10.101  14.074  66.356  1.00  0.00    -0.294 C  
HETATM   18  C   UNL     1     -10.627  14.360  64.949  1.00  0.00    -0.434 C  
BRANCH  13  19
HETATM   19  C   UNL     1      -9.693  11.527  66.102  1.00  0.00    -0.223 C  
BRANCH  19  20
HETATM   20  C   UNL     1      -8.240  11.399  66.604  1.00  0.00    -0.163 C  
BRANCH  20  21
HETATM   21  O   UNL     1      -7.920  10.134  67.174  1.00  0.00    -0.108 OA 
BRANCH  21  22
HETATM   22  C   UNL     1      -7.431   9.194  66.179  1.00  0.00    -0.095 C  
BRANCH  22  23
HETATM   23  C   UNL     1      -7.239   7.783  66.739  1.00  0.00    -0.088 C  
BRANCH  23  24
HETATM   24  C   UNL     1      -8.231   6.700  66.278  1.00  0.00    -0.120 C  
HETATM   25  C   UNL     1      -9.646   7.342  66.207  1.00  0.00    -0.103 C  
HETATM   26  C   UNL     1     -10.608   6.934  67.332  1.00  0.00    -0.373 C  
HETATM   27  C   UNL     1     -10.197   5.614  67.985  1.00  0.00    -0.234 C  
HETATM   28  C   UNL     1      -8.788   5.789  68.624  1.00  0.00    -0.110 C  
HETATM   29  C   UNL     1      -8.251   5.452  67.199  1.00  0.00    -0.104 C  
HETATM   30  C   UNL     1      -9.534   4.499  67.073  1.00  0.00    -0.186 C  
HETATM   31  C   UNL     1     -10.105   4.238  65.677  1.00  0.00    -0.233 C  
HETATM   32  C   UNL     1      -9.461   3.126  67.778  1.00  0.00    -0.209 C  
ENDBRANCH  23  24
ENDBRANCH  22  23
ENDBRANCH  21  22
ENDBRANCH  20  21
ENDBRANCH  19  20
ENDBRANCH  13  19
ENDBRANCH  12  13
ENDBRANCH   7  12
ENDBRANCH   2   3
TORSDOF 10
ENDMDL
MODEL       46
REMARK 921   NORMALIZED FREE ENERGY PREDICTED BY IDOCK:   -5.31 KCAL/MOL
REMARK 922        TOTAL FREE ENERGY PREDICTED BY IDOCK:   -9.69 KCAL/MOL
REMARK 923 INTER-LIGAND FREE ENERGY PREDICTED BY IDOCK:   -8.80 KCAL/MOL
REMARK 924 INTRA-LIGAND FREE ENERGY PREDICTED BY IDOCK:   -0.89 KCAL/MOL
REMARK 927      BINDING AFFINITY PREDICTED BY RF-SCORE:    0.00 PKD
ROOT
HETATM    1  C   UNL     1     -11.208   5.366  72.592  1.00  0.00    -0.275 C  
HETATM    2  O   UNL     1     -12.024   6.334  71.948  1.00  0.00    -0.328 OA 
ENDROOT
BRANCH   2   3
HETATM    3  C   UNL     1     -11.491   7.040  70.906  1.00  0.00    -0.308 A  
HETATM    4  C   UNL     1     -11.332   8.428  70.789  1.00  0.00    -0.265 A  
HETATM    5  C   UNL     1     -11.147   6.225  69.821  1.00  0.00    -0.473 A  
HETATM    6  C   UNL     1     -10.854   8.959  69.583  1.00  0.00    -0.186 A  
HETATM    7  C   UNL     1     -10.644   8.158  68.439  1.00  0.00    -0.148 A  
HETATM    8 BR   UNL     1     -10.190   5.532  67.265  1.00  0.00    -0.284 Br 
HETATM    9  C   UNL     1     -10.706   6.767  68.613  1.00  0.00    -0.234 A  
BRANCH   4  10
HETATM   10  O   UNL     1     -11.624   9.231  71.853  1.00  0.00    -0.372 OA 
HETATM   11  C   UNL     1     -12.650  10.200  71.635  1.00  0.00    -0.434 C  
ENDBRANCH   4  10
BRANCH   7  12
HETATM   12  C   UNL     1     -10.512   8.824  67.078  1.00  0.00    -0.268 C  
BRANCH  12  13
HETATM   13  N   UNL     1      -9.188   9.680  66.890  1.00  0.00    -0.141 N  
HETATM   14  O   UNL     1      -6.337   9.419  66.113  1.00  0.00    -0.066 OA 
HETATM   15  C   UNL     1      -8.058   9.146  67.831  1.00  0.00    -0.105 C  
HETATM   16  C   UNL     1      -6.690   9.749  67.456  1.00  0.00    -0.070 C  
HETATM   17  C   UNL     1      -8.684   9.420  65.437  1.00  0.00    -0.166 C  
HETATM   18  C   UNL     1      -7.274   9.955  65.178  1.00  0.00    -0.133 C  
BRANCH  13  19
HETATM   19  C   UNL     1      -9.460  11.200  67.153  1.00  0.00    -0.172 C  
BRANCH  19  20
HETATM   20  C   UNL     1     -10.944  11.552  66.923  1.00  0.00    -0.296 C  
BRANCH  20  21
HETATM   21  O   UNL     1     -11.178  12.450  65.843  1.00  0.00    -0.306 OA 
BRANCH  21  22
HETATM   22  C   UNL     1     -12.071  13.534  66.217  1.00  0.00    -0.428 C  
BRANCH  22  23
HETATM   23  C   UNL     1     -11.465  14.466  67.269  1.00  0.00    -0.377 C  
BRANCH  23  24
HETATM   24  C   UNL     1     -11.093  15.890  66.818  1.00  0.00    -0.064 C  
HETATM   25  C   UNL     1      -9.817  15.797  65.934  1.00  0.00    -0.381 C  
HETATM   26  C   UNL     1      -8.522  16.285  66.598  1.00  0.00    -0.306 C  
HETATM   27  C   UNL     1      -8.800  17.233  67.765  1.00  0.00    -0.234 C  
HETATM   28  C   UNL     1      -9.614  16.467  68.849  1.00  0.00    -0.261 C  
HETATM   29  C   UNL     1     -10.860  16.867  67.999  1.00  0.00    -0.338 C  
HETATM   30  C   UNL     1     -10.046  18.207  67.661  1.00  0.00    -0.367 C  
HETATM   31  C   UNL     1     -10.336  18.911  66.333  1.00  0.00    -0.503 C  
HETATM   32  C   UNL     1     -10.026  19.310  68.744  1.00  0.00    -0.511 C  
ENDBRANCH  23  24
ENDBRANCH  22  23
ENDBRANCH  21  22
ENDBRANCH  20  21
ENDBRANCH  19  20
ENDBRANCH  13  19
ENDBRANCH  12  13
ENDBRANCH   7  12
ENDBRANCH   2   3
TORSDOF 10
ENDMDL
MODEL       47
REMARK 921   NORMALIZED FREE ENERGY PREDICTED BY IDOCK:   -5.31 KCAL/MOL
REMARK 922        TOTAL FREE ENERGY PREDICTED BY IDOCK:   -9.68 KCAL/MOL
REMARK 923 INTER-LIGAND FREE ENERGY PREDICTED BY IDOCK:   -8.71 KCAL/MOL
REMARK 924 INTRA-LIGAND FREE ENERGY PREDICTED BY IDOCK:   -0.98 KCAL/MOL
REMARK 927      BINDING AFFINITY PREDICTED BY RF-SCORE:    0.00 PKD
ROOT
HETATM    1  C   UNL     1     -10.786   6.542  73.090  1.00  0.00    -0.269 C  
HETATM    2  O   UNL     1     -11.196   7.897  72.976  1.00  0.00    -0.411 OA 
ENDROOT
BRANCH   2   3
HETATM    3  C   UNL     1     -10.686   8.644  71.951  1.00  0.00    -0.344 A  
HETATM    4  C   UNL     1     -11.380   9.414  71.008  1.00  0.00    -0.337 A  
HETATM    5  C   UNL     1      -9.296   8.525  71.837  1.00  0.00    -0.337 A  
HETATM    6  C   UNL     1     -10.665  10.024  69.968  1.00  0.00    -0.348 A  
HETATM    7  C   UNL     1      -9.287   9.790  69.764  1.00  0.00    -0.249 A  
HETATM    8 BR   UNL     1      -6.707   8.935  70.808  1.00  0.00    -0.068 Br 
HETATM    9  C   UNL     1      -8.598   9.106  70.776  1.00  0.00    -0.219 A  
BRANCH   4  10
HETATM   10  O   UNL     1     -12.730   9.574  71.131  1.00  0.00    -0.317 OA 
HETATM   11  C   UNL     1     -13.157  10.801  71.723  1.00  0.00    -0.468 C  
ENDBRANCH   4  10
BRANCH   7  12
HETATM   12  C   UNL     1      -8.662  10.146  68.423  1.00  0.00    -0.123 C  
BRANCH  12  13
HETATM   13  N   UNL     1      -9.098   9.202  67.223  1.00  0.00    -0.126 N  
HETATM   14  O   UNL     1      -8.200   6.835  65.678  1.00  0.00    -0.122 OA 
HETATM   15  C   UNL     1      -8.027   9.242  66.084  1.00  0.00    -0.107 C  
HETATM   16  C   UNL     1      -8.266   8.118  65.056  1.00  0.00    -0.154 C  
HETATM   17  C   UNL     1      -9.080   7.741  67.768  1.00  0.00    -0.134 C  
HETATM   18  C   UNL     1      -9.214   6.682  66.672  1.00  0.00    -0.157 C  
BRANCH  13  19
HETATM   19  C   UNL     1     -10.509   9.607  66.675  1.00  0.00    -0.163 C  
BRANCH  19  20
HETATM   20  C   UNL     1     -10.555  11.100  66.292  1.00  0.00    -0.253 C  
BRANCH  20  21
HETATM   21  O   UNL     1     -11.786  11.750  66.592  1.00  0.00    -0.569 OA 
BRANCH  21  22
HETATM   22  C   UNL     1     -12.083  12.818  65.652  1.00  0.00    -0.459 C  
BRANCH  22  23
HETATM   23  C   UNL     1     -12.040  14.205  66.298  1.00  0.00    -0.463 C  
BRANCH  23  24
HETATM   24  C   UNL     1     -10.943  14.461  67.348  1.00  0.00    -0.303 C  
HETATM   25  C   UNL     1     -11.478  15.518  68.354  1.00  0.00    -0.370 C  
HETATM   26  C   UNL     1     -10.872  16.922  68.215  1.00  0.00    -0.357 C  
HETATM   27  C   UNL     1      -9.521  16.892  67.498  1.00  0.00    -0.241 C  
HETATM   28  C   UNL     1      -9.730  16.335  66.060  1.00  0.00    -0.370 C  
HETATM   29  C   UNL     1      -9.601  14.933  66.732  1.00  0.00    -0.265 C  
HETATM   30  C   UNL     1      -8.573  15.644  67.735  1.00  0.00    -0.168 C  
HETATM   31  C   UNL     1      -8.429  15.072  69.148  1.00  0.00    -0.192 C  
HETATM   32  C   UNL     1      -7.137  15.887  67.216  1.00  0.00    -0.242 C  
ENDBRANCH  23  24
ENDBRANCH  22  23
ENDBRANCH  21  22
ENDBRANCH  20  21
ENDBRANCH  19  20
ENDBRANCH  13  19
ENDBRANCH  12  13
ENDBRANCH   7  12
ENDBRANCH   2   3
TORSDOF 10
ENDMDL
MODEL       48
REMARK 921   NORMALIZED FREE ENERGY PREDICTED BY IDOCK:   -5.30 KCAL/MOL
REMARK 922        TOTAL FREE ENERGY PREDICTED BY IDOCK:   -9.68 KCAL/MOL
REMARK 923 INTER-LIGAND FREE ENERGY PREDICTED BY IDOCK:   -8.34 KCAL/MOL
REMARK 924 INTRA-LIGAND FREE ENERGY PREDICTED BY IDOCK:   -1.34 KCAL/MOL
REMARK 927      BINDING AFFINITY PREDICTED BY RF-SCORE:    0.00 PKD
ROOT
HETATM    1  C   UNL     1     -12.933  10.675  71.444  1.00  0.00    -0.443 C  
HETATM    2  O   UNL     1     -11.977   9.683  71.789  1.00  0.00    -0.381 OA 
ENDROOT
BRANCH   2   3
HETATM    3  C   UNL     1     -11.211   9.147  70.792  1.00  0.00    -0.277 A  
HETATM    4  C   UNL     1     -11.179   7.821  70.339  1.00  0.00    -0.237 A  
HETATM    5  C   UNL     1     -10.315  10.072  70.243  1.00  0.00    -0.301 A  
HETATM    6  C   UNL     1     -10.238   7.456  69.366  1.00  0.00    -0.201 A  
HETATM    7  C   UNL     1      -9.237   8.347  68.916  1.00  0.00    -0.147 A  
HETATM    8 BR   UNL     1      -8.273  11.074  68.583  1.00  0.00    -0.151 Br 
HETATM    9  C   UNL     1      -9.357   9.689  69.302  1.00  0.00    -0.180 A  
BRANCH   4  10
HETATM   10  O   UNL     1     -12.075   6.918  70.834  1.00  0.00    -0.366 OA 
HETATM   11  C   UNL     1     -11.673   6.233  72.021  1.00  0.00    -0.322 C  
ENDBRANCH   4  10
BRANCH   7  12
HETATM   12  C   UNL     1      -8.027   7.794  68.178  1.00  0.00    -0.122 C  
BRANCH  12  13
HETATM   13  N   UNL     1      -8.299   7.416  66.660  1.00  0.00    -0.120 N  
HETATM   14  O   UNL     1      -7.510   5.466  64.568  1.00  0.00    -0.061 OA 
HETATM   15  C   UNL     1      -6.972   7.490  65.836  1.00  0.00    -0.061 C  
HETATM   16  C   UNL     1      -7.142   6.841  64.448  1.00  0.00    -0.061 C  
HETATM   17  C   UNL     1      -8.727   5.916  66.637  1.00  0.00    -0.121 C  
HETATM   18  C   UNL     1      -8.766   5.317  65.231  1.00  0.00    -0.151 C  
BRANCH  13  19
HETATM   19  C   UNL     1      -9.394   8.348  66.037  1.00  0.00    -0.177 C  
BRANCH  19  20
HETATM   20  C   UNL     1      -8.761   9.456  65.170  1.00  0.00    -0.181 C  
BRANCH  20  21
HETATM   21  O   UNL     1      -9.388   9.648  63.907  1.00  0.00    -0.222 OA 
BRANCH  21  22
HETATM   22  C   UNL     1      -9.189  10.994  63.397  1.00  0.00    -0.245 C  
BRANCH  22  23
HETATM   23  C   UNL     1     -10.431  11.876  63.550  1.00  0.00    -0.505 C  
BRANCH  23  24
HETATM   24  C   UNL     1     -11.002  12.049  64.969  1.00  0.00    -0.355 C  
HETATM   25  C   UNL     1     -12.488  12.489  64.838  1.00  0.00    -0.524 C  
HETATM   26  C   UNL     1     -12.766  13.963  65.165  1.00  0.00    -0.434 C  
HETATM   27  C   UNL     1     -11.670  14.572  66.040  1.00  0.00    -0.347 C  
HETATM   28  C   UNL     1     -10.322  14.518  65.264  1.00  0.00    -0.435 C  
HETATM   29  C   UNL     1     -10.212  13.068  65.830  1.00  0.00    -0.297 C  
HETATM   30  C   UNL     1     -10.970  13.645  67.119  1.00  0.00    -0.299 C  
HETATM   31  C   UNL     1     -11.826  12.681  67.945  1.00  0.00    -0.388 C  
HETATM   32  C   UNL     1     -10.124  14.451  68.131  1.00  0.00    -0.226 C  
ENDBRANCH  23  24
ENDBRANCH  22  23
ENDBRANCH  21  22
ENDBRANCH  20  21
ENDBRANCH  19  20
ENDBRANCH  13  19
ENDBRANCH  12  13
ENDBRANCH   7  12
ENDBRANCH   2   3
TORSDOF 10
ENDMDL
MODEL       49
REMARK 921   NORMALIZED FREE ENERGY PREDICTED BY IDOCK:   -5.29 KCAL/MOL
REMARK 922        TOTAL FREE ENERGY PREDICTED BY IDOCK:   -9.66 KCAL/MOL
REMARK 923 INTER-LIGAND FREE ENERGY PREDICTED BY IDOCK:   -8.37 KCAL/MOL
REMARK 924 INTRA-LIGAND FREE ENERGY PREDICTED BY IDOCK:   -1.29 KCAL/MOL
REMARK 927      BINDING AFFINITY PREDICTED BY RF-SCORE:    0.00 PKD
ROOT
HETATM    1  C   UNL     1     -10.743   5.346  73.414  1.00  0.00    -0.276 C  
HETATM    2  O   UNL     1     -10.773   6.717  73.783  1.00  0.00    -0.325 OA 
ENDROOT
BRANCH   2   3
HETATM    3  C   UNL     1     -10.443   7.649  72.839  1.00  0.00    -0.336 A  
HETATM    4  C   UNL     1     -11.300   8.462  72.085  1.00  0.00    -0.366 A  
HETATM    5  C   UNL     1      -9.067   7.698  72.586  1.00  0.00    -0.209 A  
HETATM    6  C   UNL     1     -10.757   9.284  71.087  1.00  0.00    -0.403 A  
HETATM    7  C   UNL     1      -9.392   9.230  70.729  1.00  0.00    -0.322 A  
HETATM    8 BR   UNL     1      -6.649   8.523  71.403  1.00  0.00    -0.073 Br 
HETATM    9  C   UNL     1      -8.541   8.492  71.565  1.00  0.00    -0.181 A  
BRANCH   4  10
HETATM   10  O   UNL     1     -12.640   8.457  72.349  1.00  0.00    -0.354 OA 
HETATM   11  C   UNL     1     -13.333   9.673  72.066  1.00  0.00    -0.457 C  
ENDBRANCH   4  10
BRANCH   7  12
HETATM   12  C   UNL     1      -8.946   9.834  69.406  1.00  0.00    -0.190 C  
BRANCH  12  13
HETATM   13  N   UNL     1      -9.362   8.992  68.126  1.00  0.00    -0.141 N  
HETATM   14  O   UNL     1      -8.298   7.003  66.199  1.00  0.00    -0.117 OA 
HETATM   15  C   UNL     1      -8.427   9.339  66.921  1.00  0.00    -0.127 C  
HETATM   16  C   UNL     1      -8.607   8.330  65.769  1.00  0.00    -0.161 C  
HETATM   17  C   UNL     1      -9.083   7.494  68.460  1.00  0.00    -0.134 C  
HETATM   18  C   UNL     1      -9.175   6.574  67.241  1.00  0.00    -0.120 C  
BRANCH  13  19
HETATM   19  C   UNL     1     -10.864   9.240  67.756  1.00  0.00    -0.126 C  
BRANCH  19  20
HETATM   20  C   UNL     1     -11.195  10.747  67.734  1.00  0.00    -0.316 C  
BRANCH  20  21
HETATM   21  O   UNL     1     -12.314  11.118  68.533  1.00  0.00    -0.561 OA 
BRANCH  21  22
HETATM   22  C   UNL     1     -12.032  12.277  69.364  1.00  0.00    -0.259 C  
BRANCH  22  23
HETATM   23  C   UNL     1     -10.709  12.957  69.003  1.00  0.00    -0.132 C  
BRANCH  23  24
HETATM   24  C   UNL     1     -10.784  14.379  68.418  1.00  0.00    -0.250 C  
HETATM   25  C   UNL     1     -11.973  14.425  67.417  1.00  0.00    -0.407 C  
HETATM   26  C   UNL     1     -11.581  14.452  65.934  1.00  0.00    -0.361 C  
HETATM   27  C   UNL     1     -10.150  14.951  65.730  1.00  0.00    -0.367 C  
HETATM   28  C   UNL     1      -9.173  13.974  66.447  1.00  0.00    -0.187 C  
HETATM   29  C   UNL     1      -9.474  14.825  67.719  1.00  0.00    -0.204 C  
HETATM   30  C   UNL     1      -9.596  16.066  66.710  1.00  0.00    -0.248 C  
HETATM   31  C   UNL     1     -10.506  17.232  67.107  1.00  0.00    -0.297 C  
HETATM   32  C   UNL     1      -8.277  16.695  66.206  1.00  0.00    -0.365 C  
ENDBRANCH  23  24
ENDBRANCH  22  23
ENDBRANCH  21  22
ENDBRANCH  20  21
ENDBRANCH  19  20
ENDBRANCH  13  19
ENDBRANCH  12  13
ENDBRANCH   7  12
ENDBRANCH   2   3
TORSDOF 10
ENDMDL
MODEL       50
REMARK 921   NORMALIZED FREE ENERGY PREDICTED BY IDOCK:   -5.29 KCAL/MOL
REMARK 922        TOTAL FREE ENERGY PREDICTED BY IDOCK:   -9.66 KCAL/MOL
REMARK 923 INTER-LIGAND FREE ENERGY PREDICTED BY IDOCK:   -8.98 KCAL/MOL
REMARK 924 INTRA-LIGAND FREE ENERGY PREDICTED BY IDOCK:   -0.68 KCAL/MOL
REMARK 927      BINDING AFFINITY PREDICTED BY RF-SCORE:    0.00 PKD
ROOT
HETATM    1  C   UNL     1     -11.364   7.509  72.842  1.00  0.00    -0.304 C  
HETATM    2  O   UNL     1     -12.107   8.673  72.510  1.00  0.00    -0.374 OA 
ENDROOT
BRANCH   2   3
HETATM    3  C   UNL     1     -11.787   9.340  71.361  1.00  0.00    -0.358 A  
HETATM    4  C   UNL     1     -12.231  10.599  70.936  1.00  0.00    -0.395 A  
HETATM    5  C   UNL     1     -10.967   8.588  70.512  1.00  0.00    -0.263 A  
HETATM    6  C   UNL     1     -11.859  11.059  69.665  1.00  0.00    -0.414 A  
HETATM    7  C   UNL     1     -11.155  10.247  68.747  1.00  0.00    -0.276 A  
HETATM    8 BR   UNL     1      -9.439   7.952  68.234  1.00  0.00    -0.153 Br 
HETATM    9  C   UNL     1     -10.633   9.040  69.233  1.00  0.00    -0.213 A  
BRANCH   4  10
HETATM   10  O   UNL     1     -12.996  11.362  71.771  1.00  0.00    -0.459 OA 
HETATM   11  C   UNL     1     -12.971  12.768  71.523  1.00  0.00    -0.292 C  
ENDBRANCH   4  10
BRANCH   7  12
HETATM   12  C   UNL     1     -11.127  10.638  67.277  1.00  0.00    -0.243 C  
BRANCH  12  13
HETATM   13  N   UNL     1      -9.794  11.368  66.817  1.00  0.00    -0.202 N  
HETATM   14  O   UNL     1      -6.847  11.029  66.780  1.00  0.00    -0.110 OA 
HETATM   15  C   UNL     1      -8.859  11.616  68.045  1.00  0.00    -0.162 C  
HETATM   16  C   UNL     1      -7.447  12.038  67.593  1.00  0.00    -0.132 C  
HETATM   17  C   UNL     1      -9.027  10.369  65.897  1.00  0.00    -0.162 C  
HETATM   18  C   UNL     1      -7.596  10.809  65.584  1.00  0.00    -0.044 C  
BRANCH  13  19
HETATM   19  C   UNL     1     -10.117  12.713  66.081  1.00  0.00    -0.257 C  
BRANCH  19  20
HETATM   20  C   UNL     1     -10.996  13.633  66.954  1.00  0.00    -0.289 C  
BRANCH  20  21
HETATM   21  O   UNL     1     -10.714  15.022  66.819  1.00  0.00    -0.296 OA 
BRANCH  21  22
HETATM   22  C   UNL     1     -10.515  15.665  68.107  1.00  0.00    -0.259 C  
BRANCH  22  23
HETATM   23  C   UNL     1     -10.769  17.174  68.061  1.00  0.00    -0.372 C  
BRANCH  23  24
HETATM   24  C   UNL     1      -9.624  18.096  68.520  1.00  0.00    -0.349 C  
HETATM   25  C   UNL     1     -10.012  19.559  68.161  1.00  0.00    -0.522 C  
HETATM   26  C   UNL     1      -9.257  20.165  66.971  1.00  0.00    -0.503 C  
HETATM   27  C   UNL     1      -7.936  19.441  66.704  1.00  0.00    -0.300 C  
HETATM   28  C   UNL     1      -8.242  17.957  66.349  1.00  0.00    -0.287 C  
HETATM   29  C   UNL     1      -8.254  17.733  67.893  1.00  0.00    -0.237 C  
HETATM   30  C   UNL     1      -7.127  18.873  67.943  1.00  0.00    -0.253 C  
HETATM   31  C   UNL     1      -7.013  19.720  69.213  1.00  0.00    -0.349 C  
HETATM   32  C   UNL     1      -5.687  18.456  67.567  1.00  0.00    -0.150 C  
ENDBRANCH  23  24
ENDBRANCH  22  23
ENDBRANCH  21  22
ENDBRANCH  20  21
ENDBRANCH  19  20
ENDBRANCH  13  19
ENDBRANCH  12  13
ENDBRANCH   7  12
ENDBRANCH   2   3
TORSDOF 10
ENDMDL
MODEL       51
REMARK 921   NORMALIZED FREE ENERGY PREDICTED BY IDOCK:   -5.29 KCAL/MOL
REMARK 922        TOTAL FREE ENERGY PREDICTED BY IDOCK:   -9.65 KCAL/MOL
REMARK 923 INTER-LIGAND FREE ENERGY PREDICTED BY IDOCK:   -8.69 KCAL/MOL
REMARK 924 INTRA-LIGAND FREE ENERGY PREDICTED BY IDOCK:   -0.96 KCAL/MOL
REMARK 927      BINDING AFFINITY PREDICTED BY RF-SCORE:    0.00 PKD
ROOT
HETATM    1  C   UNL     1      -7.862   4.055  66.886  1.00  0.00    -0.096 C  
HETATM    2  O   UNL     1      -9.222   4.442  66.755  1.00  0.00    -0.122 OA 
ENDROOT
BRANCH   2   3
HETATM    3  C   UNL     1      -9.880   4.885  67.868  1.00  0.00    -0.143 A  
HETATM    4  C   UNL     1     -10.698   6.015  68.001  1.00  0.00    -0.282 A  
HETATM    5  C   UNL     1      -9.602   4.113  69.002  1.00  0.00    -0.232 A  
HETATM    6  C   UNL     1     -11.197   6.350  69.268  1.00  0.00    -0.440 A  
HETATM    7  C   UNL     1     -10.803   5.661  70.437  1.00  0.00    -0.326 A  
HETATM    8 BR   UNL     1      -9.690   3.281  71.691  1.00  0.00    -0.219 Br 
HETATM    9  C   UNL     1     -10.073   4.477  70.265  1.00  0.00    -0.160 A  
BRANCH   4  10
HETATM   10  O   UNL     1     -11.013   6.753  66.896  1.00  0.00    -0.378 OA 
HETATM   11  C   UNL     1     -10.114   7.819  66.587  1.00  0.00    -0.224 C  
ENDBRANCH   4  10
BRANCH   7  12
HETATM   12  C   UNL     1     -11.052   6.300  71.795  1.00  0.00    -0.273 C  
BRANCH  12  13
HETATM   13  N   UNL     1      -9.917   7.304  72.268  1.00  0.00    -0.167 N  
HETATM   14  O   UNL     1      -7.286   7.367  73.636  1.00  0.00    -0.087 OA 
HETATM   15  C   UNL     1      -9.722   7.213  73.816  1.00  0.00    -0.289 C  
HETATM   16  C   UNL     1      -8.436   7.939  74.259  1.00  0.00    -0.223 C  
HETATM   17  C   UNL     1      -8.579   6.799  71.643  1.00  0.00    -0.125 C  
HETATM   18  C   UNL     1      -7.342   7.495  72.215  1.00  0.00    -0.070 C  
BRANCH  13  19
HETATM   19  C   UNL     1     -10.250   8.772  71.833  1.00  0.00    -0.345 C  
BRANCH  19  20
HETATM   20  C   UNL     1     -11.763   9.057  71.932  1.00  0.00    -0.374 C  
BRANCH  20  21
HETATM   21  O   UNL     1     -12.245  10.019  71.000  1.00  0.00    -0.313 OA 
BRANCH  21  22
HETATM   22  C   UNL     1     -11.251  10.352  69.994  1.00  0.00    -0.316 C  
BRANCH  22  23
HETATM   23  C   UNL     1     -11.769  11.348  68.954  1.00  0.00    -0.409 C  
BRANCH  23  24
HETATM   24  C   UNL     1     -11.238  11.207  67.516  1.00  0.00    -0.369 C  
HETATM   25  C   UNL     1      -9.694  11.380  67.555  1.00  0.00    -0.191 C  
HETATM   26  C   UNL     1      -9.169  12.714  67.008  1.00  0.00    -0.212 C  
HETATM   27  C   UNL     1     -10.175  13.382  66.069  1.00  0.00    -0.301 C  
HETATM   28  C   UNL     1     -11.476  13.690  66.866  1.00  0.00    -0.369 C  
HETATM   29  C   UNL     1     -11.869  12.219  66.526  1.00  0.00    -0.378 C  
HETATM   30  C   UNL     1     -11.076  12.455  65.152  1.00  0.00    -0.348 C  
HETATM   31  C   UNL     1     -10.445  11.241  64.466  1.00  0.00    -0.396 C  
HETATM   32  C   UNL     1     -11.807  13.249  64.046  1.00  0.00    -0.512 C  
ENDBRANCH  23  24
ENDBRANCH  22  23
ENDBRANCH  21  22
ENDBRANCH  20  21
ENDBRANCH  19  20
ENDBRANCH  13  19
ENDBRANCH  12  13
ENDBRANCH   7  12
ENDBRANCH   2   3
TORSDOF 10
ENDMDL
MODEL       52
REMARK 921   NORMALIZED FREE ENERGY PREDICTED BY IDOCK:   -5.29 KCAL/MOL
REMARK 922        TOTAL FREE ENERGY PREDICTED BY IDOCK:   -9.65 KCAL/MOL
REMARK 923 INTER-LIGAND FREE ENERGY PREDICTED BY IDOCK:   -8.61 KCAL/MOL
REMARK 924 INTRA-LIGAND FREE ENERGY PREDICTED BY IDOCK:   -1.05 KCAL/MOL
REMARK 927      BINDING AFFINITY PREDICTED BY RF-SCORE:    0.00 PKD
ROOT
HETATM    1  C   UNL     1     -12.590  12.624  70.836  1.00  0.00    -0.249 C  
HETATM    2  O   UNL     1     -13.043  11.383  71.357  1.00  0.00    -0.385 OA 
ENDROOT
BRANCH   2   3
HETATM    3  C   UNL     1     -12.345  10.253  71.036  1.00  0.00    -0.381 A  
HETATM    4  C   UNL     1     -12.730   8.916  71.210  1.00  0.00    -0.248 A  
HETATM    5  C   UNL     1     -11.065  10.530  70.542  1.00  0.00    -0.267 A  
HETATM    6  C   UNL     1     -11.815   7.899  70.906  1.00  0.00    -0.242 A  
HETATM    7  C   UNL     1     -10.476   8.173  70.547  1.00  0.00    -0.222 A  
HETATM    8 BR   UNL     1      -8.486  10.037  69.526  1.00  0.00    -0.185 Br 
HETATM    9  C   UNL     1     -10.149   9.510  70.277  1.00  0.00    -0.262 A  
BRANCH   4  10
HETATM   10  O   UNL     1     -13.990   8.630  71.651  1.00  0.00    -0.393 OA 
HETATM   11  C   UNL     1     -14.385   7.261  71.550  1.00  0.00    -0.396 C  
ENDBRANCH   4  10
BRANCH   7  12
HETATM   12  C   UNL     1      -9.444   7.058  70.616  1.00  0.00    -0.165 C  
BRANCH  12  13
HETATM   13  N   UNL     1      -9.360   6.159  69.311  1.00  0.00    -0.134 N  
HETATM   14  O   UNL     1      -8.144   3.657  68.280  1.00  0.00    -0.074 OA 
HETATM   15  C   UNL     1      -7.876   6.025  68.837  1.00  0.00    -0.096 C  
HETATM   16  C   UNL     1      -7.729   4.924  67.768  1.00  0.00    -0.083 C  
HETATM   17  C   UNL     1      -9.803   4.721  69.723  1.00  0.00    -0.218 C  
HETATM   18  C   UNL     1      -9.524   3.668  68.649  1.00  0.00    -0.140 C  
BRANCH  13  19
HETATM   19  C   UNL     1     -10.259   6.743  68.168  1.00  0.00    -0.174 C  
BRANCH  19  20
HETATM   20  C   UNL     1      -9.431   7.593  67.183  1.00  0.00    -0.155 C  
BRANCH  20  21
HETATM   21  O   UNL     1     -10.182   8.574  66.473  1.00  0.00    -0.289 OA 
BRANCH  21  22
HETATM   22  C   UNL     1      -9.336   9.407  65.635  1.00  0.00    -0.246 C  
BRANCH  22  23
HETATM   23  C   UNL     1     -10.136  10.397  64.784  1.00  0.00    -0.387 C  
BRANCH  23  24
HETATM   24  C   UNL     1      -9.991  11.893  65.120  1.00  0.00    -0.276 C  
HETATM   25  C   UNL     1     -10.063  12.048  66.666  1.00  0.00    -0.220 C  
HETATM   26  C   UNL     1     -11.372  12.640  67.205  1.00  0.00    -0.372 C  
HETATM   27  C   UNL     1     -12.123  13.435  66.136  1.00  0.00    -0.481 C  
HETATM   28  C   UNL     1     -12.498  12.475  64.969  1.00  0.00    -0.494 C  
HETATM   29  C   UNL     1     -11.063  12.782  64.439  1.00  0.00    -0.386 C  
HETATM   30  C   UNL     1     -11.276  14.242  65.067  1.00  0.00    -0.364 C  
HETATM   31  C   UNL     1     -10.038  15.018  65.525  1.00  0.00    -0.400 C  
HETATM   32  C   UNL     1     -12.139  15.237  64.258  1.00  0.00    -0.222 C  
ENDBRANCH  23  24
ENDBRANCH  22  23
ENDBRANCH  21  22
ENDBRANCH  20  21
ENDBRANCH  19  20
ENDBRANCH  13  19
ENDBRANCH  12  13
ENDBRANCH   7  12
ENDBRANCH   2   3
TORSDOF 10
ENDMDL
MODEL       53
REMARK 921   NORMALIZED FREE ENERGY PREDICTED BY IDOCK:   -5.29 KCAL/MOL
REMARK 922        TOTAL FREE ENERGY PREDICTED BY IDOCK:   -9.65 KCAL/MOL
REMARK 923 INTER-LIGAND FREE ENERGY PREDICTED BY IDOCK:   -9.09 KCAL/MOL
REMARK 924 INTRA-LIGAND FREE ENERGY PREDICTED BY IDOCK:   -0.56 KCAL/MOL
REMARK 927      BINDING AFFINITY PREDICTED BY RF-SCORE:    0.00 PKD
ROOT
HETATM    1  C   UNL     1     -10.973   9.000  71.994  1.00  0.00    -0.285 C  
HETATM    2  O   UNL     1     -10.634   8.772  70.634  1.00  0.00    -0.200 OA 
ENDROOT
BRANCH   2   3
HETATM    3  C   UNL     1     -10.971   9.725  69.714  1.00  0.00    -0.256 A  
HETATM    4  C   UNL     1     -10.822   9.679  68.321  1.00  0.00    -0.182 A  
HETATM    5  C   UNL     1     -11.450  10.900  70.305  1.00  0.00    -0.391 A  
HETATM    6  C   UNL     1     -11.139  10.816  67.564  1.00  0.00    -0.374 A  
HETATM    7  C   UNL     1     -11.483  12.047  68.165  1.00  0.00    -0.383 A  
HETATM    8 BR   UNL     1     -12.458  13.524  70.477  1.00  0.00    -0.334 Br 
HETATM    9  C   UNL     1     -11.727  12.038  69.545  1.00  0.00    -0.342 A  
BRANCH   4  10
HETATM   10  O   UNL     1     -10.396   8.526  67.727  1.00  0.00    -0.218 OA 
HETATM   11  C   UNL     1     -10.092   8.622  66.335  1.00  0.00    -0.224 C  
ENDBRANCH   4  10
BRANCH   7  12
HETATM   12  C   UNL     1     -11.427  13.321  67.334  1.00  0.00    -0.332 C  
BRANCH  12  13
HETATM   13  N   UNL     1      -9.992  13.998  67.266  1.00  0.00    -0.239 N  
HETATM   14  O   UNL     1      -7.457  14.242  68.787  1.00  0.00    -0.121 OA 
HETATM   15  C   UNL     1      -9.782  14.948  68.490  1.00  0.00    -0.215 C  
HETATM   16  C   UNL     1      -8.306  15.377  68.615  1.00  0.00    -0.168 C  
HETATM   17  C   UNL     1      -8.944  12.855  67.434  1.00  0.00    -0.199 C  
HETATM   18  C   UNL     1      -7.520  13.366  67.662  1.00  0.00    -0.178 C  
BRANCH  13  19
HETATM   19  C   UNL     1      -9.802  14.775  65.919  1.00  0.00    -0.334 C  
BRANCH  19  20
HETATM   20  C   UNL     1     -10.590  16.101  65.919  1.00  0.00    -0.312 C  
BRANCH  20  21
HETATM   21  O   UNL     1      -9.803  17.256  65.653  1.00  0.00    -0.548 OA 
BRANCH  21  22
HETATM   22  C   UNL     1      -9.921  18.253  66.705  1.00  0.00    -0.364 C  
BRANCH  22  23
HETATM   23  C   UNL     1      -8.944  19.417  66.531  1.00  0.00    -0.391 C  
BRANCH  23  24
HETATM   24  C   UNL     1      -8.106  19.824  67.757  1.00  0.00    -0.332 C  
HETATM   25  C   UNL     1      -7.144  20.966  67.325  1.00  0.00    -0.430 C  
HETATM   26  C   UNL     1      -5.672  20.559  67.171  1.00  0.00    -0.211 C  
HETATM   27  C   UNL     1      -5.344  19.289  67.956  1.00  0.00    -0.176 C  
HETATM   28  C   UNL     1      -6.207  18.119  67.399  1.00  0.00    -0.175 C  
HETATM   29  C   UNL     1      -7.305  18.647  68.372  1.00  0.00    -0.309 C  
HETATM   30  C   UNL     1      -6.087  19.047  69.335  1.00  0.00    -0.284 C  
HETATM   31  C   UNL     1      -6.282  20.222  70.297  1.00  0.00    -0.336 C  
HETATM   32  C   UNL     1      -5.443  17.910  70.162  1.00  0.00    -0.247 C  
ENDBRANCH  23  24
ENDBRANCH  22  23
ENDBRANCH  21  22
ENDBRANCH  20  21
ENDBRANCH  19  20
ENDBRANCH  13  19
ENDBRANCH  12  13
ENDBRANCH   7  12
ENDBRANCH   2   3
TORSDOF 10
ENDMDL
MODEL       54
REMARK 921   NORMALIZED FREE ENERGY PREDICTED BY IDOCK:   -5.25 KCAL/MOL
REMARK 922        TOTAL FREE ENERGY PREDICTED BY IDOCK:   -9.60 KCAL/MOL
REMARK 923 INTER-LIGAND FREE ENERGY PREDICTED BY IDOCK:   -9.01 KCAL/MOL
REMARK 924 INTRA-LIGAND FREE ENERGY PREDICTED BY IDOCK:   -0.59 KCAL/MOL
REMARK 927      BINDING AFFINITY PREDICTED BY RF-SCORE:    0.00 PKD
ROOT
HETATM    1  C   UNL     1     -11.377   8.064  72.498  1.00  0.00    -0.406 C  
HETATM    2  O   UNL     1     -12.000   8.117  71.223  1.00  0.00    -0.289 OA 
ENDROOT
BRANCH   2   3
HETATM    3  C   UNL     1     -11.517   9.006  70.303  1.00  0.00    -0.124 A  
HETATM    4  C   UNL     1     -10.653   8.759  69.228  1.00  0.00    -0.197 A  
HETATM    5  C   UNL     1     -11.913  10.323  70.566  1.00  0.00    -0.415 A  
HETATM    6  C   UNL     1     -10.194   9.839  68.461  1.00  0.00    -0.209 A  
HETATM    7  C   UNL     1     -10.472  11.180  68.808  1.00  0.00    -0.227 A  
HETATM    8 BR   UNL     1     -12.121  13.111  70.234  1.00  0.00    -0.337 Br 
HETATM    9  C   UNL     1     -11.421  11.395  69.818  1.00  0.00    -0.300 A  
BRANCH   4  10
HETATM   10  O   UNL     1     -10.292   7.476  68.934  1.00  0.00    -0.204 OA 
HETATM   11  C   UNL     1      -9.221   7.331  68.000  1.00  0.00    -0.131 C  
ENDBRANCH   4  10
BRANCH   7  12
HETATM   12  C   UNL     1      -9.641  12.296  68.192  1.00  0.00    -0.213 C  
BRANCH  12  13
HETATM   13  N   UNL     1     -10.104  12.734  66.738  1.00  0.00    -0.232 N  
HETATM   14  O   UNL     1     -11.596  11.745  64.372  1.00  0.00    -0.313 OA 
HETATM   15  C   UNL     1      -9.518  11.760  65.665  1.00  0.00    -0.192 C  
HETATM   16  C   UNL     1     -10.188  11.973  64.293  1.00  0.00    -0.318 C  
HETATM   17  C   UNL     1     -11.652  12.543  66.680  1.00  0.00    -0.380 C  
HETATM   18  C   UNL     1     -12.225  12.663  65.267  1.00  0.00    -0.475 C  
BRANCH  13  19
HETATM   19  C   UNL     1      -9.684  14.213  66.437  1.00  0.00    -0.298 C  
BRANCH  19  20
HETATM   20  C   UNL     1      -9.673  15.065  67.723  1.00  0.00    -0.215 C  
BRANCH  20  21
HETATM   21  O   UNL     1      -8.373  15.374  68.216  1.00  0.00    -0.145 OA 
BRANCH  21  22
HETATM   22  C   UNL     1      -7.385  15.432  67.152  1.00  0.00    -0.168 C  
BRANCH  22  23
HETATM   23  C   UNL     1      -6.868  16.850  66.901  1.00  0.00    -0.250 C  
BRANCH  23  24
HETATM   24  C   UNL     1      -7.896  17.909  66.461  1.00  0.00    -0.298 C  
HETATM   25  C   UNL     1      -7.132  19.044  65.724  1.00  0.00    -0.286 C  
HETATM   26  C   UNL     1      -6.979  20.351  66.515  1.00  0.00    -0.299 C  
HETATM   27  C   UNL     1      -8.026  20.476  67.622  1.00  0.00    -0.254 C  
HETATM   28  C   UNL     1      -7.833  19.303  68.628  1.00  0.00    -0.396 C  
HETATM   29  C   UNL     1      -8.722  18.489  67.638  1.00  0.00    -0.280 C  
HETATM   30  C   UNL     1      -9.471  19.879  67.360  1.00  0.00    -0.484 C  
HETATM   31  C   UNL     1     -10.128  20.084  65.992  1.00  0.00    -0.559 C  
HETATM   32  C   UNL     1     -10.503  20.345  68.412  1.00  0.00    -0.120 C  
ENDBRANCH  23  24
ENDBRANCH  22  23
ENDBRANCH  21  22
ENDBRANCH  20  21
ENDBRANCH  19  20
ENDBRANCH  13  19
ENDBRANCH  12  13
ENDBRANCH   7  12
ENDBRANCH   2   3
TORSDOF 10
ENDMDL
MODEL       55
REMARK 921   NORMALIZED FREE ENERGY PREDICTED BY IDOCK:   -5.24 KCAL/MOL
REMARK 922        TOTAL FREE ENERGY PREDICTED BY IDOCK:   -9.58 KCAL/MOL
REMARK 923 INTER-LIGAND FREE ENERGY PREDICTED BY IDOCK:   -8.77 KCAL/MOL
REMARK 924 INTRA-LIGAND FREE ENERGY PREDICTED BY IDOCK:   -0.81 KCAL/MOL
REMARK 927      BINDING AFFINITY PREDICTED BY RF-SCORE:    0.00 PKD
ROOT
HETATM    1  C   UNL     1      -8.897   2.713  66.234  1.00  0.00    -0.133 C  
HETATM    2  O   UNL     1      -9.322   2.520  67.576  1.00  0.00    -0.178 OA 
ENDROOT
BRANCH   2   3
HETATM    3  C   UNL     1      -9.590   3.624  68.335  1.00  0.00    -0.096 A  
HETATM    4  C   UNL     1      -9.654   3.724  69.732  1.00  0.00    -0.183 A  
HETATM    5  C   UNL     1      -9.905   4.748  67.561  1.00  0.00    -0.206 A  
HETATM    6  C   UNL     1     -10.050   4.937  70.311  1.00  0.00    -0.322 A  
HETATM    7  C   UNL     1     -10.507   6.026  69.537  1.00  0.00    -0.330 A  
HETATM    8 BR   UNL     1     -10.635   7.403  66.974  1.00  0.00    -0.361 Br 
HETATM    9  C   UNL     1     -10.334   5.940  68.148  1.00  0.00    -0.210 A  
BRANCH   4  10
HETATM   10  O   UNL     1      -9.309   2.649  70.500  1.00  0.00    -0.125 OA 
HETATM   11  C   UNL     1      -9.559   2.782  71.899  1.00  0.00    -0.142 C  
ENDBRANCH   4  10
BRANCH   7  12
HETATM   12  C   UNL     1     -11.284   7.146  70.213  1.00  0.00    -0.276 C  
BRANCH  12  13
HETATM   13  N   UNL     1     -10.382   8.181  71.011  1.00  0.00    -0.194 N  
HETATM   14  O   UNL     1      -7.650   8.524  72.116  1.00  0.00    -0.170 OA 
HETATM   15  C   UNL     1      -9.882   7.547  72.350  1.00  0.00    -0.171 C  
HETATM   16  C   UNL     1      -8.772   8.403  72.992  1.00  0.00    -0.159 C  
HETATM   17  C   UNL     1      -9.101   8.420  70.154  1.00  0.00    -0.150 C  
HETATM   18  C   UNL     1      -8.005   9.183  70.900  1.00  0.00    -0.157 C  
BRANCH  13  19
HETATM   19  C   UNL     1     -11.163   9.513  71.282  1.00  0.00    -0.382 C  
BRANCH  19  20
HETATM   20  C   UNL     1     -11.564  10.206  69.964  1.00  0.00    -0.253 C  
BRANCH  20  21
HETATM   21  O   UNL     1     -10.911  11.448  69.727  1.00  0.00    -0.181 OA 
BRANCH  21  22
HETATM   22  C   UNL     1     -11.856  12.545  69.592  1.00  0.00    -0.314 C  
BRANCH  22  23
HETATM   23  C   UNL     1     -11.609  13.389  68.339  1.00  0.00    -0.368 C  
BRANCH  23  24
HETATM   24  C   UNL     1     -11.101  12.657  67.084  1.00  0.00    -0.321 C  
HETATM   25  C   UNL     1      -9.801  13.365  66.608  1.00  0.00    -0.278 C  
HETATM   26  C   UNL     1      -9.949  14.227  65.346  1.00  0.00    -0.334 C  
HETATM   27  C   UNL     1     -11.167  13.821  64.516  1.00  0.00    -0.381 C  
HETATM   28  C   UNL     1     -12.450  14.033  65.371  1.00  0.00    -0.520 C  
HETATM   29  C   UNL     1     -12.142  12.611  65.936  1.00  0.00    -0.459 C  
HETATM   30  C   UNL     1     -11.570  12.288  64.473  1.00  0.00    -0.418 C  
HETATM   31  C   UNL     1     -10.471  11.230  64.346  1.00  0.00    -0.407 C  
HETATM   32  C   UNL     1     -12.603  11.979  63.366  1.00  0.00    -0.592 C  
ENDBRANCH  23  24
ENDBRANCH  22  23
ENDBRANCH  21  22
ENDBRANCH  20  21
ENDBRANCH  19  20
ENDBRANCH  13  19
ENDBRANCH  12  13
ENDBRANCH   7  12
ENDBRANCH   2   3
TORSDOF 10
ENDMDL
MODEL       56
REMARK 921   NORMALIZED FREE ENERGY PREDICTED BY IDOCK:   -5.24 KCAL/MOL
REMARK 922        TOTAL FREE ENERGY PREDICTED BY IDOCK:   -9.57 KCAL/MOL
REMARK 923 INTER-LIGAND FREE ENERGY PREDICTED BY IDOCK:   -8.87 KCAL/MOL
REMARK 924 INTRA-LIGAND FREE ENERGY PREDICTED BY IDOCK:   -0.71 KCAL/MOL
REMARK 927      BINDING AFFINITY PREDICTED BY RF-SCORE:    0.00 PKD
ROOT
HETATM    1  C   UNL     1     -11.973  15.561  64.115  1.00  0.00    -0.072 C  
HETATM    2  O   UNL     1     -12.502  14.250  63.978  1.00  0.00    -0.700 OA 
ENDROOT
BRANCH   2   3
HETATM    3  C   UNL     1     -11.845  13.219  64.590  1.00  0.00    -0.378 A  
HETATM    4  C   UNL     1     -11.814  12.897  65.953  1.00  0.00    -0.424 A  
HETATM    5  C   UNL     1     -11.063  12.473  63.700  1.00  0.00    -0.523 A  
HETATM    6  C   UNL     1     -10.988  11.851  66.388  1.00  0.00    -0.337 A  
HETATM    7  C   UNL     1     -10.089  11.192  65.519  1.00  0.00    -0.309 A  
HETATM    8 BR   UNL     1      -9.288  10.475  62.813  1.00  0.00    -0.365 Br 
HETATM    9  C   UNL     1     -10.215  11.459  64.148  1.00  0.00    -0.324 A  
BRANCH   4  10
HETATM   10  O   UNL     1     -12.604  13.588  66.827  1.00  0.00    -0.237 OA 
HETATM   11  C   UNL     1     -12.133  13.648  68.174  1.00  0.00    -0.275 C  
ENDBRANCH   4  10
BRANCH   7  12
HETATM   12  C   UNL     1      -8.959  10.362  66.108  1.00  0.00    -0.157 C  
BRANCH  12  13
HETATM   13  N   UNL     1      -8.969  10.270  67.694  1.00  0.00    -0.134 N  
HETATM   14  O   UNL     1      -9.517   8.379  69.913  1.00  0.00    -0.164 OA 
HETATM   15  C   UNL     1     -10.398   9.897  68.207  1.00  0.00    -0.201 C  
HETATM   16  C   UNL     1     -10.370   9.504  69.698  1.00  0.00    -0.221 C  
HETATM   17  C   UNL     1      -8.054   9.067  68.082  1.00  0.00    -0.105 C  
HETATM   18  C   UNL     1      -8.165   8.671  69.555  1.00  0.00    -0.115 C  
BRANCH  13  19
HETATM   19  C   UNL     1      -8.477  11.612  68.337  1.00  0.00    -0.157 C  
BRANCH  19  20
HETATM   20  C   UNL     1      -7.113  12.043  67.760  1.00  0.00    -0.108 C  
BRANCH  20  21
HETATM   21  O   UNL     1      -7.084  13.368  67.238  1.00  0.00    -0.134 OA 
BRANCH  21  22
HETATM   22  C   UNL     1      -8.256  14.134  67.628  1.00  0.00    -0.186 C  
BRANCH  22  23
HETATM   23  C   UNL     1      -8.835  14.959  66.476  1.00  0.00    -0.256 C  
BRANCH  23  24
HETATM   24  C   UNL     1      -8.403  16.434  66.378  1.00  0.00    -0.363 C  
HETATM   25  C   UNL     1      -7.562  16.773  67.641  1.00  0.00    -0.183 C  
HETATM   26  C   UNL     1      -8.271  17.645  68.686  1.00  0.00    -0.264 C  
HETATM   27  C   UNL     1      -9.432  18.434  68.079  1.00  0.00    -0.305 C  
HETATM   28  C   UNL     1     -10.485  17.430  67.525  1.00  0.00    -0.354 C  
HETATM   29  C   UNL     1      -9.595  17.416  66.244  1.00  0.00    -0.260 C  
HETATM   30  C   UNL     1      -9.289  18.952  66.587  1.00  0.00    -0.348 C  
HETATM   31  C   UNL     1      -7.955  19.543  66.125  1.00  0.00    -0.340 C  
HETATM   32  C   UNL     1     -10.376  19.986  66.214  1.00  0.00    -0.570 C  
ENDBRANCH  23  24
ENDBRANCH  22  23
ENDBRANCH  21  22
ENDBRANCH  20  21
ENDBRANCH  19  20
ENDBRANCH  13  19
ENDBRANCH  12  13
ENDBRANCH   7  12
ENDBRANCH   2   3
TORSDOF 10
ENDMDL
MODEL       57
REMARK 921   NORMALIZED FREE ENERGY PREDICTED BY IDOCK:   -5.21 KCAL/MOL
REMARK 922        TOTAL FREE ENERGY PREDICTED BY IDOCK:   -9.53 KCAL/MOL
REMARK 923 INTER-LIGAND FREE ENERGY PREDICTED BY IDOCK:   -9.26 KCAL/MOL
REMARK 924 INTRA-LIGAND FREE ENERGY PREDICTED BY IDOCK:   -0.27 KCAL/MOL
REMARK 927      BINDING AFFINITY PREDICTED BY RF-SCORE:    0.00 PKD
ROOT
HETATM    1  C   UNL     1     -12.601  16.190  73.599  1.00  0.00    -0.575 C  
HETATM    2  O   UNL     1     -11.582  15.499  72.891  1.00  0.00    -0.455 OA 
ENDROOT
BRANCH   2   3
HETATM    3  C   UNL     1     -11.756  15.281  71.553  1.00  0.00    -0.391 A  
HETATM    4  C   UNL     1     -12.827  14.645  70.909  1.00  0.00    -0.365 A  
HETATM    5  C   UNL     1     -10.662  15.703  70.790  1.00  0.00    -0.179 A  
HETATM    6  C   UNL     1     -12.760  14.432  69.526  1.00  0.00     0.138 A  
HETATM    7  C   UNL     1     -11.599  14.723  68.775  1.00  0.00    -0.347 A  
HETATM    8 BR   UNL     1      -9.085  16.166  68.504  1.00  0.00    -0.217 Br 
HETATM    9  C   UNL     1     -10.589  15.453  69.418  1.00  0.00    -0.251 A  
BRANCH   4  10
HETATM   10  O   UNL     1     -13.920  14.266  71.635  1.00  0.00    -0.393 OA 
HETATM   11  C   UNL     1     -13.802  13.024  72.330  1.00  0.00    -0.434 C  
ENDBRANCH   4  10
BRANCH   7  12
HETATM   12  C   UNL     1     -11.438  14.118  67.389  1.00  0.00    -0.345 C  
BRANCH  12  13
HETATM   13  N   UNL     1     -10.607  12.766  67.354  1.00  0.00    -0.228 N  
HETATM   14  O   UNL     1      -8.730  11.228  65.647  1.00  0.00    -0.169 OA 
HETATM   15  C   UNL     1     -11.035  11.895  66.128  1.00  0.00    -0.308 C  
HETATM   16  C   UNL     1     -10.047  10.735  65.895  1.00  0.00    -0.256 C  
HETATM   17  C   UNL     1      -9.119  13.157  67.095  1.00  0.00    -0.230 C  
HETATM   18  C   UNL     1      -8.225  11.960  66.765  1.00  0.00    -0.129 C  
BRANCH  13  19
HETATM   19  C   UNL     1     -10.778  11.967  68.691  1.00  0.00    -0.236 C  
BRANCH  19  20
HETATM   20  C   UNL     1     -11.962  10.982  68.608  1.00  0.00    -0.177 C  
BRANCH  20  21
HETATM   21  O   UNL     1     -12.659  10.790  69.835  1.00  0.00    -0.294 OA 
BRANCH  21  22
HETATM   22  C   UNL     1     -11.823  10.163  70.845  1.00  0.00    -0.374 C  
BRANCH  22  23
HETATM   23  C   UNL     1     -12.474   8.927  71.471  1.00  0.00    -0.380 C  
BRANCH  23  24
HETATM   24  C   UNL     1     -11.638   8.125  72.484  1.00  0.00    -0.468 C  
HETATM   25  C   UNL     1     -10.146   8.519  72.295  1.00  0.00    -0.386 C  
HETATM   26  C   UNL     1      -9.271   7.465  71.603  1.00  0.00    -0.154 C  
HETATM   27  C   UNL     1      -9.876   6.064  71.705  1.00  0.00    -0.189 C  
HETATM   28  C   UNL     1     -11.257   6.061  70.987  1.00  0.00    -0.332 C  
HETATM   29  C   UNL     1     -11.811   6.590  72.346  1.00  0.00    -0.235 C  
HETATM   30  C   UNL     1     -10.674   5.685  73.022  1.00  0.00    -0.290 C  
HETATM   31  C   UNL     1     -10.120   6.118  74.382  1.00  0.00    -0.337 C  
HETATM   32  C   UNL     1     -10.952   4.168  73.128  1.00  0.00    -0.278 C  
ENDBRANCH  23  24
ENDBRANCH  22  23
ENDBRANCH  21  22
ENDBRANCH  20  21
ENDBRANCH  19  20
ENDBRANCH  13  19
ENDBRANCH  12  13
ENDBRANCH   7  12
ENDBRANCH   2   3
TORSDOF 10
ENDMDL
MODEL       58
REMARK 921   NORMALIZED FREE ENERGY PREDICTED BY IDOCK:   -5.20 KCAL/MOL
REMARK 922        TOTAL FREE ENERGY PREDICTED BY IDOCK:   -9.52 KCAL/MOL
REMARK 923 INTER-LIGAND FREE ENERGY PREDICTED BY IDOCK:   -8.92 KCAL/MOL
REMARK 924 INTRA-LIGAND FREE ENERGY PREDICTED BY IDOCK:   -0.60 KCAL/MOL
REMARK 927      BINDING AFFINITY PREDICTED BY RF-SCORE:    0.00 PKD
ROOT
HETATM    1  C   UNL     1     -11.118   7.419  72.977  1.00  0.00    -0.343 C  
HETATM    2  O   UNL     1     -10.096   7.949  72.145  1.00  0.00    -0.192 OA 
ENDROOT
BRANCH   2   3
HETATM    3  C   UNL     1     -10.454   8.483  70.939  1.00  0.00    -0.203 A  
HETATM    4  C   UNL     1     -10.231   7.961  69.657  1.00  0.00    -0.207 A  
HETATM    5  C   UNL     1     -11.050   9.744  71.062  1.00  0.00    -0.431 A  
HETATM    6  C   UNL     1     -10.591   8.725  68.538  1.00  0.00    -0.171 A  
HETATM    7  C   UNL     1     -11.056  10.054  68.653  1.00  0.00    -0.223 A  
HETATM    8 BR   UNL     1     -12.256  12.160  70.267  1.00  0.00    -0.282 Br 
HETATM    9  C   UNL     1     -11.370  10.512  69.941  1.00  0.00    -0.309 A  
BRANCH   4  10
HETATM   10  O   UNL     1      -9.690   6.715  69.522  1.00  0.00    -0.149 OA 
HETATM   11  C   UNL     1     -10.626   5.644  69.388  1.00  0.00    -0.304 C  
ENDBRANCH   4  10
BRANCH   7  12
HETATM   12  C   UNL     1     -11.052  10.953  67.426  1.00  0.00    -0.307 C  
BRANCH  12  13
HETATM   13  N   UNL     1      -9.608  11.419  66.958  1.00  0.00    -0.175 N  
HETATM   14  O   UNL     1      -6.827  10.432  66.652  1.00  0.00    -0.088 OA 
HETATM   15  C   UNL     1      -8.585  11.277  68.132  1.00  0.00    -0.150 C  
HETATM   16  C   UNL     1      -7.135  11.428  67.628  1.00  0.00    -0.092 C  
HETATM   17  C   UNL     1      -9.139  10.409  65.865  1.00  0.00    -0.165 C  
HETATM   18  C   UNL     1      -7.661  10.554  65.499  1.00  0.00    -0.120 C  
BRANCH  13  19
HETATM   19  C   UNL     1      -9.641  12.891  66.421  1.00  0.00    -0.252 C  
BRANCH  19  20
HETATM   20  C   UNL     1     -11.037  13.260  65.880  1.00  0.00    -0.285 C  
BRANCH  20  21
HETATM   21  O   UNL     1     -11.275  14.659  65.762  1.00  0.00    -0.326 OA 
BRANCH  21  22
HETATM   22  C   UNL     1     -10.039  15.414  65.638  1.00  0.00    -0.376 C  
BRANCH  22  23
HETATM   23  C   UNL     1     -10.225  16.906  65.923  1.00  0.00    -0.330 C  
BRANCH  23  24
HETATM   24  C   UNL     1      -9.288  17.548  66.962  1.00  0.00    -0.262 C  
HETATM   25  C   UNL     1     -10.149  17.980  68.183  1.00  0.00    -0.378 C  
HETATM   26  C   UNL     1     -10.391  19.490  68.313  1.00  0.00    -0.524 C  
HETATM   27  C   UNL     1      -9.341  20.305  67.557  1.00  0.00    -0.513 C  
HETATM   28  C   UNL     1      -9.428  19.953  66.044  1.00  0.00    -0.403 C  
HETATM   29  C   UNL     1      -8.493  18.758  66.408  1.00  0.00    -0.296 C  
HETATM   30  C   UNL     1      -7.858  19.748  67.499  1.00  0.00    -0.317 C  
HETATM   31  C   UNL     1      -7.239  19.134  68.757  1.00  0.00    -0.368 C  
HETATM   32  C   UNL     1      -6.850  20.803  66.988  1.00  0.00    -0.385 C  
ENDBRANCH  23  24
ENDBRANCH  22  23
ENDBRANCH  21  22
ENDBRANCH  20  21
ENDBRANCH  19  20
ENDBRANCH  13  19
ENDBRANCH  12  13
ENDBRANCH   7  12
ENDBRANCH   2   3
TORSDOF 10
ENDMDL
MODEL       59
REMARK 921   NORMALIZED FREE ENERGY PREDICTED BY IDOCK:   -5.20 KCAL/MOL
REMARK 922        TOTAL FREE ENERGY PREDICTED BY IDOCK:   -9.52 KCAL/MOL
REMARK 923 INTER-LIGAND FREE ENERGY PREDICTED BY IDOCK:   -8.72 KCAL/MOL
REMARK 924 INTRA-LIGAND FREE ENERGY PREDICTED BY IDOCK:   -0.80 KCAL/MOL
REMARK 927      BINDING AFFINITY PREDICTED BY RF-SCORE:    0.00 PKD
ROOT
HETATM    1  C   UNL     1     -10.660   7.256  73.468  1.00  0.00    -0.362 C  
HETATM    2  O   UNL     1      -9.709   7.767  72.544  1.00  0.00    -0.171 OA 
ENDROOT
BRANCH   2   3
HETATM    3  C   UNL     1     -10.150   8.163  71.313  1.00  0.00    -0.195 A  
HETATM    4  C   UNL     1      -9.963   7.527  70.078  1.00  0.00    -0.186 A  
HETATM    5  C   UNL     1     -10.800   9.402  71.345  1.00  0.00    -0.430 A  
HETATM    6  C   UNL     1     -10.412   8.160  68.911  1.00  0.00    -0.202 A  
HETATM    7  C   UNL     1     -10.937   9.472  68.921  1.00  0.00    -0.116 A  
HETATM    8 BR   UNL     1     -12.161  11.672  70.384  1.00  0.00    -0.422 Br 
HETATM    9  C   UNL     1     -11.211  10.040  70.173  1.00  0.00    -0.304 A  
BRANCH   4  10
HETATM   10  O   UNL     1      -9.368   6.299  70.035  1.00  0.00    -0.153 OA 
HETATM   11  C   UNL     1     -10.256   5.181  70.000  1.00  0.00    -0.284 C  
ENDBRANCH   4  10
BRANCH   7  12
HETATM   12  C   UNL     1     -11.035  10.244  67.614  1.00  0.00    -0.294 C  
BRANCH  12  13
HETATM   13  N   UNL     1      -9.661  10.859  67.109  1.00  0.00    -0.164 N  
HETATM   14  O   UNL     1      -6.763  10.919  67.743  1.00  0.00    -0.063 OA 
HETATM   15  C   UNL     1      -9.017  11.741  68.228  1.00  0.00    -0.180 C  
HETATM   16  C   UNL     1      -7.556  12.098  67.886  1.00  0.00    -0.123 C  
HETATM   17  C   UNL     1      -8.681   9.664  66.898  1.00  0.00    -0.131 C  
HETATM   18  C   UNL     1      -7.232  10.099  66.671  1.00  0.00    -0.105 C  
BRANCH  13  19
HETATM   19  C   UNL     1      -9.866  11.688  65.795  1.00  0.00    -0.239 C  
BRANCH  19  20
HETATM   20  C   UNL     1     -11.350  12.058  65.592  1.00  0.00    -0.329 C  
BRANCH  20  21
HETATM   21  O   UNL     1     -11.602  13.457  65.499  1.00  0.00    -0.313 OA 
BRANCH  21  22
HETATM   22  C   UNL     1     -12.023  14.021  66.770  1.00  0.00    -0.444 C  
BRANCH  22  23
HETATM   23  C   UNL     1     -10.958  14.921  67.401  1.00  0.00    -0.314 C  
BRANCH  23  24
HETATM   24  C   UNL     1     -10.779  16.329  66.804  1.00  0.00    -0.204 C  
HETATM   25  C   UNL     1      -9.460  16.338  65.980  1.00  0.00    -0.369 C  
HETATM   26  C   UNL     1      -8.288  17.088  66.628  1.00  0.00    -0.285 C  
HETATM   27  C   UNL     1      -8.764  18.102  67.669  1.00  0.00    -0.249 C  
HETATM   28  C   UNL     1      -9.509  17.343  68.804  1.00  0.00    -0.256 C  
HETATM   29  C   UNL     1     -10.756  17.452  67.872  1.00  0.00    -0.351 C  
HETATM   30  C   UNL     1     -10.134  18.856  67.411  1.00  0.00    -0.420 C  
HETATM   31  C   UNL     1     -10.457  19.360  66.002  1.00  0.00    -0.596 C  
HETATM   32  C   UNL     1     -10.335  20.059  68.360  1.00  0.00    -0.465 C  
ENDBRANCH  23  24
ENDBRANCH  22  23
ENDBRANCH  21  22
ENDBRANCH  20  21
ENDBRANCH  19  20
ENDBRANCH  13  19
ENDBRANCH  12  13
ENDBRANCH   7  12
ENDBRANCH   2   3
TORSDOF 10
ENDMDL
MODEL       60
REMARK 921   NORMALIZED FREE ENERGY PREDICTED BY IDOCK:   -5.19 KCAL/MOL
REMARK 922        TOTAL FREE ENERGY PREDICTED BY IDOCK:   -9.50 KCAL/MOL
REMARK 923 INTER-LIGAND FREE ENERGY PREDICTED BY IDOCK:   -8.48 KCAL/MOL
REMARK 924 INTRA-LIGAND FREE ENERGY PREDICTED BY IDOCK:   -1.02 KCAL/MOL
REMARK 927      BINDING AFFINITY PREDICTED BY RF-SCORE:    0.00 PKD
ROOT
HETATM    1  C   UNL     1     -10.780   7.502  72.899  1.00  0.00    -0.358 C  
HETATM    2  O   UNL     1      -9.799   7.987  71.993  1.00  0.00    -0.181 OA 
ENDROOT
BRANCH   2   3
HETATM    3  C   UNL     1     -10.217   8.477  70.787  1.00  0.00    -0.198 A  
HETATM    4  C   UNL     1     -10.056   7.908  69.516  1.00  0.00    -0.195 A  
HETATM    5  C   UNL     1     -10.808   9.741  70.893  1.00  0.00    -0.399 A  
HETATM    6  C   UNL     1     -10.472   8.631  68.389  1.00  0.00    -0.220 A  
HETATM    7  C   UNL     1     -10.933   9.963  68.478  1.00  0.00    -0.226 A  
HETATM    8 BR   UNL     1     -12.055  12.127  70.070  1.00  0.00    -0.299 Br 
HETATM    9  C   UNL     1     -11.184  10.468  69.762  1.00  0.00    -0.298 A  
BRANCH   4  10
HETATM   10  O   UNL     1      -9.521   6.658  69.400  1.00  0.00    -0.146 OA 
HETATM   11  C   UNL     1     -10.442   5.574  69.534  1.00  0.00    -0.297 C  
ENDBRANCH   4  10
BRANCH   7  12
HETATM   12  C   UNL     1     -10.990  10.816  67.220  1.00  0.00    -0.297 C  
BRANCH  12  13
HETATM   13  N   UNL     1      -9.594  11.431  66.778  1.00  0.00    -0.185 N  
HETATM   14  O   UNL     1      -6.718  11.439  67.507  1.00  0.00    -0.067 OA 
HETATM   15  C   UNL     1      -8.978  12.272  67.944  1.00  0.00    -0.186 C  
HETATM   16  C   UNL     1      -7.503  12.622  67.660  1.00  0.00    -0.143 C  
HETATM   17  C   UNL     1      -8.620  10.231  66.563  1.00  0.00    -0.132 C  
HETATM   18  C   UNL     1      -7.160  10.657  66.397  1.00  0.00    -0.134 C  
BRANCH  13  19
HETATM   19  C   UNL     1      -9.747  12.300  65.484  1.00  0.00    -0.161 C  
BRANCH  19  20
HETATM   20  C   UNL     1     -11.228  12.433  65.070  1.00  0.00    -0.312 C  
BRANCH  20  21
HETATM   21  O   UNL     1     -11.505  13.533  64.210  1.00  0.00    -0.376 OA 
BRANCH  21  22
HETATM   22  C   UNL     1     -11.945  14.706  64.948  1.00  0.00    -0.400 C  
BRANCH  22  23
HETATM   23  C   UNL     1     -10.891  15.815  64.983  1.00  0.00    -0.461 C  
BRANCH  23  24
HETATM   24  C   UNL     1      -9.968  15.872  66.213  1.00  0.00    -0.318 C  
HETATM   25  C   UNL     1     -10.770  15.354  67.440  1.00  0.00    -0.296 C  
HETATM   26  C   UNL     1     -11.214  16.434  68.437  1.00  0.00    -0.324 C  
HETATM   27  C   UNL     1     -10.363  17.699  68.325  1.00  0.00    -0.384 C  
HETATM   28  C   UNL     1     -10.533  18.292  66.896  1.00  0.00    -0.396 C  
HETATM   29  C   UNL     1      -9.407  17.290  66.495  1.00  0.00    -0.283 C  
HETATM   30  C   UNL     1      -8.827  17.542  67.969  1.00  0.00    -0.258 C  
HETATM   31  C   UNL     1      -8.017  16.422  68.627  1.00  0.00    -0.220 C  
HETATM   32  C   UNL     1      -8.030  18.847  68.197  1.00  0.00    -0.330 C  
ENDBRANCH  23  24
ENDBRANCH  22  23
ENDBRANCH  21  22
ENDBRANCH  20  21
ENDBRANCH  19  20
ENDBRANCH  13  19
ENDBRANCH  12  13
ENDBRANCH   7  12
ENDBRANCH   2   3
TORSDOF 10
ENDMDL
MODEL       61
REMARK 921   NORMALIZED FREE ENERGY PREDICTED BY IDOCK:   -5.18 KCAL/MOL
REMARK 922        TOTAL FREE ENERGY PREDICTED BY IDOCK:   -9.48 KCAL/MOL
REMARK 923 INTER-LIGAND FREE ENERGY PREDICTED BY IDOCK:   -8.97 KCAL/MOL
REMARK 924 INTRA-LIGAND FREE ENERGY PREDICTED BY IDOCK:   -0.51 KCAL/MOL
REMARK 927      BINDING AFFINITY PREDICTED BY RF-SCORE:    0.00 PKD
ROOT
HETATM    1  C   UNL     1      -8.332   5.688  64.595  1.00  0.00    -0.119 C  
HETATM    2  O   UNL     1      -7.510   6.847  64.613  1.00  0.00    -0.083 OA 
ENDROOT
BRANCH   2   3
HETATM    3  C   UNL     1      -8.115   8.068  64.715  1.00  0.00    -0.143 A  
HETATM    4  C   UNL     1      -8.023   9.159  63.839  1.00  0.00    -0.142 A  
HETATM    5  C   UNL     1      -8.844   8.212  65.901  1.00  0.00    -0.194 A  
HETATM    6  C   UNL     1      -8.646  10.365  64.186  1.00  0.00    -0.186 A  
HETATM    7  C   UNL     1      -9.258  10.561  65.444  1.00  0.00    -0.229 A  
HETATM    8 BR   UNL     1     -10.464   9.444  67.847  1.00  0.00    -0.294 Br 
HETATM    9  C   UNL     1      -9.430   9.429  66.254  1.00  0.00    -0.214 A  
BRANCH   4  10
HETATM   10  O   UNL     1      -7.350   9.020  62.659  1.00  0.00    -0.099 OA 
HETATM   11  C   UNL     1      -6.076   9.662  62.593  1.00  0.00    -0.099 C  
ENDBRANCH   4  10
BRANCH   7  12
HETATM   12  C   UNL     1      -9.559  11.977  65.913  1.00  0.00    -0.223 C  
BRANCH  12  13
HETATM   13  N   UNL     1     -10.972  12.536  65.452  1.00  0.00    -0.286 N  
HETATM   14  O   UNL     1     -12.379  13.646  63.089  1.00  0.00    -0.729 OA 
HETATM   15  C   UNL     1     -10.835  14.011  64.952  1.00  0.00    -0.410 C  
HETATM   16  C   UNL     1     -12.113  14.472  64.222  1.00  0.00    -0.425 C  
HETATM   17  C   UNL     1     -11.401  11.705  64.204  1.00  0.00    -0.317 C  
HETATM   18  C   UNL     1     -12.611  12.290  63.472  1.00  0.00    -0.476 C  
BRANCH  13  19
HETATM   19  C   UNL     1     -12.020  12.435  66.612  1.00  0.00    -0.229 C  
BRANCH  19  20
HETATM   20  C   UNL     1     -11.414  12.889  67.957  1.00  0.00    -0.319 C  
BRANCH  20  21
HETATM   21  O   UNL     1     -11.774  14.209  68.351  1.00  0.00    -0.306 OA 
BRANCH  21  22
HETATM   22  C   UNL     1     -10.641  15.118  68.313  1.00  0.00    -0.243 C  
BRANCH  22  23
HETATM   23  C   UNL     1     -11.062  16.589  68.268  1.00  0.00    -0.321 C  
BRANCH  23  24
HETATM   24  C   UNL     1      -9.962  17.645  68.481  1.00  0.00    -0.368 C  
HETATM   25  C   UNL     1     -10.385  18.938  67.728  1.00  0.00    -0.490 C  
HETATM   26  C   UNL     1      -9.612  19.225  66.434  1.00  0.00    -0.425 C  
HETATM   27  C   UNL     1      -8.262  18.508  66.403  1.00  0.00    -0.289 C  
HETATM   28  C   UNL     1      -8.509  16.972  66.461  1.00  0.00    -0.306 C  
HETATM   29  C   UNL     1      -8.562  17.178  68.007  1.00  0.00    -0.227 C  
HETATM   30  C   UNL     1      -7.474  18.331  67.767  1.00  0.00    -0.224 C  
HETATM   31  C   UNL     1      -7.426  19.496  68.760  1.00  0.00    -0.387 C  
HETATM   32  C   UNL     1      -6.011  17.883  67.551  1.00  0.00    -0.165 C  
ENDBRANCH  23  24
ENDBRANCH  22  23
ENDBRANCH  21  22
ENDBRANCH  20  21
ENDBRANCH  19  20
ENDBRANCH  13  19
ENDBRANCH  12  13
ENDBRANCH   7  12
ENDBRANCH   2   3
TORSDOF 10
ENDMDL
MODEL       62
REMARK 921   NORMALIZED FREE ENERGY PREDICTED BY IDOCK:   -5.17 KCAL/MOL
REMARK 922        TOTAL FREE ENERGY PREDICTED BY IDOCK:   -9.46 KCAL/MOL
REMARK 923 INTER-LIGAND FREE ENERGY PREDICTED BY IDOCK:   -8.45 KCAL/MOL
REMARK 924 INTRA-LIGAND FREE ENERGY PREDICTED BY IDOCK:   -1.01 KCAL/MOL
REMARK 927      BINDING AFFINITY PREDICTED BY RF-SCORE:    0.00 PKD
ROOT
HETATM    1  C   UNL     1     -13.216  10.153  72.055  1.00  0.00    -0.430 C  
HETATM    2  O   UNL     1     -13.056  11.561  72.149  1.00  0.00    -0.466 OA 
ENDROOT
BRANCH   2   3
HETATM    3  C   UNL     1     -12.615  12.237  71.046  1.00  0.00    -0.257 A  
HETATM    4  C   UNL     1     -12.653  13.617  70.800  1.00  0.00    -0.325 A  
HETATM    5  C   UNL     1     -12.145  11.384  70.041  1.00  0.00    -0.417 A  
HETATM    6  C   UNL     1     -12.239  14.098  69.551  1.00  0.00    -0.351 A  
HETATM    7  C   UNL     1     -11.902  13.233  68.485  1.00  0.00    -0.384 A  
HETATM    8 BR   UNL     1     -11.067  10.602  67.561  1.00  0.00    -0.322 Br 
HETATM    9  C   UNL     1     -11.770  11.870  68.787  1.00  0.00    -0.321 A  
BRANCH   4  10
HETATM   10  O   UNL     1     -13.069  14.465  71.786  1.00  0.00    -0.320 OA 
HETATM   11  C   UNL     1     -14.407  14.951  71.662  1.00  0.00    -0.570 C  
ENDBRANCH   4  10
BRANCH   7  12
HETATM   12  C   UNL     1     -11.849  13.784  67.069  1.00  0.00    -0.410 C  
BRANCH  12  13
HETATM   13  N   UNL     1     -10.480  14.495  66.691  1.00  0.00    -0.271 N  
HETATM   14  O   UNL     1      -8.215  15.978  67.903  1.00  0.00    -0.146 OA 
HETATM   15  C   UNL     1     -10.524  16.006  67.094  1.00  0.00    -0.308 C  
HETATM   16  C   UNL     1      -9.122  16.642  67.023  1.00  0.00    -0.216 C  
HETATM   17  C   UNL     1      -9.375  13.852  67.586  1.00  0.00    -0.205 C  
HETATM   18  C   UNL     1      -8.045  14.607  67.543  1.00  0.00    -0.184 C  
BRANCH  13  19
HETATM   19  C   UNL     1     -10.166  14.334  65.165  1.00  0.00    -0.385 C  
BRANCH  19  20
HETATM   20  C   UNL     1     -10.873  13.095  64.575  1.00  0.00    -0.383 C  
BRANCH  20  21
HETATM   21  O   UNL     1     -10.309  12.617  63.358  1.00  0.00    -0.354 OA 
BRANCH  21  22
HETATM   22  C   UNL     1     -10.011  11.196  63.416  1.00  0.00    -0.387 C  
BRANCH  22  23
HETATM   23  C   UNL     1      -8.800  10.879  64.297  1.00  0.00    -0.059 C  
BRANCH  23  24
HETATM   24  C   UNL     1      -8.744   9.483  64.945  1.00  0.00    -0.218 C  
HETATM   25  C   UNL     1      -7.795   9.561  66.173  1.00  0.00    -0.100 C  
HETATM   26  C   UNL     1      -6.423   8.899  65.984  1.00  0.00    -0.061 C  
HETATM   27  C   UNL     1      -6.439   7.861  64.862  1.00  0.00    -0.048 C  
HETATM   28  C   UNL     1      -6.795   8.574  63.525  1.00  0.00    -0.088 C  
HETATM   29  C   UNL     1      -8.276   8.372  63.970  1.00  0.00    -0.115 C  
HETATM   30  C   UNL     1      -7.760   7.011  64.643  1.00  0.00    -0.116 C  
HETATM   31  C   UNL     1      -8.516   6.477  65.862  1.00  0.00    -0.147 C  
HETATM   32  C   UNL     1      -7.537   5.803  63.705  1.00  0.00    -0.083 C  
ENDBRANCH  23  24
ENDBRANCH  22  23
ENDBRANCH  21  22
ENDBRANCH  20  21
ENDBRANCH  19  20
ENDBRANCH  13  19
ENDBRANCH  12  13
ENDBRANCH   7  12
ENDBRANCH   2   3
TORSDOF 10
ENDMDL
MODEL       63
REMARK 921   NORMALIZED FREE ENERGY PREDICTED BY IDOCK:   -5.14 KCAL/MOL
REMARK 922        TOTAL FREE ENERGY PREDICTED BY IDOCK:   -9.42 KCAL/MOL
REMARK 923 INTER-LIGAND FREE ENERGY PREDICTED BY IDOCK:   -8.72 KCAL/MOL
REMARK 924 INTRA-LIGAND FREE ENERGY PREDICTED BY IDOCK:   -0.70 KCAL/MOL
REMARK 927      BINDING AFFINITY PREDICTED BY RF-SCORE:    0.00 PKD
ROOT
HETATM    1  C   UNL     1     -11.091   3.647  73.619  1.00  0.00    -0.225 C  
HETATM    2  O   UNL     1     -11.740   4.886  73.371  1.00  0.00    -0.265 OA 
ENDROOT
BRANCH   2   3
HETATM    3  C   UNL     1     -11.350   5.615  72.283  1.00  0.00    -0.240 A  
HETATM    4  C   UNL     1     -12.109   6.517  71.525  1.00  0.00    -0.308 A  
HETATM    5  C   UNL     1     -10.041   5.325  71.880  1.00  0.00    -0.252 A  
HETATM    6  C   UNL     1     -11.542   7.086  70.375  1.00  0.00    -0.341 A  
HETATM    7  C   UNL     1     -10.279   6.688  69.883  1.00  0.00    -0.214 A  
HETATM    8 BR   UNL     1      -7.683   5.454  70.347  1.00  0.00    -0.082 Br 
HETATM    9  C   UNL     1      -9.500   5.868  70.713  1.00  0.00    -0.165 A  
BRANCH   4  10
HETATM   10  O   UNL     1     -13.371   6.842  71.929  1.00  0.00    -0.294 OA 
HETATM   11  C   UNL     1     -13.780   8.185  71.667  1.00  0.00    -0.355 C  
ENDBRANCH   4  10
BRANCH   7  12
HETATM   12  C   UNL     1      -9.896   7.033  68.452  1.00  0.00    -0.146 C  
BRANCH  12  13
HETATM   13  N   UNL     1      -9.299   8.493  68.265  1.00  0.00    -0.138 N  
HETATM   14  O   UNL     1      -6.774  10.027  68.524  1.00  0.00    -0.054 OA 
HETATM   15  C   UNL     1      -8.717   9.018  69.618  1.00  0.00    -0.143 C  
HETATM   16  C   UNL     1      -7.868  10.287  69.403  1.00  0.00    -0.157 C  
HETATM   17  C   UNL     1      -8.079   8.363  67.303  1.00  0.00    -0.105 C  
HETATM   18  C   UNL     1      -7.226   9.630  67.229  1.00  0.00    -0.087 C  
BRANCH  13  19
HETATM   19  C   UNL     1     -10.385   9.475  67.707  1.00  0.00    -0.239 C  
BRANCH  19  20
HETATM   20  C   UNL     1     -11.185  10.135  68.849  1.00  0.00    -0.170 C  
BRANCH  20  21
HETATM   21  O   UNL     1     -12.107  11.133  68.424  1.00  0.00    -0.605 OA 
BRANCH  21  22
HETATM   22  C   UNL     1     -11.833  12.424  69.033  1.00  0.00    -0.300 C  
BRANCH  22  23
HETATM   23  C   UNL     1     -11.650  13.540  68.002  1.00  0.00    -0.372 C  
BRANCH  23  24
HETATM   24  C   UNL     1     -11.093  13.141  66.623  1.00  0.00    -0.316 C  
HETATM   25  C   UNL     1     -10.311  14.357  66.051  1.00  0.00    -0.319 C  
HETATM   26  C   UNL     1     -11.012  15.112  64.913  1.00  0.00    -0.434 C  
HETATM   27  C   UNL     1     -12.062  14.247  64.216  1.00  0.00    -0.467 C  
HETATM   28  C   UNL     1     -13.156  13.855  65.252  1.00  0.00    -0.205 C  
HETATM   29  C   UNL     1     -12.190  12.688  65.625  1.00  0.00    -0.474 C  
HETATM   30  C   UNL     1     -11.782  12.693  64.074  1.00  0.00    -0.496 C  
HETATM   31  C   UNL     1     -10.377  12.218  63.696  1.00  0.00    -0.463 C  
HETATM   32  C   UNL     1     -12.754  12.004  63.089  1.00  0.00    -0.286 C  
ENDBRANCH  23  24
ENDBRANCH  22  23
ENDBRANCH  21  22
ENDBRANCH  20  21
ENDBRANCH  19  20
ENDBRANCH  13  19
ENDBRANCH  12  13
ENDBRANCH   7  12
ENDBRANCH   2   3
TORSDOF 10
ENDMDL
MODEL       64
REMARK 921   NORMALIZED FREE ENERGY PREDICTED BY IDOCK:   -5.12 KCAL/MOL
REMARK 922        TOTAL FREE ENERGY PREDICTED BY IDOCK:   -9.39 KCAL/MOL
REMARK 923 INTER-LIGAND FREE ENERGY PREDICTED BY IDOCK:   -9.25 KCAL/MOL
REMARK 924 INTRA-LIGAND FREE ENERGY PREDICTED BY IDOCK:   -0.14 KCAL/MOL
REMARK 927      BINDING AFFINITY PREDICTED BY RF-SCORE:    0.00 PKD
ROOT
HETATM    1  C   UNL     1      -5.876  16.493  69.794  1.00  0.00    -0.196 C  
HETATM    2  O   UNL     1      -6.845  17.331  69.182  1.00  0.00    -0.233 OA 
ENDROOT
BRANCH   2   3
HETATM    3  C   UNL     1      -7.785  16.752  68.375  1.00  0.00    -0.208 A  
HETATM    4  C   UNL     1      -7.722  16.527  66.993  1.00  0.00    -0.209 A  
HETATM    5  C   UNL     1      -8.963  16.434  69.061  1.00  0.00    -0.239 A  
HETATM    6  C   UNL     1      -8.847  16.009  66.336  1.00  0.00    -0.363 A  
HETATM    7  C   UNL     1     -10.083  15.823  66.994  1.00  0.00    -0.261 A  
HETATM    8 BR   UNL     1     -11.580  15.479  69.468  1.00  0.00    -0.389 Br 
HETATM    9  C   UNL     1     -10.089  15.953  68.390  1.00  0.00    -0.223 A  
BRANCH   4  10
HETATM   10  O   UNL     1      -6.566  16.793  66.318  1.00  0.00    -0.192 OA 
HETATM   11  C   UNL     1      -6.397  18.144  65.888  1.00  0.00    -0.257 C  
ENDBRANCH   4  10
BRANCH   7  12
HETATM   12  C   UNL     1     -11.347  15.643  66.167  1.00  0.00     0.069 C  
BRANCH  12  13
HETATM   13  N   UNL     1     -11.595  14.159  65.660  1.00  0.00    -0.331 N  
HETATM   14  O   UNL     1     -10.918  12.313  63.438  1.00  0.00    -0.441 OA 
HETATM   15  C   UNL     1     -12.284  14.172  64.256  1.00  0.00    -0.420 C  
HETATM   16  C   UNL     1     -12.259  12.773  63.609  1.00  0.00    -0.512 C  
HETATM   17  C   UNL     1     -10.191  13.517  65.434  1.00  0.00    -0.302 C  
HETATM   18  C   UNL     1     -10.245  12.182  64.691  1.00  0.00    -0.284 C  
BRANCH  13  19
HETATM   19  C   UNL     1     -12.451  13.348  66.692  1.00  0.00    -0.153 C  
BRANCH  19  20
HETATM   20  C   UNL     1     -11.558  12.475  67.597  1.00  0.00    -0.355 C  
BRANCH  20  21
HETATM   21  O   UNL     1     -12.135  11.228  67.971  1.00  0.00    -0.638 OA 
BRANCH  21  22
HETATM   22  C   UNL     1     -11.127  10.206  68.198  1.00  0.00    -0.230 C  
BRANCH  22  23
HETATM   23  C   UNL     1     -10.498  10.292  69.591  1.00  0.00    -0.286 C  
BRANCH  23  24
HETATM   24  C   UNL     1      -9.928   8.993  70.189  1.00  0.00    -0.216 C  
HETATM   25  C   UNL     1     -10.453   7.802  69.339  1.00  0.00    -0.221 C  
HETATM   26  C   UNL     1     -11.545   6.953  70.004  1.00  0.00    -0.299 C  
HETATM   27  C   UNL     1     -11.538   7.101  71.525  1.00  0.00    -0.310 C  
HETATM   28  C   UNL     1     -11.827   8.588  71.885  1.00  0.00    -0.407 C  
HETATM   29  C   UNL     1     -10.293   8.792  71.682  1.00  0.00    -0.391 C  
HETATM   30  C   UNL     1     -10.144   7.301  72.253  1.00  0.00    -0.219 C  
HETATM   31  C   UNL     1      -8.938   6.473  71.802  1.00  0.00    -0.138 C  
HETATM   32  C   UNL     1     -10.246   7.122  73.785  1.00  0.00    -0.395 C  
ENDBRANCH  23  24
ENDBRANCH  22  23
ENDBRANCH  21  22
ENDBRANCH  20  21
ENDBRANCH  19  20
ENDBRANCH  13  19
ENDBRANCH  12  13
ENDBRANCH   7  12
ENDBRANCH   2   3
TORSDOF 10
ENDMDL
MODEL       65
REMARK 921   NORMALIZED FREE ENERGY PREDICTED BY IDOCK:   -5.12 KCAL/MOL
REMARK 922        TOTAL FREE ENERGY PREDICTED BY IDOCK:   -9.39 KCAL/MOL
REMARK 923 INTER-LIGAND FREE ENERGY PREDICTED BY IDOCK:   -8.03 KCAL/MOL
REMARK 924 INTRA-LIGAND FREE ENERGY PREDICTED BY IDOCK:   -1.36 KCAL/MOL
REMARK 927      BINDING AFFINITY PREDICTED BY RF-SCORE:    0.00 PKD
ROOT
HETATM    1  C   UNL     1      -7.896   8.435  66.006  1.00  0.00    -0.098 C  
HETATM    2  O   UNL     1      -9.313   8.356  65.933  1.00  0.00    -0.200 OA 
ENDROOT
BRANCH   2   3
HETATM    3  C   UNL     1     -10.028   9.520  65.974  1.00  0.00    -0.278 A  
HETATM    4  C   UNL     1     -10.189  10.476  64.962  1.00  0.00    -0.295 A  
HETATM    5  C   UNL     1     -10.586   9.767  67.234  1.00  0.00    -0.320 A  
HETATM    6  C   UNL     1     -10.885  11.659  65.247  1.00  0.00    -0.340 A  
HETATM    7  C   UNL     1     -11.323  11.979  66.551  1.00  0.00    -0.413 A  
HETATM    8 BR   UNL     1     -12.028  11.116  69.241  1.00  0.00    -0.392 Br 
HETATM    9  C   UNL     1     -11.245  10.965  67.517  1.00  0.00    -0.293 A  
BRANCH   4  10
HETATM   10  O   UNL     1      -9.687  10.230  63.716  1.00  0.00    -0.302 OA 
HETATM   11  C   UNL     1      -9.515  11.375  62.880  1.00  0.00    -0.345 C  
ENDBRANCH   4  10
BRANCH   7  12
HETATM   12  C   UNL     1     -11.707  13.415  66.876  1.00  0.00    -0.389 C  
BRANCH  12  13
HETATM   13  N   UNL     1     -10.480  14.361  67.223  1.00  0.00    -0.268 N  
HETATM   14  O   UNL     1      -9.500  17.136  66.848  1.00  0.00    -0.243 OA 
HETATM   15  C   UNL     1      -9.821  14.898  65.910  1.00  0.00    -0.332 C  
HETATM   16  C   UNL     1      -8.835  16.045  66.211  1.00  0.00    -0.344 C  
HETATM   17  C   UNL     1     -11.065  15.614  67.944  1.00  0.00    -0.324 C  
HETATM   18  C   UNL     1     -10.052  16.749  68.107  1.00  0.00    -0.282 C  
BRANCH  13  19
HETATM   19  C   UNL     1      -9.427  13.612  68.110  1.00  0.00    -0.217 C  
BRANCH  19  20
HETATM   20  C   UNL     1      -8.236  13.113  67.265  1.00  0.00    -0.168 C  
BRANCH  20  21
HETATM   21  O   UNL     1      -7.797  11.797  67.584  1.00  0.00    -0.123 OA 
BRANCH  21  22
HETATM   22  C   UNL     1      -7.872  11.526  69.009  1.00  0.00    -0.004 C  
BRANCH  22  23
HETATM   23  C   UNL     1      -7.683  10.043  69.342  1.00  0.00    -0.129 C  
BRANCH  23  24
HETATM   24  C   UNL     1      -8.555   9.456  70.466  1.00  0.00    -0.265 C  
HETATM   25  C   UNL     1      -7.611   8.806  71.517  1.00  0.00    -0.130 C  
HETATM   26  C   UNL     1      -7.586   7.271  71.515  1.00  0.00    -0.086 C  
HETATM   27  C   UNL     1      -8.842   6.680  70.873  1.00  0.00    -0.146 C  
HETATM   28  C   UNL     1      -8.911   7.142  69.389  1.00  0.00    -0.136 C  
HETATM   29  C   UNL     1      -9.594   8.422  69.962  1.00  0.00    -0.168 C  
HETATM   30  C   UNL     1     -10.216   7.444  71.070  1.00  0.00    -0.194 C  
HETATM   31  C   UNL     1     -10.556   8.032  72.442  1.00  0.00    -0.373 C  
HETATM   32  C   UNL     1     -11.434   6.589  70.649  1.00  0.00    -0.433 C  
ENDBRANCH  23  24
ENDBRANCH  22  23
ENDBRANCH  21  22
ENDBRANCH  20  21
ENDBRANCH  19  20
ENDBRANCH  13  19
ENDBRANCH  12  13
ENDBRANCH   7  12
ENDBRANCH   2   3
TORSDOF 10
ENDMDL
MODEL       66
REMARK 921   NORMALIZED FREE ENERGY PREDICTED BY IDOCK:   -5.11 KCAL/MOL
REMARK 922        TOTAL FREE ENERGY PREDICTED BY IDOCK:   -9.38 KCAL/MOL
REMARK 923 INTER-LIGAND FREE ENERGY PREDICTED BY IDOCK:   -7.93 KCAL/MOL
REMARK 924 INTRA-LIGAND FREE ENERGY PREDICTED BY IDOCK:   -1.44 KCAL/MOL
REMARK 927      BINDING AFFINITY PREDICTED BY RF-SCORE:    0.00 PKD
ROOT
HETATM    1  C   UNL     1      -7.807   9.556  62.701  1.00  0.00    -0.116 C  
HETATM    2  O   UNL     1      -9.023  10.194  63.062  1.00  0.00    -0.199 OA 
ENDROOT
BRANCH   2   3
HETATM    3  C   UNL     1      -9.347  10.269  64.388  1.00  0.00    -0.277 A  
HETATM    4  C   UNL     1     -10.431  10.929  64.981  1.00  0.00    -0.261 A  
HETATM    5  C   UNL     1      -8.397   9.652  65.211  1.00  0.00    -0.139 A  
HETATM    6  C   UNL     1     -10.522  10.969  66.380  1.00  0.00    -0.312 A  
HETATM    7  C   UNL     1      -9.494  10.477  67.215  1.00  0.00    -0.179 A  
HETATM    8 BR   UNL     1      -7.168   8.766  67.584  1.00  0.00    -0.081 Br 
HETATM    9  C   UNL     1      -8.477   9.730  66.603  1.00  0.00    -0.124 A  
BRANCH   4  10
HETATM   10  O   UNL     1     -11.388  11.498  64.191  1.00  0.00    -0.342 OA 
HETATM   11  C   UNL     1     -11.168  12.865  63.840  1.00  0.00    -0.423 C  
ENDBRANCH   4  10
BRANCH   7  12
HETATM   12  C   UNL     1      -9.459  10.895  68.677  1.00  0.00    -0.190 C  
BRANCH  12  13
HETATM   13  N   UNL     1     -10.194   9.893  69.665  1.00  0.00    -0.221 N  
HETATM   14  O   UNL     1      -9.925   7.196  70.872  1.00  0.00    -0.189 OA 
HETATM   15  C   UNL     1     -10.533   8.555  68.929  1.00  0.00    -0.188 C  
HETATM   16  C   UNL     1     -10.964   7.463  69.928  1.00  0.00    -0.223 C  
HETATM   17  C   UNL     1      -9.164   9.515  70.774  1.00  0.00    -0.128 C  
HETATM   18  C   UNL     1      -9.620   8.350  71.655  1.00  0.00    -0.221 C  
BRANCH  13  19
HETATM   19  C   UNL     1     -11.488  10.543  70.264  1.00  0.00    -0.333 C  
BRANCH  19  20
HETATM   20  C   UNL     1     -11.720  11.957  69.694  1.00  0.00    -0.343 C  
BRANCH  20  21
HETATM   21  O   UNL     1     -11.912  12.967  70.679  1.00  0.00    -0.302 OA 
BRANCH  21  22
HETATM   22  C   UNL     1     -12.576  14.140  70.137  1.00  0.00    -0.268 C  
BRANCH  22  23
HETATM   23  C   UNL     1     -11.711  15.401  70.213  1.00  0.00    -0.355 C  
BRANCH  23  24
HETATM   24  C   UNL     1     -11.348  16.088  68.884  1.00  0.00    -0.370 C  
HETATM   25  C   UNL     1     -11.503  15.043  67.744  1.00  0.00    -0.347 C  
HETATM   26  C   UNL     1     -10.188  14.504  67.164  1.00  0.00    -0.260 C  
HETATM   27  C   UNL     1      -9.016  15.450  67.431  1.00  0.00    -0.202 C  
HETATM   28  C   UNL     1      -8.821  15.585  68.970  1.00  0.00    -0.242 C  
HETATM   29  C   UNL     1      -9.919  16.689  68.873  1.00  0.00    -0.271 C  
HETATM   30  C   UNL     1      -9.296  17.010  67.431  1.00  0.00    -0.239 C  
HETATM   31  C   UNL     1     -10.218  17.605  66.363  1.00  0.00    -0.364 C  
HETATM   32  C   UNL     1      -7.995  17.844  67.397  1.00  0.00    -0.221 C  
ENDBRANCH  23  24
ENDBRANCH  22  23
ENDBRANCH  21  22
ENDBRANCH  20  21
ENDBRANCH  19  20
ENDBRANCH  13  19
ENDBRANCH  12  13
ENDBRANCH   7  12
ENDBRANCH   2   3
TORSDOF 10
ENDMDL
MODEL       67
REMARK 921   NORMALIZED FREE ENERGY PREDICTED BY IDOCK:   -5.11 KCAL/MOL
REMARK 922        TOTAL FREE ENERGY PREDICTED BY IDOCK:   -9.37 KCAL/MOL
REMARK 923 INTER-LIGAND FREE ENERGY PREDICTED BY IDOCK:   -8.45 KCAL/MOL
REMARK 924 INTRA-LIGAND FREE ENERGY PREDICTED BY IDOCK:   -0.92 KCAL/MOL
REMARK 927      BINDING AFFINITY PREDICTED BY RF-SCORE:    0.00 PKD
ROOT
HETATM    1  C   UNL     1     -10.372   7.320  66.785  1.00  0.00    -0.241 C  
HETATM    2  O   UNL     1      -9.068   7.875  66.682  1.00  0.00    -0.146 OA 
ENDROOT
BRANCH   2   3
HETATM    3  C   UNL     1      -8.949   9.231  66.566  1.00  0.00    -0.149 A  
HETATM    4  C   UNL     1      -8.206  10.109  67.368  1.00  0.00    -0.114 A  
HETATM    5  C   UNL     1      -9.751   9.759  65.547  1.00  0.00    -0.382 A  
HETATM    6  C   UNL     1      -8.304  11.489  67.139  1.00  0.00    -0.160 A  
HETATM    7  C   UNL     1      -9.220  12.034  66.211  1.00  0.00    -0.208 A  
HETATM    8 BR   UNL     1     -10.921  11.696  63.872  1.00  0.00    -0.503 Br 
HETATM    9  C   UNL     1      -9.869  11.136  65.352  1.00  0.00    -0.242 A  
BRANCH   4  10
HETATM   10  O   UNL     1      -7.388   9.607  68.338  1.00  0.00    -0.074 OA 
HETATM   11  C   UNL     1      -5.992   9.613  68.035  1.00  0.00    -0.043 C  
ENDBRANCH   4  10
BRANCH   7  12
HETATM   12  C   UNL     1      -9.562  13.514  66.286  1.00  0.00    -0.232 C  
BRANCH  12  13
HETATM   13  N   UNL     1     -10.082  13.997  67.707  1.00  0.00    -0.236 N  
HETATM   14  O   UNL     1     -10.684  16.455  69.255  1.00  0.00    -0.282 OA 
HETATM   15  C   UNL     1      -9.004  14.891  68.405  1.00  0.00    -0.183 C  
HETATM   16  C   UNL     1      -9.592  15.616  69.632  1.00  0.00    -0.260 C  
HETATM   17  C   UNL     1     -11.303  14.933  67.448  1.00  0.00    -0.347 C  
HETATM   18  C   UNL     1     -11.756  15.699  68.692  1.00  0.00    -0.352 C  
BRANCH  13  19
HETATM   19  C   UNL     1     -10.462  12.775  68.610  1.00  0.00    -0.211 C  
BRANCH  19  20
HETATM   20  C   UNL     1     -11.853  12.217  68.243  1.00  0.00    -0.310 C  
BRANCH  20  21
HETATM   21  O   UNL     1     -12.203  11.012  68.916  1.00  0.00    -0.519 OA 
BRANCH  21  22
HETATM   22  C   UNL     1     -12.656  11.257  70.275  1.00  0.00    -0.177 C  
BRANCH  22  23
HETATM   23  C   UNL     1     -11.926  10.395  71.308  1.00  0.00    -0.425 C  
BRANCH  23  24
HETATM   24  C   UNL     1     -11.740   8.903  70.978  1.00  0.00    -0.340 C  
HETATM   25  C   UNL     1     -12.113   8.081  72.243  1.00  0.00    -0.392 C  
HETATM   26  C   UNL     1     -10.926   7.472  73.003  1.00  0.00    -0.443 C  
HETATM   27  C   UNL     1      -9.688   7.339  72.115  1.00  0.00    -0.177 C  
HETATM   28  C   UNL     1      -9.255   8.757  71.644  1.00  0.00    -0.333 C  
HETATM   29  C   UNL     1     -10.305   8.551  70.509  1.00  0.00    -0.226 C  
HETATM   30  C   UNL     1      -9.897   7.002  70.581  1.00  0.00    -0.187 C  
HETATM   31  C   UNL     1     -10.944   5.960  70.179  1.00  0.00    -0.412 C  
HETATM   32  C   UNL     1      -8.581   6.589  69.882  1.00  0.00    -0.139 C  
ENDBRANCH  23  24
ENDBRANCH  22  23
ENDBRANCH  21  22
ENDBRANCH  20  21
ENDBRANCH  19  20
ENDBRANCH  13  19
ENDBRANCH  12  13
ENDBRANCH   7  12
ENDBRANCH   2   3
TORSDOF 10
ENDMDL
MODEL       68
REMARK 921   NORMALIZED FREE ENERGY PREDICTED BY IDOCK:   -5.08 KCAL/MOL
REMARK 922        TOTAL FREE ENERGY PREDICTED BY IDOCK:   -9.33 KCAL/MOL
REMARK 923 INTER-LIGAND FREE ENERGY PREDICTED BY IDOCK:   -7.89 KCAL/MOL
REMARK 924 INTRA-LIGAND FREE ENERGY PREDICTED BY IDOCK:   -1.44 KCAL/MOL
REMARK 927      BINDING AFFINITY PREDICTED BY RF-SCORE:    0.00 PKD
ROOT
HETATM    1  C   UNL     1      -7.633   6.464  64.855  1.00  0.00    -0.093 C  
HETATM    2  O   UNL     1      -7.303   6.324  66.229  1.00  0.00    -0.077 OA 
ENDROOT
BRANCH   2   3
HETATM    3  C   UNL     1      -8.181   6.805  67.159  1.00  0.00    -0.121 A  
HETATM    4  C   UNL     1      -9.361   6.211  67.628  1.00  0.00    -0.112 A  
HETATM    5  C   UNL     1      -7.845   8.088  67.606  1.00  0.00    -0.122 A  
HETATM    6  C   UNL     1     -10.178   6.926  68.514  1.00  0.00    -0.187 A  
HETATM    7  C   UNL     1      -9.920   8.273  68.855  1.00  0.00    -0.193 A  
HETATM    8 BR   UNL     1      -8.048  10.494  69.053  1.00  0.00    -0.148 Br 
HETATM    9  C   UNL     1      -8.684   8.806  68.460  1.00  0.00    -0.135 A  
BRANCH   4  10
HETATM   10  O   UNL     1      -9.680   4.944  67.233  1.00  0.00    -0.148 OA 
HETATM   11  C   UNL     1     -10.652   4.846  66.190  1.00  0.00    -0.271 C  
ENDBRANCH   4  10
BRANCH   7  12
HETATM   12  C   UNL     1     -11.026   9.106  69.486  1.00  0.00    -0.123 C  
BRANCH  12  13
HETATM   13  N   UNL     1     -11.378   8.705  70.981  1.00  0.00    -0.266 N  
HETATM   14  O   UNL     1     -10.879   6.597  73.008  1.00  0.00    -0.249 OA 
HETATM   15  C   UNL     1     -12.104   7.320  71.016  1.00  0.00    -0.324 C  
HETATM   16  C   UNL     1     -12.184   6.769  72.454  1.00  0.00    -0.033 C  
HETATM   17  C   UNL     1     -10.023   8.490  71.723  1.00  0.00    -0.275 C  
HETATM   18  C   UNL     1     -10.180   7.839  73.099  1.00  0.00    -0.335 C  
BRANCH  13  19
HETATM   19  C   UNL     1     -12.253   9.810  71.666  1.00  0.00    -0.404 C  
BRANCH  19  20
HETATM   20  C   UNL     1     -12.669  10.901  70.658  1.00  0.00    -0.309 C  
BRANCH  20  21
HETATM   21  O   UNL     1     -12.662  12.225  71.183  1.00  0.00    -0.353 OA 
BRANCH  21  22
HETATM   22  C   UNL     1     -12.276  13.207  70.184  1.00  0.00    -0.290 C  
BRANCH  22  23
HETATM   23  C   UNL     1     -11.319  12.640  69.134  1.00  0.00    -0.339 C  
BRANCH  23  24
HETATM   24  C   UNL     1     -11.725  12.788  67.656  1.00  0.00    -0.422 C  
HETATM   25  C   UNL     1     -11.124  11.589  66.870  1.00  0.00    -0.366 C  
HETATM   26  C   UNL     1      -9.920  11.927  65.979  1.00  0.00    -0.258 C  
HETATM   27  C   UNL     1      -9.868  13.414  65.626  1.00  0.00    -0.180 C  
HETATM   28  C   UNL     1      -9.715  14.235  66.940  1.00  0.00    -0.268 C  
HETATM   29  C   UNL     1     -11.269  14.130  67.026  1.00  0.00    -0.328 C  
HETATM   30  C   UNL     1     -11.238  14.185  65.424  1.00  0.00    -0.325 C  
HETATM   31  C   UNL     1     -12.374  13.503  64.656  1.00  0.00    -0.419 C  
HETATM   32  C   UNL     1     -11.044  15.573  64.771  1.00  0.00    -0.421 C  
ENDBRANCH  23  24
ENDBRANCH  22  23
ENDBRANCH  21  22
ENDBRANCH  20  21
ENDBRANCH  19  20
ENDBRANCH  13  19
ENDBRANCH  12  13
ENDBRANCH   7  12
ENDBRANCH   2   3
TORSDOF 10
ENDMDL
MODEL       69
REMARK 921   NORMALIZED FREE ENERGY PREDICTED BY IDOCK:   -5.08 KCAL/MOL
REMARK 922        TOTAL FREE ENERGY PREDICTED BY IDOCK:   -9.33 KCAL/MOL
REMARK 923 INTER-LIGAND FREE ENERGY PREDICTED BY IDOCK:   -8.03 KCAL/MOL
REMARK 924 INTRA-LIGAND FREE ENERGY PREDICTED BY IDOCK:   -1.30 KCAL/MOL
REMARK 927      BINDING AFFINITY PREDICTED BY RF-SCORE:    0.00 PKD
ROOT
HETATM    1  C   UNL     1     -12.286  14.762  64.217  1.00  0.00    -0.379 C  
HETATM    2  O   UNL     1     -12.078  13.410  63.836  1.00  0.00    -0.454 OA 
ENDROOT
BRANCH   2   3
HETATM    3  C   UNL     1     -11.504  12.563  64.742  1.00  0.00    -0.323 A  
HETATM    4  C   UNL     1     -10.821  11.364  64.498  1.00  0.00    -0.309 A  
HETATM    5  C   UNL     1     -11.725  12.959  66.067  1.00  0.00    -0.456 A  
HETATM    6  C   UNL     1     -10.397  10.588  65.586  1.00  0.00    -0.274 A  
HETATM    7  C   UNL     1     -10.742  10.907  66.918  1.00  0.00    -0.318 A  
HETATM    8 BR   UNL     1     -11.616  12.874  68.879  1.00  0.00    -0.381 Br 
HETATM    9  C   UNL     1     -11.331  12.160  67.142  1.00  0.00    -0.331 A  
BRANCH   4  10
HETATM   10  O   UNL     1     -10.561  10.986  63.212  1.00  0.00    -0.312 OA 
HETATM   11  C   UNL     1      -9.194  11.065  62.807  1.00  0.00    -0.351 C  
ENDBRANCH   4  10
BRANCH   7  12
HETATM   12  C   UNL     1     -10.603   9.845  67.998  1.00  0.00    -0.242 C  
BRANCH  12  13
HETATM   13  N   UNL     1      -9.104   9.519  68.409  1.00  0.00    -0.127 N  
HETATM   14  O   UNL     1      -7.491   7.625  70.025  1.00  0.00    -0.078 OA 
HETATM   15  C   UNL     1      -8.936   9.599  69.961  1.00  0.00    -0.237 C  
HETATM   16  C   UNL     1      -7.589   8.997  70.408  1.00  0.00    -0.100 C  
HETATM   17  C   UNL     1      -8.847   8.026  68.034  1.00  0.00    -0.128 C  
HETATM   18  C   UNL     1      -7.541   7.472  68.606  1.00  0.00    -0.110 C  
BRANCH  13  19
HETATM   19  C   UNL     1      -8.102  10.485  67.689  1.00  0.00    -0.107 C  
BRANCH  19  20
HETATM   20  C   UNL     1      -7.695  11.656  68.607  1.00  0.00    -0.134 C  
BRANCH  20  21
HETATM   21  O   UNL     1      -6.547  12.377  68.171  1.00  0.00    -0.062 OA 
BRANCH  21  22
HETATM   22  C   UNL     1      -6.299  13.553  68.989  1.00  0.00    -0.099 C  
BRANCH  22  23
HETATM   23  C   UNL     1      -6.657  14.858  68.274  1.00  0.00    -0.117 C  
BRANCH  23  24
HETATM   24  C   UNL     1      -8.128  15.311  68.328  1.00  0.00    -0.137 C  
HETATM   25  C   UNL     1      -8.823  14.843  67.018  1.00  0.00    -0.255 C  
HETATM   26  C   UNL     1      -9.115  15.952  65.999  1.00  0.00    -0.363 C  
HETATM   27  C   UNL     1      -9.157  17.333  66.653  1.00  0.00    -0.286 C  
HETATM   28  C   UNL     1      -7.762  17.635  67.275  1.00  0.00    -0.222 C  
HETATM   29  C   UNL     1      -8.294  16.842  68.509  1.00  0.00    -0.243 C  
HETATM   30  C   UNL     1      -9.728  17.449  68.127  1.00  0.00    -0.291 C  
HETATM   31  C   UNL     1     -10.976  16.649  68.511  1.00  0.00    -0.339 C  
HETATM   32  C   UNL     1     -10.005  18.912  68.541  1.00  0.00    -0.463 C  
ENDBRANCH  23  24
ENDBRANCH  22  23
ENDBRANCH  21  22
ENDBRANCH  20  21
ENDBRANCH  19  20
ENDBRANCH  13  19
ENDBRANCH  12  13
ENDBRANCH   7  12
ENDBRANCH   2   3
TORSDOF 10
ENDMDL
MODEL       70
REMARK 921   NORMALIZED FREE ENERGY PREDICTED BY IDOCK:   -5.06 KCAL/MOL
REMARK 922        TOTAL FREE ENERGY PREDICTED BY IDOCK:   -9.30 KCAL/MOL
REMARK 923 INTER-LIGAND FREE ENERGY PREDICTED BY IDOCK:   -8.34 KCAL/MOL
REMARK 924 INTRA-LIGAND FREE ENERGY PREDICTED BY IDOCK:   -0.96 KCAL/MOL
REMARK 927      BINDING AFFINITY PREDICTED BY RF-SCORE:    0.00 PKD
ROOT
HETATM    1  C   UNL     1      -7.251   8.982  63.112  1.00  0.00    -0.092 C  
HETATM    2  O   UNL     1      -8.629   8.824  63.416  1.00  0.00    -0.159 OA 
ENDROOT
BRANCH   2   3
HETATM    3  C   UNL     1      -9.173   9.619  64.386  1.00  0.00    -0.200 A  
HETATM    4  C   UNL     1      -9.099   9.465  65.777  1.00  0.00    -0.200 A  
HETATM    5  C   UNL     1      -9.951  10.657  63.860  1.00  0.00    -0.390 A  
HETATM    6  C   UNL     1      -9.822  10.342  66.599  1.00  0.00    -0.256 A  
HETATM    7  C   UNL     1     -10.721  11.297  66.073  1.00  0.00    -0.301 A  
HETATM    8 BR   UNL     1     -11.628  12.919  63.832  1.00  0.00    -0.547 Br 
HETATM    9  C   UNL     1     -10.696  11.501  64.686  1.00  0.00    -0.319 A  
BRANCH   4  10
HETATM   10  O   UNL     1      -8.311   8.484  66.306  1.00  0.00    -0.108 OA 
HETATM   11  C   UNL     1      -7.013   8.896  66.735  1.00  0.00    -0.077 C  
ENDBRANCH   4  10
BRANCH   7  12
HETATM   12  C   UNL     1     -11.752  11.933  66.993  1.00  0.00    -0.227 C  
BRANCH  12  13
HETATM   13  N   UNL     1     -11.176  13.071  67.938  1.00  0.00    -0.257 N  
HETATM   14  O   UNL     1      -9.965  15.778  67.854  1.00  0.00    -0.224 OA 
HETATM   15  C   UNL     1      -9.679  13.362  67.589  1.00  0.00    -0.222 C  
HETATM   16  C   UNL     1      -9.189  14.654  68.271  1.00  0.00    -0.198 C  
HETATM   17  C   UNL     1     -11.951  14.380  67.594  1.00  0.00    -0.343 C  
HETATM   18  C   UNL     1     -11.337  15.633  68.222  1.00  0.00    -0.356 C  
BRANCH  13  19
HETATM   19  C   UNL     1     -11.330  12.678  69.447  1.00  0.00    -0.208 C  
BRANCH  19  20
HETATM   20  C   UNL     1     -12.066  11.332  69.604  1.00  0.00    -0.322 C  
BRANCH  20  21
HETATM   21  O   UNL     1     -12.899  11.244  70.755  1.00  0.00    -0.277 OA 
BRANCH  21  22
HETATM   22  C   UNL     1     -12.545  10.116  71.601  1.00  0.00    -0.434 C  
BRANCH  22  23
HETATM   23  C   UNL     1     -11.824   9.004  70.835  1.00  0.00    -0.302 C  
BRANCH  23  24
HETATM   24  C   UNL     1     -11.635   7.658  71.557  1.00  0.00    -0.304 C  
HETATM   25  C   UNL     1     -11.013   7.944  72.953  1.00  0.00    -0.452 C  
HETATM   26  C   UNL     1      -9.529   7.578  73.097  1.00  0.00    -0.272 C  
HETATM   27  C   UNL     1      -9.092   6.546  72.057  1.00  0.00    -0.140 C  
HETATM   28  C   UNL     1      -9.280   7.154  70.637  1.00  0.00    -0.158 C  
HETATM   29  C   UNL     1     -10.753   6.656  70.769  1.00  0.00    -0.282 C  
HETATM   30  C   UNL     1     -10.136   5.439  71.612  1.00  0.00    -0.259 C  
HETATM   31  C   UNL     1     -11.019   4.775  72.672  1.00  0.00    -0.219 C  
HETATM   32  C   UNL     1      -9.477   4.292  70.813  1.00  0.00    -0.241 C  
ENDBRANCH  23  24
ENDBRANCH  22  23
ENDBRANCH  21  22
ENDBRANCH  20  21
ENDBRANCH  19  20
ENDBRANCH  13  19
ENDBRANCH  12  13
ENDBRANCH   7  12
ENDBRANCH   2   3
TORSDOF 10
ENDMDL
MODEL       71
REMARK 921   NORMALIZED FREE ENERGY PREDICTED BY IDOCK:   -5.06 KCAL/MOL
REMARK 922        TOTAL FREE ENERGY PREDICTED BY IDOCK:   -9.29 KCAL/MOL
REMARK 923 INTER-LIGAND FREE ENERGY PREDICTED BY IDOCK:   -7.56 KCAL/MOL
REMARK 924 INTRA-LIGAND FREE ENERGY PREDICTED BY IDOCK:   -1.72 KCAL/MOL
REMARK 927      BINDING AFFINITY PREDICTED BY RF-SCORE:    0.00 PKD
ROOT
HETATM    1  C   UNL     1     -12.404  14.463  64.363  1.00  0.00    -0.403 C  
HETATM    2  O   UNL     1     -11.574  13.465  63.786  1.00  0.00    -0.390 OA 
ENDROOT
BRANCH   2   3
HETATM    3  C   UNL     1     -11.097  12.473  64.596  1.00  0.00    -0.306 A  
HETATM    4  C   UNL     1     -10.429  11.297  64.228  1.00  0.00    -0.357 A  
HETATM    5  C   UNL     1     -11.412  12.678  65.944  1.00  0.00    -0.407 A  
HETATM    6  C   UNL     1     -10.114  10.354  65.216  1.00  0.00    -0.370 A  
HETATM    7  C   UNL     1     -10.556  10.488  66.551  1.00  0.00    -0.240 A  
HETATM    8 BR   UNL     1     -11.529  12.178  68.713  1.00  0.00    -0.391 Br 
HETATM    9  C   UNL     1     -11.126  11.716  66.915  1.00  0.00    -0.308 A  
BRANCH   4  10
HETATM   10  O   UNL     1     -10.078  11.103  62.922  1.00  0.00    -0.283 OA 
HETATM   11  C   UNL     1      -8.691  10.863  62.683  1.00  0.00    -0.278 C  
ENDBRANCH   4  10
BRANCH   7  12
HETATM   12  C   UNL     1     -10.531   9.274  67.468  1.00  0.00    -0.274 C  
BRANCH  12  13
HETATM   13  N   UNL     1      -9.085   8.665  67.712  1.00  0.00    -0.135 N  
HETATM   14  O   UNL     1      -7.669   6.075  68.012  1.00  0.00    -0.098 OA 
HETATM   15  C   UNL     1      -9.071   7.810  69.021  1.00  0.00    -0.144 C  
HETATM   16  C   UNL     1      -7.784   6.967  69.122  1.00  0.00    -0.106 C  
HETATM   17  C   UNL     1      -8.815   7.661  66.549  1.00  0.00    -0.147 C  
HETATM   18  C   UNL     1      -7.580   6.786  66.777  1.00  0.00    -0.090 C  
BRANCH  13  19
HETATM   19  C   UNL     1      -8.003   9.796  67.774  1.00  0.00    -0.101 C  
BRANCH  19  20
HETATM   20  C   UNL     1      -8.107  10.602  69.085  1.00  0.00    -0.141 C  
BRANCH  20  21
HETATM   21  O   UNL     1      -7.533  11.903  69.026  1.00  0.00    -0.093 OA 
BRANCH  21  22
HETATM   22  C   UNL     1      -7.300  12.337  67.659  1.00  0.00    -0.127 C  
BRANCH  22  23
HETATM   23  C   UNL     1      -6.911  13.814  67.563  1.00  0.00    -0.148 C  
BRANCH  23  24
HETATM   24  C   UNL     1      -7.993  14.799  67.086  1.00  0.00    -0.205 C  
HETATM   25  C   UNL     1      -7.361  16.218  67.031  1.00  0.00    -0.264 C  
HETATM   26  C   UNL     1      -7.796  17.174  68.150  1.00  0.00    -0.206 C  
HETATM   27  C   UNL     1      -9.124  16.751  68.779  1.00  0.00    -0.259 C  
HETATM   28  C   UNL     1      -8.950  15.342  69.417  1.00  0.00    -0.258 C  
HETATM   29  C   UNL     1      -9.257  14.806  67.984  1.00  0.00    -0.194 C  
HETATM   30  C   UNL     1     -10.217  16.083  67.846  1.00  0.00    -0.258 C  
HETATM   31  C   UNL     1     -10.458  16.656  66.447  1.00  0.00    -0.266 C  
HETATM   32  C   UNL     1     -11.603  15.998  68.526  1.00  0.00    -0.316 C  
ENDBRANCH  23  24
ENDBRANCH  22  23
ENDBRANCH  21  22
ENDBRANCH  20  21
ENDBRANCH  19  20
ENDBRANCH  13  19
ENDBRANCH  12  13
ENDBRANCH   7  12
ENDBRANCH   2   3
TORSDOF 10
ENDMDL
MODEL       72
REMARK 921   NORMALIZED FREE ENERGY PREDICTED BY IDOCK:   -5.05 KCAL/MOL
REMARK 922        TOTAL FREE ENERGY PREDICTED BY IDOCK:   -9.28 KCAL/MOL
REMARK 923 INTER-LIGAND FREE ENERGY PREDICTED BY IDOCK:   -8.78 KCAL/MOL
REMARK 924 INTRA-LIGAND FREE ENERGY PREDICTED BY IDOCK:   -0.50 KCAL/MOL
REMARK 927      BINDING AFFINITY PREDICTED BY RF-SCORE:    0.00 PKD
ROOT
HETATM    1  C   UNL     1     -10.366   5.095  70.010  1.00  0.00    -0.276 C  
HETATM    2  O   UNL     1     -11.054   6.232  69.508  1.00  0.00    -0.338 OA 
ENDROOT
BRANCH   2   3
HETATM    3  C   UNL     1     -10.435   7.448  69.583  1.00  0.00    -0.232 A  
HETATM    4  C   UNL     1     -10.867   8.603  70.250  1.00  0.00    -0.235 A  
HETATM    5  C   UNL     1      -9.264   7.507  68.818  1.00  0.00    -0.145 A  
HETATM    6  C   UNL     1     -10.127   9.786  70.114  1.00  0.00    -0.317 A  
HETATM    7  C   UNL     1      -9.030   9.889  69.229  1.00  0.00    -0.184 A  
HETATM    8 BR   UNL     1      -6.939   8.600  67.667  1.00  0.00    -0.076 Br 
HETATM    9  C   UNL     1      -8.556   8.699  68.659  1.00  0.00    -0.131 A  
BRANCH   4  10
HETATM   10  O   UNL     1     -11.983   8.550  71.034  1.00  0.00    -0.284 OA 
HETATM   11  C   UNL     1     -11.752   8.336  72.427  1.00  0.00    -0.397 C  
ENDBRANCH   4  10
BRANCH   7  12
HETATM   12  C   UNL     1      -8.525  11.267  68.829  1.00  0.00    -0.112 C  
BRANCH  12  13
HETATM   13  N   UNL     1      -9.445  12.025  67.780  1.00  0.00    -0.184 N  
HETATM   14  O   UNL     1     -12.127  11.904  66.518  1.00  0.00    -0.568 OA 
HETATM   15  C   UNL     1      -9.827  11.070  66.602  1.00  0.00    -0.200 C  
HETATM   16  C   UNL     1     -10.952  11.673  65.738  1.00  0.00    -0.274 C  
HETATM   17  C   UNL     1     -10.784  12.355  68.508  1.00  0.00    -0.238 C  
HETATM   18  C   UNL     1     -11.884  12.845  67.564  1.00  0.00    -0.351 C  
BRANCH  13  19
HETATM   19  C   UNL     1      -8.736  13.316  67.242  1.00  0.00    -0.214 C  
BRANCH  19  20
HETATM   20  C   UNL     1      -7.882  13.984  68.339  1.00  0.00    -0.144 C  
BRANCH  20  21
HETATM   21  O   UNL     1      -8.452  15.165  68.895  1.00  0.00    -0.174 OA 
BRANCH  21  22
HETATM   22  C   UNL     1      -9.664  15.565  68.200  1.00  0.00    -0.208 C  
BRANCH  22  23
HETATM   23  C   UNL     1     -10.186  16.930  68.656  1.00  0.00    -0.301 C  
BRANCH  23  24
HETATM   24  C   UNL     1      -9.224  18.127  68.543  1.00  0.00    -0.326 C  
HETATM   25  C   UNL     1      -9.975  19.395  69.037  1.00  0.00    -0.477 C  
HETATM   26  C   UNL     1     -10.407  20.372  67.935  1.00  0.00    -0.312 C  
HETATM   27  C   UNL     1      -9.585  20.194  66.658  1.00  0.00    -0.547 C  
HETATM   28  C   UNL     1      -9.813  18.754  66.113  1.00  0.00    -0.327 C  
HETATM   29  C   UNL     1      -8.681  18.346  67.108  1.00  0.00    -0.260 C  
HETATM   30  C   UNL     1      -8.058  19.791  66.799  1.00  0.00    -0.333 C  
HETATM   31  C   UNL     1      -7.206  20.456  67.883  1.00  0.00    -0.311 C  
HETATM   32  C   UNL     1      -7.280  19.952  65.473  1.00  0.00    -0.305 C  
ENDBRANCH  23  24
ENDBRANCH  22  23
ENDBRANCH  21  22
ENDBRANCH  20  21
ENDBRANCH  19  20
ENDBRANCH  13  19
ENDBRANCH  12  13
ENDBRANCH   7  12
ENDBRANCH   2   3
TORSDOF 10
ENDMDL
MODEL       73
REMARK 921   NORMALIZED FREE ENERGY PREDICTED BY IDOCK:   -5.05 KCAL/MOL
REMARK 922        TOTAL FREE ENERGY PREDICTED BY IDOCK:   -9.28 KCAL/MOL
REMARK 923 INTER-LIGAND FREE ENERGY PREDICTED BY IDOCK:   -7.82 KCAL/MOL
REMARK 924 INTRA-LIGAND FREE ENERGY PREDICTED BY IDOCK:   -1.45 KCAL/MOL
REMARK 927      BINDING AFFINITY PREDICTED BY RF-SCORE:    0.00 PKD
ROOT
HETATM    1  C   UNL     1      -6.881   6.056  69.546  1.00  0.00    -0.062 C  
HETATM    2  O   UNL     1      -7.133   6.184  68.154  1.00  0.00    -0.077 OA 
ENDROOT
BRANCH   2   3
HETATM    3  C   UNL     1      -7.697   7.344  67.701  1.00  0.00    -0.112 A  
HETATM    4  C   UNL     1      -8.631   7.511  66.670  1.00  0.00    -0.130 A  
HETATM    5  C   UNL     1      -7.181   8.478  68.338  1.00  0.00    -0.085 A  
HETATM    6  C   UNL     1      -9.005   8.808  66.293  1.00  0.00    -0.211 A  
HETATM    7  C   UNL     1      -8.381   9.956  66.830  1.00  0.00    -0.125 A  
HETATM    8 BR   UNL     1      -6.822  11.203  68.949  1.00  0.00    -0.095 Br 
HETATM    9  C   UNL     1      -7.532   9.767  67.930  1.00  0.00    -0.086 A  
BRANCH   4  10
HETATM   10  O   UNL     1      -9.174   6.412  66.069  1.00  0.00    -0.143 OA 
HETATM   11  C   UNL     1     -10.432   5.979  66.589  1.00  0.00    -0.228 C  
ENDBRANCH   4  10
BRANCH   7  12
HETATM   12  C   UNL     1      -8.537  11.290  66.115  1.00  0.00    -0.156 C  
BRANCH  12  13
HETATM   13  N   UNL     1      -9.866  12.079  66.479  1.00  0.00    -0.204 N  
HETATM   14  O   UNL     1     -11.832  13.983  65.334  1.00  0.00    -0.333 OA 
HETATM   15  C   UNL     1      -9.635  13.620  66.351  1.00  0.00    -0.268 C  
HETATM   16  C   UNL     1     -10.971  14.390  66.398  1.00  0.00    -0.319 C  
HETATM   17  C   UNL     1     -10.920  11.718  65.386  1.00  0.00    -0.297 C  
HETATM   18  C   UNL     1     -12.169  12.599  65.433  1.00  0.00    -0.459 C  
BRANCH  13  19
HETATM   19  C   UNL     1     -10.363  11.707  67.918  1.00  0.00    -0.188 C  
BRANCH  19  20
HETATM   20  C   UNL     1     -11.627  10.824  67.864  1.00  0.00    -0.128 C  
BRANCH  20  21
HETATM   21  O   UNL     1     -12.507  10.983  68.972  1.00  0.00    -0.449 OA 
BRANCH  21  22
HETATM   22  C   UNL     1     -11.785  11.176  70.219  1.00  0.00    -0.341 C  
BRANCH  22  23
HETATM   23  C   UNL     1     -12.189  10.171  71.300  1.00  0.00    -0.496 C  
BRANCH  23  24
HETATM   24  C   UNL     1     -11.107   9.195  71.797  1.00  0.00    -0.437 C  
HETATM   25  C   UNL     1     -10.164   8.875  70.602  1.00  0.00    -0.267 C  
HETATM   26  C   UNL     1     -10.333   7.477  69.991  1.00  0.00    -0.222 C  
HETATM   27  C   UNL     1     -10.993   6.502  70.967  1.00  0.00    -0.314 C  
HETATM   28  C   UNL     1     -12.416   7.028  71.314  1.00  0.00    -0.430 C  
HETATM   29  C   UNL     1     -11.686   7.887  72.393  1.00  0.00    -0.423 C  
HETATM   30  C   UNL     1     -10.670   6.652  72.511  1.00  0.00    -0.259 C  
HETATM   31  C   UNL     1      -9.232   6.940  72.950  1.00  0.00    -0.154 C  
HETATM   32  C   UNL     1     -11.140   5.431  73.334  1.00  0.00    -0.326 C  
ENDBRANCH  23  24
ENDBRANCH  22  23
ENDBRANCH  21  22
ENDBRANCH  20  21
ENDBRANCH  19  20
ENDBRANCH  13  19
ENDBRANCH  12  13
ENDBRANCH   7  12
ENDBRANCH   2   3
TORSDOF 10
ENDMDL
MODEL       74
REMARK 921   NORMALIZED FREE ENERGY PREDICTED BY IDOCK:   -5.04 KCAL/MOL
REMARK 922        TOTAL FREE ENERGY PREDICTED BY IDOCK:   -9.25 KCAL/MOL
REMARK 923 INTER-LIGAND FREE ENERGY PREDICTED BY IDOCK:   -7.15 KCAL/MOL
REMARK 924 INTRA-LIGAND FREE ENERGY PREDICTED BY IDOCK:   -2.10 KCAL/MOL
REMARK 927      BINDING AFFINITY PREDICTED BY RF-SCORE:    0.00 PKD
ROOT
HETATM    1  C   UNL     1     -12.269  15.444  64.216  1.00  0.00    -0.126 C  
HETATM    2  O   UNL     1     -12.841  14.413  65.007  1.00  0.00    -0.631 OA 
ENDROOT
BRANCH   2   3
HETATM    3  C   UNL     1     -12.016  13.438  65.494  1.00  0.00    -0.398 A  
HETATM    4  C   UNL     1     -11.681  13.172  66.829  1.00  0.00    -0.385 A  
HETATM    5  C   UNL     1     -11.404  12.692  64.481  1.00  0.00    -0.378 A  
HETATM    6  C   UNL     1     -10.727  12.183  67.107  1.00  0.00    -0.267 A  
HETATM    7  C   UNL     1     -10.001  11.530  66.087  1.00  0.00    -0.257 A  
HETATM    8 BR   UNL     1      -9.756  10.741  63.295  1.00  0.00    -0.413 Br 
HETATM    9  C   UNL     1     -10.429  11.735  64.767  1.00  0.00    -0.293 A  
BRANCH   4  10
HETATM   10  O   UNL     1     -12.301  13.862  67.830  1.00  0.00    -0.245 OA 
HETATM   11  C   UNL     1     -12.081  13.369  69.152  1.00  0.00    -0.261 C  
ENDBRANCH   4  10
BRANCH   7  12
HETATM   12  C   UNL     1      -8.730  10.775  66.445  1.00  0.00    -0.158 C  
BRANCH  12  13
HETATM   13  N   UNL     1      -8.974   9.341  67.082  1.00  0.00    -0.126 N  
HETATM   14  O   UNL     1      -9.583   6.535  66.338  1.00  0.00    -0.163 OA 
HETATM   15  C   UNL     1     -10.397   8.814  66.703  1.00  0.00    -0.228 C  
HETATM   16  C   UNL     1     -10.545   7.318  67.044  1.00  0.00    -0.344 C  
HETATM   17  C   UNL     1      -7.967   8.365  66.399  1.00  0.00    -0.099 C  
HETATM   18  C   UNL     1      -8.249   6.892  66.701  1.00  0.00    -0.115 C  
BRANCH  13  19
HETATM   19  C   UNL     1      -8.790   9.379  68.638  1.00  0.00    -0.132 C  
BRANCH  19  20
HETATM   20  C   UNL     1      -7.335   9.719  69.022  1.00  0.00    -0.078 C  
BRANCH  20  21
HETATM   21  O   UNL     1      -7.177  10.958  69.705  1.00  0.00    -0.140 OA 
BRANCH  21  22
HETATM   22  C   UNL     1      -6.389  11.908  68.938  1.00  0.00    -0.073 C  
BRANCH  22  23
HETATM   23  C   UNL     1      -6.788  13.361  69.205  1.00  0.00    -0.076 C  
BRANCH  23  24
HETATM   24  C   UNL     1      -7.476  14.125  68.059  1.00  0.00    -0.141 C  
HETATM   25  C   UNL     1      -6.445  15.123  67.460  1.00  0.00    -0.138 C  
HETATM   26  C   UNL     1      -6.677  16.598  67.817  1.00  0.00    -0.157 C  
HETATM   27  C   UNL     1      -8.123  16.865  68.234  1.00  0.00    -0.217 C  
HETATM   28  C   UNL     1      -8.440  16.027  69.507  1.00  0.00    -0.024 C  
HETATM   29  C   UNL     1      -8.757  14.876  68.504  1.00  0.00    -0.172 C  
HETATM   30  C   UNL     1      -9.274  16.036  67.525  1.00  0.00    -0.214 C  
HETATM   31  C   UNL     1      -9.200  15.794  66.016  1.00  0.00    -0.379 C  
HETATM   32  C   UNL     1     -10.679  16.618  67.804  1.00  0.00    -0.327 C  
ENDBRANCH  23  24
ENDBRANCH  22  23
ENDBRANCH  21  22
ENDBRANCH  20  21
ENDBRANCH  19  20
ENDBRANCH  13  19
ENDBRANCH  12  13
ENDBRANCH   7  12
ENDBRANCH   2   3
TORSDOF 10
ENDMDL
MODEL       75
REMARK 921   NORMALIZED FREE ENERGY PREDICTED BY IDOCK:   -5.03 KCAL/MOL
REMARK 922        TOTAL FREE ENERGY PREDICTED BY IDOCK:   -9.25 KCAL/MOL
REMARK 923 INTER-LIGAND FREE ENERGY PREDICTED BY IDOCK:   -7.95 KCAL/MOL
REMARK 924 INTRA-LIGAND FREE ENERGY PREDICTED BY IDOCK:   -1.30 KCAL/MOL
REMARK 927      BINDING AFFINITY PREDICTED BY RF-SCORE:    0.00 PKD
ROOT
HETATM    1  C   UNL     1     -12.769  11.911  63.776  1.00  0.00    -0.350 C  
HETATM    2  O   UNL     1     -12.894  12.691  64.957  1.00  0.00    -0.765 OA 
ENDROOT
BRANCH   2   3
HETATM    3  C   UNL     1     -11.795  12.837  65.755  1.00  0.00    -0.434 A  
HETATM    4  C   UNL     1     -10.708  13.706  65.586  1.00  0.00    -0.283 A  
HETATM    5  C   UNL     1     -11.775  11.927  66.818  1.00  0.00    -0.281 A  
HETATM    6  C   UNL     1      -9.625  13.623  66.472  1.00  0.00    -0.294 A  
HETATM    7  C   UNL     1      -9.534  12.612  67.455  1.00  0.00    -0.186 A  
HETATM    8 BR   UNL     1     -10.834  10.611  69.123  1.00  0.00    -0.308 Br 
HETATM    9  C   UNL     1     -10.675  11.828  67.673  1.00  0.00    -0.214 A  
BRANCH   4  10
HETATM   10  O   UNL     1     -10.733  14.628  64.579  1.00  0.00    -0.334 OA 
HETATM   11  C   UNL     1     -11.209  15.925  64.938  1.00  0.00    -0.337 C  
ENDBRANCH   4  10
BRANCH   7  12
HETATM   12  C   UNL     1      -8.189  12.330  68.109  1.00  0.00    -0.168 C  
BRANCH  12  13
HETATM   13  N   UNL     1      -7.320  11.224  67.373  1.00  0.00    -0.108 N  
HETATM   14  O   UNL     1      -5.912  10.687  64.817  1.00  0.00    -0.108 OA 
HETATM   15  C   UNL     1      -8.024  10.770  66.052  1.00  0.00    -0.154 C  
HETATM   16  C   UNL     1      -7.073   9.934  65.172  1.00  0.00    -0.129 C  
HETATM   17  C   UNL     1      -5.993  11.913  66.928  1.00  0.00    -0.115 C  
HETATM   18  C   UNL     1      -5.158  11.061  65.971  1.00  0.00    -0.131 C  
BRANCH  13  19
HETATM   19  C   UNL     1      -7.058   9.998  68.314  1.00  0.00    -0.072 C  
BRANCH  19  20
HETATM   20  C   UNL     1      -6.712  10.456  69.746  1.00  0.00    -0.117 C  
BRANCH  20  21
HETATM   21  O   UNL     1      -7.381   9.733  70.775  1.00  0.00    -0.285 OA 
BRANCH  21  22
HETATM   22  C   UNL     1      -6.979   8.337  70.811  1.00  0.00    -0.043 C  
BRANCH  22  23
HETATM   23  C   UNL     1      -8.150   7.390  71.088  1.00  0.00    -0.101 C  
BRANCH  23  24
HETATM   24  C   UNL     1      -9.463   8.020  71.587  1.00  0.00    -0.213 C  
HETATM   25  C   UNL     1      -9.453   7.986  73.141  1.00  0.00    -0.349 C  
HETATM   26  C   UNL     1     -10.379   6.942  73.780  1.00  0.00    -0.409 C  
HETATM   27  C   UNL     1     -11.496   6.511  72.829  1.00  0.00    -0.167 C  
HETATM   28  C   UNL     1     -10.857   5.852  71.572  1.00  0.00    -0.325 C  
HETATM   29  C   UNL     1     -10.730   7.313  71.040  1.00  0.00    -0.247 C  
HETATM   30  C   UNL     1     -12.095   7.590  71.835  1.00  0.00    -0.338 C  
HETATM   31  C   UNL     1     -12.358   9.010  72.343  1.00  0.00    -0.350 C  
HETATM   32  C   UNL     1     -13.406   7.116  71.168  1.00  0.00    -0.238 C  
ENDBRANCH  23  24
ENDBRANCH  22  23
ENDBRANCH  21  22
ENDBRANCH  20  21
ENDBRANCH  19  20
ENDBRANCH  13  19
ENDBRANCH  12  13
ENDBRANCH   7  12
ENDBRANCH   2   3
TORSDOF 10
ENDMDL
MODEL       76
REMARK 921   NORMALIZED FREE ENERGY PREDICTED BY IDOCK:   -5.02 KCAL/MOL
REMARK 922        TOTAL FREE ENERGY PREDICTED BY IDOCK:   -9.23 KCAL/MOL
REMARK 923 INTER-LIGAND FREE ENERGY PREDICTED BY IDOCK:   -8.16 KCAL/MOL
REMARK 924 INTRA-LIGAND FREE ENERGY PREDICTED BY IDOCK:   -1.07 KCAL/MOL
REMARK 927      BINDING AFFINITY PREDICTED BY RF-SCORE:    0.00 PKD
ROOT
HETATM    1  C   UNL     1      -7.743   6.818  62.862  1.00  0.00    -0.102 C  
HETATM    2  O   UNL     1      -7.015   7.477  63.889  1.00  0.00    -0.055 OA 
ENDROOT
BRANCH   2   3
HETATM    3  C   UNL     1      -7.642   8.462  64.598  1.00  0.00    -0.104 A  
HETATM    4  C   UNL     1      -7.380   9.838  64.591  1.00  0.00    -0.134 A  
HETATM    5  C   UNL     1      -8.608   7.961  65.479  1.00  0.00    -0.139 A  
HETATM    6  C   UNL     1      -8.078  10.669  65.480  1.00  0.00    -0.129 A  
HETATM    7  C   UNL     1      -8.945  10.153  66.468  1.00  0.00    -0.161 A  
HETATM    8 BR   UNL     1     -10.619   7.983  67.450  1.00  0.00    -0.284 Br 
HETATM    9  C   UNL     1      -9.270   8.792  66.385  1.00  0.00    -0.189 A  
BRANCH   4  10
HETATM   10  O   UNL     1      -6.471  10.347  63.708  1.00  0.00    -0.118 OA 
HETATM   11  C   UNL     1      -6.914  10.452  62.355  1.00  0.00    -0.142 C  
ENDBRANCH   4  10
BRANCH   7  12
HETATM   12  C   UNL     1      -9.355  11.040  67.634  1.00  0.00    -0.157 C  
BRANCH  12  13
HETATM   13  N   UNL     1     -10.327  12.234  67.242  1.00  0.00    -0.213 N  
HETATM   14  O   UNL     1     -11.357  13.721  64.891  1.00  0.00    -0.324 OA 
HETATM   15  C   UNL     1      -9.536  13.350  66.484  1.00  0.00    -0.272 C  
HETATM   16  C   UNL     1     -10.495  14.365  65.830  1.00  0.00    -0.308 C  
HETATM   17  C   UNL     1     -11.348  11.665  66.209  1.00  0.00    -0.227 C  
HETATM   18  C   UNL     1     -12.186  12.746  65.525  1.00  0.00    -0.463 C  
BRANCH  13  19
HETATM   19  C   UNL     1     -11.039  12.817  68.510  1.00  0.00    -0.266 C  
BRANCH  19  20
HETATM   20  C   UNL     1     -11.830  11.726  69.260  1.00  0.00    -0.326 C  
BRANCH  20  21
HETATM   21  O   UNL     1     -12.266  12.101  70.562  1.00  0.00    -0.356 OA 
BRANCH  21  22
HETATM   22  C   UNL     1     -12.795  10.972  71.308  1.00  0.00    -0.425 C  
BRANCH  22  23
HETATM   23  C   UNL     1     -12.209   9.633  70.854  1.00  0.00    -0.368 C  
BRANCH  23  24
HETATM   24  C   UNL     1     -11.292   8.892  71.844  1.00  0.00    -0.446 C  
HETATM   25  C   UNL     1      -9.870   8.819  71.221  1.00  0.00    -0.336 C  
HETATM   26  C   UNL     1      -9.456   7.439  70.692  1.00  0.00    -0.164 C  
HETATM   27  C   UNL     1     -10.271   6.314  71.331  1.00  0.00    -0.237 C  
HETATM   28  C   UNL     1     -11.771   6.515  70.971  1.00  0.00    -0.402 C  
HETATM   29  C   UNL     1     -11.798   7.471  72.203  1.00  0.00    -0.338 C  
HETATM   30  C   UNL     1     -10.716   6.475  72.844  1.00  0.00    -0.280 C  
HETATM   31  C   UNL     1      -9.723   7.046  73.860  1.00  0.00    -0.331 C  
HETATM   32  C   UNL     1     -11.247   5.155  73.448  1.00  0.00    -0.358 C  
ENDBRANCH  23  24
ENDBRANCH  22  23
ENDBRANCH  21  22
ENDBRANCH  20  21
ENDBRANCH  19  20
ENDBRANCH  13  19
ENDBRANCH  12  13
ENDBRANCH   7  12
ENDBRANCH   2   3
TORSDOF 10
ENDMDL
MODEL       77
REMARK 921   NORMALIZED FREE ENERGY PREDICTED BY IDOCK:   -5.01 KCAL/MOL
REMARK 922        TOTAL FREE ENERGY PREDICTED BY IDOCK:   -9.22 KCAL/MOL
REMARK 923 INTER-LIGAND FREE ENERGY PREDICTED BY IDOCK:   -8.53 KCAL/MOL
REMARK 924 INTRA-LIGAND FREE ENERGY PREDICTED BY IDOCK:   -0.69 KCAL/MOL
REMARK 927      BINDING AFFINITY PREDICTED BY RF-SCORE:    0.00 PKD
ROOT
HETATM    1  C   UNL     1      -8.220   7.243  66.726  1.00  0.00    -0.121 C  
HETATM    2  O   UNL     1      -9.606   7.547  66.653  1.00  0.00    -0.187 OA 
ENDROOT
BRANCH   2   3
HETATM    3  C   UNL     1      -9.992   8.848  66.818  1.00  0.00    -0.267 A  
HETATM    4  C   UNL     1     -10.427   9.482  67.990  1.00  0.00    -0.230 A  
HETATM    5  C   UNL     1     -10.005   9.564  65.616  1.00  0.00    -0.269 A  
HETATM    6  C   UNL     1     -10.880  10.807  67.920  1.00  0.00    -0.313 A  
HETATM    7  C   UNL     1     -11.031  11.486  66.690  1.00  0.00    -0.349 A  
HETATM    8 BR   UNL     1     -10.359  11.744  63.869  1.00  0.00    -0.479 Br 
HETATM    9  C   UNL     1     -10.492  10.871  65.551  1.00  0.00    -0.219 A  
BRANCH   4  10
HETATM   10  O   UNL     1     -10.381   8.809  69.177  1.00  0.00    -0.210 OA 
HETATM   11  C   UNL     1     -10.599   9.600  70.347  1.00  0.00    -0.295 C  
ENDBRANCH   4  10
BRANCH   7  12
HETATM   12  C   UNL     1     -11.882  12.746  66.636  1.00  0.00    -0.393 C  
BRANCH  12  13
HETATM   13  N   UNL     1     -11.203  14.025  67.286  1.00  0.00    -0.302 N  
HETATM   14  O   UNL     1      -9.295  14.823  69.414  1.00  0.00    -0.105 OA 
HETATM   15  C   UNL     1     -11.559  14.116  68.806  1.00  0.00    -0.327 C  
HETATM   16  C   UNL     1     -10.679  15.160  69.523  1.00  0.00    -0.266 C  
HETATM   17  C   UNL     1      -9.660  13.798  67.227  1.00  0.00    -0.237 C  
HETATM   18  C   UNL     1      -8.865  14.811  68.052  1.00  0.00    -0.169 C  
BRANCH  13  19
HETATM   19  C   UNL     1     -11.632  15.331  66.534  1.00  0.00    -0.015 C  
BRANCH  19  20
HETATM   20  C   UNL     1     -10.995  15.405  65.131  1.00  0.00    -0.418 C  
BRANCH  20  21
HETATM   21  O   UNL     1     -10.337  16.635  64.845  1.00  0.00    -0.577 OA 
BRANCH  21  22
HETATM   22  C   UNL     1     -10.644  17.661  65.828  1.00  0.00    -0.177 C  
BRANCH  22  23
HETATM   23  C   UNL     1      -9.504  17.889  66.822  1.00  0.00    -0.289 C  
BRANCH  23  24
HETATM   24  C   UNL     1      -8.268  18.655  66.315  1.00  0.00    -0.258 C  
HETATM   25  C   UNL     1      -7.186  17.612  65.918  1.00  0.00    -0.235 C  
HETATM   26  C   UNL     1      -6.003  17.492  66.888  1.00  0.00    -0.197 C  
HETATM   27  C   UNL     1      -5.842  18.744  67.750  1.00  0.00    -0.192 C  
HETATM   28  C   UNL     1      -7.126  18.930  68.610  1.00  0.00    -0.327 C  
HETATM   29  C   UNL     1      -7.697  19.656  67.352  1.00  0.00    -0.299 C  
HETATM   30  C   UNL     1      -6.192  20.149  67.105  1.00  0.00    -0.215 C  
HETATM   31  C   UNL     1      -5.755  20.443  65.668  1.00  0.00    -0.217 C  
HETATM   32  C   UNL     1      -5.691  21.334  67.963  1.00  0.00    -0.373 C  
ENDBRANCH  23  24
ENDBRANCH  22  23
ENDBRANCH  21  22
ENDBRANCH  20  21
ENDBRANCH  19  20
ENDBRANCH  13  19
ENDBRANCH  12  13
ENDBRANCH   7  12
ENDBRANCH   2   3
TORSDOF 10
ENDMDL
MODEL       78
REMARK 921   NORMALIZED FREE ENERGY PREDICTED BY IDOCK:   -5.01 KCAL/MOL
REMARK 922        TOTAL FREE ENERGY PREDICTED BY IDOCK:   -9.21 KCAL/MOL
REMARK 923 INTER-LIGAND FREE ENERGY PREDICTED BY IDOCK:   -8.91 KCAL/MOL
REMARK 924 INTRA-LIGAND FREE ENERGY PREDICTED BY IDOCK:   -0.31 KCAL/MOL
REMARK 927      BINDING AFFINITY PREDICTED BY RF-SCORE:    0.00 PKD
ROOT
HETATM    1  C   UNL     1      -6.091  14.559  70.820  1.00  0.00    -0.148 C  
HETATM    2  O   UNL     1      -6.628  15.558  69.965  1.00  0.00    -0.156 OA 
ENDROOT
BRANCH   2   3
HETATM    3  C   UNL     1      -7.536  15.178  69.017  1.00  0.00    -0.162 A  
HETATM    4  C   UNL     1      -7.292  14.604  67.762  1.00  0.00    -0.173 A  
HETATM    5  C   UNL     1      -8.852  15.495  69.372  1.00  0.00    -0.257 A  
HETATM    6  C   UNL     1      -8.370  14.384  66.892  1.00  0.00    -0.109 A  
HETATM    7  C   UNL     1      -9.676  14.834  67.184  1.00  0.00    -0.234 A  
HETATM    8 BR   UNL     1     -11.651  15.698  69.141  1.00  0.00    -0.409 Br 
HETATM    9  C   UNL     1      -9.913  15.306  68.483  1.00  0.00    -0.222 A  
BRANCH   4  10
HETATM   10  O   UNL     1      -6.019  14.250  67.419  1.00  0.00    -0.346 OA 
HETATM   11  C   UNL     1      -5.694  12.869  67.581  1.00  0.00    -0.130 C  
ENDBRANCH   4  10
BRANCH   7  12
HETATM   12  C   UNL     1     -10.700  14.925  66.063  1.00  0.00    -0.323 C  
BRANCH  12  13
HETATM   13  N   UNL     1     -11.304  13.528  65.610  1.00  0.00    -0.297 N  
HETATM   14  O   UNL     1     -11.216  11.563  63.389  1.00  0.00    -0.387 OA 
HETATM   15  C   UNL     1     -12.077  13.682  64.259  1.00  0.00    -0.434 C  
HETATM   16  C   UNL     1     -12.407  12.307  63.646  1.00  0.00    -0.562 C  
HETATM   17  C   UNL     1     -10.095  12.592  65.299  1.00  0.00    -0.257 C  
HETATM   18  C   UNL     1     -10.496  11.296  64.593  1.00  0.00    -0.325 C  
BRANCH  13  19
HETATM   19  C   UNL     1     -12.236  12.933  66.720  1.00  0.00    -0.133 C  
BRANCH  19  20
HETATM   20  C   UNL     1     -11.488  11.896  67.584  1.00  0.00    -0.317 C  
BRANCH  20  21
HETATM   21  O   UNL     1     -12.317  11.167  68.482  1.00  0.00    -0.561 OA 
BRANCH  21  22
HETATM   22  C   UNL     1     -11.834  11.238  69.852  1.00  0.00    -0.360 C  
BRANCH  22  23
HETATM   23  C   UNL     1     -10.625  10.334  70.102  1.00  0.00    -0.303 C  
BRANCH  23  24
HETATM   24  C   UNL     1     -10.890   8.968  70.763  1.00  0.00    -0.310 C  
HETATM   25  C   UNL     1     -10.058   8.900  72.074  1.00  0.00    -0.351 C  
HETATM   26  C   UNL     1      -8.822   7.991  72.020  1.00  0.00    -0.209 C  
HETATM   27  C   UNL     1      -8.930   6.946  70.908  1.00  0.00    -0.149 C  
HETATM   28  C   UNL     1      -9.023   7.679  69.539  1.00  0.00    -0.139 C  
HETATM   29  C   UNL     1     -10.551   7.766  69.845  1.00  0.00    -0.239 C  
HETATM   30  C   UNL     1     -10.360   6.350  70.574  1.00  0.00    -0.247 C  
HETATM   31  C   UNL     1     -11.310   5.995  71.721  1.00  0.00    -0.324 C  
HETATM   32  C   UNL     1     -10.283   5.099  69.670  1.00  0.00    -0.337 C  
ENDBRANCH  23  24
ENDBRANCH  22  23
ENDBRANCH  21  22
ENDBRANCH  20  21
ENDBRANCH  19  20
ENDBRANCH  13  19
ENDBRANCH  12  13
ENDBRANCH   7  12
ENDBRANCH   2   3
TORSDOF 10
ENDMDL
MODEL       79
REMARK 921   NORMALIZED FREE ENERGY PREDICTED BY IDOCK:   -5.01 KCAL/MOL
REMARK 922        TOTAL FREE ENERGY PREDICTED BY IDOCK:   -9.21 KCAL/MOL
REMARK 923 INTER-LIGAND FREE ENERGY PREDICTED BY IDOCK:   -8.31 KCAL/MOL
REMARK 924 INTRA-LIGAND FREE ENERGY PREDICTED BY IDOCK:   -0.90 KCAL/MOL
REMARK 927      BINDING AFFINITY PREDICTED BY RF-SCORE:    0.00 PKD
ROOT
HETATM    1  C   UNL     1     -10.756   5.966  69.599  1.00  0.00    -0.345 C  
HETATM    2  O   UNL     1     -11.346   7.232  69.345  1.00  0.00    -0.061 OA 
ENDROOT
BRANCH   2   3
HETATM    3  C   UNL     1     -10.530   8.265  68.976  1.00  0.00    -0.197 A  
HETATM    4  C   UNL     1     -10.215   9.424  69.698  1.00  0.00    -0.212 A  
HETATM    5  C   UNL     1     -10.035   8.123  67.675  1.00  0.00    -0.240 A  
HETATM    6  C   UNL     1      -9.433  10.415  69.089  1.00  0.00    -0.220 A  
HETATM    7  C   UNL     1      -9.053  10.344  67.730  1.00  0.00    -0.134 A  
HETATM    8 BR   UNL     1      -8.608   8.756  65.331  1.00  0.00    -0.211 Br 
HETATM    9  C   UNL     1      -9.287   9.132  67.065  1.00  0.00    -0.148 A  
BRANCH   4  10
HETATM   10  O   UNL     1     -10.656   9.557  70.984  1.00  0.00    -0.297 OA 
HETATM   11  C   UNL     1     -11.980  10.070  71.135  1.00  0.00    -0.392 C  
ENDBRANCH   4  10
BRANCH   7  12
HETATM   12  C   UNL     1      -8.560  11.601  67.029  1.00  0.00    -0.169 C  
BRANCH  12  13
HETATM   13  N   UNL     1      -9.714  12.563  66.516  1.00  0.00    -0.241 N  
HETATM   14  O   UNL     1     -12.481  12.517  65.446  1.00  0.00    -0.630 OA 
HETATM   15  C   UNL     1     -10.086  12.222  65.035  1.00  0.00    -0.253 C  
HETATM   16  C   UNL     1     -11.394  12.922  64.614  1.00  0.00    -0.323 C  
HETATM   17  C   UNL     1     -10.986  12.233  67.357  1.00  0.00    -0.253 C  
HETATM   18  C   UNL     1     -12.260  12.879  66.810  1.00  0.00    -0.133 C  
BRANCH  13  19
HETATM   19  C   UNL     1      -9.294  14.066  66.653  1.00  0.00    -0.277 C  
BRANCH  19  20
HETATM   20  C   UNL     1      -8.937  14.417  68.112  1.00  0.00    -0.185 C  
BRANCH  20  21
HETATM   21  O   UNL     1      -9.842  15.319  68.741  1.00  0.00    -0.201 OA 
BRANCH  21  22
HETATM   22  C   UNL     1     -10.505  16.186  67.782  1.00  0.00    -0.295 C  
BRANCH  22  23
HETATM   23  C   UNL     1     -10.528  17.651  68.224  1.00  0.00    -0.376 C  
BRANCH  23  24
HETATM   24  C   UNL     1      -9.536  18.610  67.542  1.00  0.00    -0.311 C  
HETATM   25  C   UNL     1      -8.952  17.889  66.294  1.00  0.00    -0.192 C  
HETATM   26  C   UNL     1      -7.503  17.404  66.435  1.00  0.00    -0.341 C  
HETATM   27  C   UNL     1      -6.752  18.159  67.531  1.00  0.00    -0.198 C  
HETATM   28  C   UNL     1      -7.459  17.899  68.893  1.00  0.00    -0.234 C  
HETATM   29  C   UNL     1      -8.392  19.078  68.477  1.00  0.00    -0.387 C  
HETATM   30  C   UNL     1      -7.095  19.690  67.760  1.00  0.00    -0.291 C  
HETATM   31  C   UNL     1      -7.303  20.599  66.546  1.00  0.00    -0.211 C  
HETATM   32  C   UNL     1      -6.061  20.399  68.663  1.00  0.00    -0.350 C  
ENDBRANCH  23  24
ENDBRANCH  22  23
ENDBRANCH  21  22
ENDBRANCH  20  21
ENDBRANCH  19  20
ENDBRANCH  13  19
ENDBRANCH  12  13
ENDBRANCH   7  12
ENDBRANCH   2   3
TORSDOF 10
ENDMDL
MODEL       80
REMARK 921   NORMALIZED FREE ENERGY PREDICTED BY IDOCK:   -4.98 KCAL/MOL
REMARK 922        TOTAL FREE ENERGY PREDICTED BY IDOCK:   -9.16 KCAL/MOL
REMARK 923 INTER-LIGAND FREE ENERGY PREDICTED BY IDOCK:   -8.29 KCAL/MOL
REMARK 924 INTRA-LIGAND FREE ENERGY PREDICTED BY IDOCK:   -0.87 KCAL/MOL
REMARK 927      BINDING AFFINITY PREDICTED BY RF-SCORE:    0.00 PKD
ROOT
HETATM    1  C   UNL     1     -10.791  17.494  65.589  1.00  0.00     0.013 C  
HETATM    2  O   UNL     1     -10.157  16.721  66.598  1.00  0.00    -0.278 OA 
ENDROOT
BRANCH   2   3
HETATM    3  C   UNL     1     -10.561  15.427  66.772  1.00  0.00    -0.309 A  
HETATM    4  C   UNL     1     -10.868  14.768  67.970  1.00  0.00    -0.260 A  
HETATM    5  C   UNL     1     -10.580  14.701  65.576  1.00  0.00    -0.369 A  
HETATM    6  C   UNL     1     -11.165  13.398  67.937  1.00  0.00    -0.303 A  
HETATM    7  C   UNL     1     -11.044  12.631  66.757  1.00  0.00    -0.318 A  
HETATM    8 BR   UNL     1     -10.923  12.502  63.851  1.00  0.00    -0.510 Br 
HETATM    9  C   UNL     1     -10.841  13.330  65.559  1.00  0.00    -0.284 A  
BRANCH   4  10
HETATM   10  O   UNL     1     -10.895  15.472  69.140  1.00  0.00    -0.226 OA 
HETATM   11  C   UNL     1     -12.131  15.440  69.854  1.00  0.00    -0.355 C  
ENDBRANCH   4  10
BRANCH   7  12
HETATM   12  C   UNL     1     -10.990  11.114  66.859  1.00  0.00    -0.273 C  
BRANCH  12  13
HETATM   13  N   UNL     1      -9.578  10.534  67.296  1.00  0.00    -0.161 N  
HETATM   14  O   UNL     1      -7.256  11.128  69.043  1.00  0.00    -0.100 OA 
HETATM   15  C   UNL     1      -8.442  11.549  66.944  1.00  0.00    -0.165 C  
HETATM   16  C   UNL     1      -7.114  11.157  67.623  1.00  0.00    -0.089 C  
HETATM   17  C   UNL     1      -9.591  10.438  68.853  1.00  0.00    -0.192 C  
HETATM   18  C   UNL     1      -8.214  10.153  69.455  1.00  0.00    -0.166 C  
BRANCH  13  19
HETATM   19  C   UNL     1      -9.311   9.143  66.625  1.00  0.00    -0.177 C  
BRANCH  19  20
HETATM   20  C   UNL     1     -10.489   8.175  66.853  1.00  0.00    -0.309 C  
BRANCH  20  21
HETATM   21  O   UNL     1     -10.155   6.797  66.727  1.00  0.00    -0.189 OA 
BRANCH  21  22
HETATM   22  C   UNL     1     -10.536   6.032  67.903  1.00  0.00    -0.267 C  
BRANCH  22  23
HETATM   23  C   UNL     1     -11.024   6.917  69.053  1.00  0.00    -0.225 C  
BRANCH  23  24
HETATM   24  C   UNL     1     -11.292   6.233  70.405  1.00  0.00    -0.440 C  
HETATM   25  C   UNL     1     -12.481   6.965  71.088  1.00  0.00    -0.398 C  
HETATM   26  C   UNL     1     -12.103   7.869  72.269  1.00  0.00    -0.363 C  
HETATM   27  C   UNL     1     -10.753   7.484  72.875  1.00  0.00    -0.411 C  
HETATM   28  C   UNL     1      -9.650   7.657  71.791  1.00  0.00    -0.183 C  
HETATM   29  C   UNL     1     -10.057   6.219  71.343  1.00  0.00    -0.222 C  
HETATM   30  C   UNL     1     -10.350   5.951  72.896  1.00  0.00    -0.224 C  
HETATM   31  C   UNL     1     -11.406   4.905  73.262  1.00  0.00    -0.408 C  
HETATM   32  C   UNL     1      -9.130   5.674  73.804  1.00  0.00    -0.127 C  
ENDBRANCH  23  24
ENDBRANCH  22  23
ENDBRANCH  21  22
ENDBRANCH  20  21
ENDBRANCH  19  20
ENDBRANCH  13  19
ENDBRANCH  12  13
ENDBRANCH   7  12
ENDBRANCH   2   3
TORSDOF 10
ENDMDL
MODEL       81
REMARK 921   NORMALIZED FREE ENERGY PREDICTED BY IDOCK:   -4.97 KCAL/MOL
REMARK 922        TOTAL FREE ENERGY PREDICTED BY IDOCK:   -9.15 KCAL/MOL
REMARK 923 INTER-LIGAND FREE ENERGY PREDICTED BY IDOCK:   -8.20 KCAL/MOL
REMARK 924 INTRA-LIGAND FREE ENERGY PREDICTED BY IDOCK:   -0.95 KCAL/MOL
REMARK 927      BINDING AFFINITY PREDICTED BY RF-SCORE:    0.00 PKD
ROOT
HETATM    1  C   UNL     1     -10.092   4.808  71.154  1.00  0.00    -0.191 C  
HETATM    2  O   UNL     1      -9.814   4.740  69.762  1.00  0.00    -0.184 OA 
ENDROOT
BRANCH   2   3
HETATM    3  C   UNL     1     -10.170   5.801  68.978  1.00  0.00    -0.217 A  
HETATM    4  C   UNL     1     -10.554   5.795  67.630  1.00  0.00    -0.239 A  
HETATM    5  C   UNL     1     -10.045   7.028  69.641  1.00  0.00    -0.194 A  
HETATM    6  C   UNL     1     -10.781   7.016  66.981  1.00  0.00    -0.423 A  
HETATM    7  C   UNL     1     -10.516   8.258  67.600  1.00  0.00    -0.303 A  
HETATM    8 BR   UNL     1     -10.123   9.816  70.028  1.00  0.00    -0.316 Br 
HETATM    9  C   UNL     1     -10.237   8.240  68.974  1.00  0.00    -0.217 A  
BRANCH   4  10
HETATM   10  O   UNL     1     -10.721   4.604  66.983  1.00  0.00     0.025 OA 
HETATM   11  C   UNL     1     -10.292   4.574  65.621  1.00  0.00    -0.247 C  
ENDBRANCH   4  10
BRANCH   7  12
HETATM   12  C   UNL     1     -10.399   9.508  66.741  1.00  0.00    -0.228 C  
BRANCH  12  13
HETATM   13  N   UNL     1      -9.058   9.601  65.895  1.00  0.00    -0.165 N  
HETATM   14  O   UNL     1      -6.115   9.334  66.157  1.00  0.00    -0.058 OA 
HETATM   15  C   UNL     1      -8.118  10.702  66.486  1.00  0.00    -0.140 C  
HETATM   16  C   UNL     1      -6.702  10.607  65.884  1.00  0.00    -0.116 C  
HETATM   17  C   UNL     1      -8.304   8.250  66.094  1.00  0.00    -0.124 C  
HETATM   18  C   UNL     1      -6.868   8.273  65.566  1.00  0.00    -0.066 C  
BRANCH  13  19
HETATM   19  C   UNL     1      -9.367   9.883  64.384  1.00  0.00    -0.265 C  
BRANCH  19  20
HETATM   20  C   UNL     1      -9.854  11.331  64.173  1.00  0.00    -0.279 C  
BRANCH  20  21
HETATM   21  O   UNL     1     -11.259  11.461  63.988  1.00  0.00    -0.368 OA 
BRANCH  21  22
HETATM   22  C   UNL     1     -11.676  12.852  63.923  1.00  0.00    -0.460 C  
BRANCH  22  23
HETATM   23  C   UNL     1     -12.526  13.274  65.124  1.00  0.00    -0.525 C  
BRANCH  23  24
HETATM   24  C   UNL     1     -11.980  14.406  66.013  1.00  0.00    -0.377 C  
HETATM   25  C   UNL     1     -10.496  14.654  65.618  1.00  0.00    -0.358 C  
HETATM   26  C   UNL     1      -9.456  14.139  66.621  1.00  0.00    -0.303 C  
HETATM   27  C   UNL     1     -10.048  13.964  68.020  1.00  0.00    -0.244 C  
HETATM   28  C   UNL     1     -11.187  12.905  67.953  1.00  0.00    -0.306 C  
HETATM   29  C   UNL     1     -12.091  14.104  67.529  1.00  0.00    -0.363 C  
HETATM   30  C   UNL     1     -11.163  14.985  68.496  1.00  0.00    -0.298 C  
HETATM   31  C   UNL     1     -10.998  16.474  68.179  1.00  0.00    -0.336 C  
HETATM   32  C   UNL     1     -11.441  14.891  70.014  1.00  0.00    -0.317 C  
ENDBRANCH  23  24
ENDBRANCH  22  23
ENDBRANCH  21  22
ENDBRANCH  20  21
ENDBRANCH  19  20
ENDBRANCH  13  19
ENDBRANCH  12  13
ENDBRANCH   7  12
ENDBRANCH   2   3
TORSDOF 10
ENDMDL
MODEL       82
REMARK 921   NORMALIZED FREE ENERGY PREDICTED BY IDOCK:   -4.97 KCAL/MOL
REMARK 922        TOTAL FREE ENERGY PREDICTED BY IDOCK:   -9.14 KCAL/MOL
REMARK 923 INTER-LIGAND FREE ENERGY PREDICTED BY IDOCK:   -8.33 KCAL/MOL
REMARK 924 INTRA-LIGAND FREE ENERGY PREDICTED BY IDOCK:   -0.82 KCAL/MOL
REMARK 927      BINDING AFFINITY PREDICTED BY RF-SCORE:    0.00 PKD
ROOT
HETATM    1  C   UNL     1     -12.717  14.437  73.070  1.00  0.00    -0.357 C  
HETATM    2  O   UNL     1     -12.795  13.046  72.794  1.00  0.00    -0.124 OA 
ENDROOT
BRANCH   2   3
HETATM    3  C   UNL     1     -12.679  12.636  71.496  1.00  0.00    -0.223 A  
HETATM    4  C   UNL     1     -12.683  11.326  70.995  1.00  0.00    -0.359 A  
HETATM    5  C   UNL     1     -12.456  13.698  70.612  1.00  0.00    -0.417 A  
HETATM    6  C   UNL     1     -12.444  11.119  69.630  1.00  0.00    -0.195 A  
HETATM    7  C   UNL     1     -12.076  12.171  68.762  1.00  0.00    -0.166 A  
HETATM    8 BR   UNL     1     -11.993  15.020  68.169  1.00  0.00    -0.084 Br 
HETATM    9  C   UNL     1     -12.182  13.477  69.261  1.00  0.00    -0.211 A  
BRANCH   4  10
HETATM   10  O   UNL     1     -12.941  10.284  71.838  1.00  0.00    -0.427 OA 
HETATM   11  C   UNL     1     -12.298   9.051  71.513  1.00  0.00    -0.331 C  
ENDBRANCH   4  10
BRANCH   7  12
HETATM   12  C   UNL     1     -11.453  11.839  67.414  1.00  0.00    -0.305 C  
BRANCH  12  13
HETATM   13  N   UNL     1      -9.894  11.541  67.466  1.00  0.00    -0.188 N  
HETATM   14  O   UNL     1      -7.906   9.759  68.758  1.00  0.00    -0.079 OA 
HETATM   15  C   UNL     1      -9.354  11.725  68.921  1.00  0.00     0.090 C  
HETATM   16  C   UNL     1      -7.929  11.154  69.063  1.00  0.00    -0.086 C  
HETATM   17  C   UNL     1      -9.713  10.027  67.137  1.00  0.00    -0.174 C  
HETATM   18  C   UNL     1      -8.298   9.512  67.407  1.00  0.00    -0.125 C  
BRANCH  13  19
HETATM   19  C   UNL     1      -9.114  12.456  66.461  1.00  0.00    -0.181 C  
BRANCH  19  20
HETATM   20  C   UNL     1     -10.044  12.994  65.354  1.00  0.00    -0.252 C  
BRANCH  20  21
HETATM   21  O   UNL     1     -10.101  14.414  65.269  1.00  0.00    -0.369 OA 
BRANCH  21  22
HETATM   22  C   UNL     1      -9.241  15.056  66.249  1.00  0.00    -0.289 C  
BRANCH  22  23
HETATM   23  C   UNL     1      -9.208  16.579  66.103  1.00  0.00    -0.338 C  
BRANCH  23  24
HETATM   24  C   UNL     1      -8.366  17.367  67.123  1.00  0.00    -0.232 C  
HETATM   25  C   UNL     1      -9.245  17.616  68.381  1.00  0.00    -0.288 C  
HETATM   26  C   UNL     1      -9.755  19.054  68.551  1.00  0.00    -0.458 C  
HETATM   27  C   UNL     1      -8.901  20.058  67.777  1.00  0.00    -0.379 C  
HETATM   28  C   UNL     1      -8.979  19.718  66.260  1.00  0.00    -0.431 C  
HETATM   29  C   UNL     1      -7.827  18.711  66.567  1.00  0.00    -0.287 C  
HETATM   30  C   UNL     1      -7.344  19.784  67.656  1.00  0.00    -0.306 C  
HETATM   31  C   UNL     1      -6.576  19.277  68.879  1.00  0.00    -0.331 C  
HETATM   32  C   UNL     1      -6.566  21.014  67.133  1.00  0.00    -0.424 C  
ENDBRANCH  23  24
ENDBRANCH  22  23
ENDBRANCH  21  22
ENDBRANCH  20  21
ENDBRANCH  19  20
ENDBRANCH  13  19
ENDBRANCH  12  13
ENDBRANCH   7  12
ENDBRANCH   2   3
TORSDOF 10
ENDMDL
MODEL       83
REMARK 921   NORMALIZED FREE ENERGY PREDICTED BY IDOCK:   -4.96 KCAL/MOL
REMARK 922        TOTAL FREE ENERGY PREDICTED BY IDOCK:   -9.14 KCAL/MOL
REMARK 923 INTER-LIGAND FREE ENERGY PREDICTED BY IDOCK:   -8.06 KCAL/MOL
REMARK 924 INTRA-LIGAND FREE ENERGY PREDICTED BY IDOCK:   -1.08 KCAL/MOL
REMARK 927      BINDING AFFINITY PREDICTED BY RF-SCORE:    0.00 PKD
ROOT
HETATM    1  C   UNL     1      -8.847   7.738  74.053  1.00  0.00    -0.247 C  
HETATM    2  O   UNL     1     -10.224   7.538  73.772  1.00  0.00    -0.322 OA 
ENDROOT
BRANCH   2   3
HETATM    3  C   UNL     1     -10.595   7.327  72.473  1.00  0.00    -0.247 A  
HETATM    4  C   UNL     1     -10.971   6.123  71.862  1.00  0.00    -0.263 A  
HETATM    5  C   UNL     1     -10.496   8.482  71.689  1.00  0.00    -0.345 A  
HETATM    6  C   UNL     1     -11.216   6.107  70.482  1.00  0.00    -0.403 A  
HETATM    7  C   UNL     1     -10.978   7.232  69.663  1.00  0.00    -0.204 A  
HETATM    8 BR   UNL     1     -10.628  10.111  69.396  1.00  0.00    -0.287 Br 
HETATM    9  C   UNL     1     -10.707   8.447  70.309  1.00  0.00    -0.234 A  
BRANCH   4  10
HETATM   10  O   UNL     1     -11.112   4.997  72.622  1.00  0.00    -0.234 OA 
HETATM   11  C   UNL     1     -10.046   4.052  72.533  1.00  0.00    -0.168 C  
ENDBRANCH   4  10
BRANCH   7  12
HETATM   12  C   UNL     1     -10.879   7.048  68.156  1.00  0.00    -0.153 C  
BRANCH  12  13
HETATM   13  N   UNL     1      -9.454   6.572  67.644  1.00  0.00    -0.124 N  
HETATM   14  O   UNL     1      -7.149   4.872  68.418  1.00  0.00    -0.059 OA 
HETATM   15  C   UNL     1      -8.343   6.995  68.660  1.00  0.00    -0.122 C  
HETATM   16  C   UNL     1      -7.007   6.291  68.350  1.00  0.00    -0.080 C  
HETATM   17  C   UNL     1      -9.466   5.012  67.657  1.00  0.00    -0.132 C  
HETATM   18  C   UNL     1      -8.083   4.393  67.449  1.00  0.00    -0.100 C  
BRANCH  13  19
HETATM   19  C   UNL     1      -9.150   7.145  66.217  1.00  0.00    -0.147 C  
BRANCH  19  20
HETATM   20  C   UNL     1      -8.964   8.675  66.254  1.00  0.00    -0.173 C  
BRANCH  20  21
HETATM   21  O   UNL     1     -10.104   9.420  65.836  1.00  0.00    -0.296 OA 
BRANCH  21  22
HETATM   22  C   UNL     1      -9.865  10.131  64.592  1.00  0.00    -0.291 C  
BRANCH  22  23
HETATM   23  C   UNL     1      -9.788  11.648  64.781  1.00  0.00    -0.261 C  
BRANCH  23  24
HETATM   24  C   UNL     1     -10.576  12.253  65.957  1.00  0.00    -0.287 C  
HETATM   25  C   UNL     1     -12.071  12.344  65.539  1.00  0.00    -0.417 C  
HETATM   26  C   UNL     1     -12.577  13.757  65.219  1.00  0.00    -0.510 C  
HETATM   27  C   UNL     1     -11.705  14.836  65.862  1.00  0.00    -0.248 C  
HETATM   28  C   UNL     1     -10.262  14.722  65.287  1.00  0.00    -0.415 C  
HETATM   29  C   UNL     1     -10.053  13.645  66.396  1.00  0.00    -0.295 C  
HETATM   30  C   UNL     1     -11.057  14.533  67.277  1.00  0.00    -0.317 C  
HETATM   31  C   UNL     1     -11.894  13.829  68.348  1.00  0.00    -0.411 C  
HETATM   32  C   UNL     1     -10.474  15.800  67.943  1.00  0.00    -0.270 C  
ENDBRANCH  23  24
ENDBRANCH  22  23
ENDBRANCH  21  22
ENDBRANCH  20  21
ENDBRANCH  19  20
ENDBRANCH  13  19
ENDBRANCH  12  13
ENDBRANCH   7  12
ENDBRANCH   2   3
TORSDOF 10
ENDMDL
MODEL       84
REMARK 921   NORMALIZED FREE ENERGY PREDICTED BY IDOCK:   -4.94 KCAL/MOL
REMARK 922        TOTAL FREE ENERGY PREDICTED BY IDOCK:   -9.11 KCAL/MOL
REMARK 923 INTER-LIGAND FREE ENERGY PREDICTED BY IDOCK:   -8.20 KCAL/MOL
REMARK 924 INTRA-LIGAND FREE ENERGY PREDICTED BY IDOCK:   -0.91 KCAL/MOL
REMARK 927      BINDING AFFINITY PREDICTED BY RF-SCORE:    0.00 PKD
ROOT
HETATM    1  C   UNL     1     -11.001   6.166  67.239  1.00  0.00    -0.326 C  
HETATM    2  O   UNL     1      -9.951   7.063  67.570  1.00  0.00    -0.139 OA 
ENDROOT
BRANCH   2   3
HETATM    3  C   UNL     1     -10.249   8.392  67.694  1.00  0.00    -0.236 A  
HETATM    4  C   UNL     1     -10.651   9.088  68.842  1.00  0.00    -0.180 A  
HETATM    5  C   UNL     1     -10.199   9.072  66.472  1.00  0.00    -0.318 A  
HETATM    6  C   UNL     1     -11.010  10.438  68.729  1.00  0.00    -0.287 A  
HETATM    7  C   UNL     1     -11.102  11.090  67.479  1.00  0.00    -0.366 A  
HETATM    8 BR   UNL     1     -10.383  11.220  64.660  1.00  0.00    -0.397 Br 
HETATM    9  C   UNL     1     -10.594  10.407  66.364  1.00  0.00    -0.127 A  
BRANCH   4  10
HETATM   10  O   UNL     1     -10.663   8.448  70.048  1.00  0.00    -0.233 OA 
HETATM   11  C   UNL     1      -9.572   8.747  70.920  1.00  0.00    -0.221 C  
ENDBRANCH   4  10
BRANCH   7  12
HETATM   12  C   UNL     1     -11.862  12.403  67.379  1.00  0.00    -0.289 C  
BRANCH  12  13
HETATM   13  N   UNL     1     -11.278  13.572  68.281  1.00  0.00    -0.260 N  
HETATM   14  O   UNL     1     -12.125  15.887  69.932  1.00  0.00    -0.326 OA 
HETATM   15  C   UNL     1     -11.697  14.964  67.706  1.00  0.00    -0.317 C  
HETATM   16  C   UNL     1     -11.408  16.094  68.715  1.00  0.00    -0.359 C  
HETATM   17  C   UNL     1     -11.977  13.462  69.672  1.00  0.00    -0.324 C  
HETATM   18  C   UNL     1     -11.729  14.673  70.573  1.00  0.00    -0.285 C  
BRANCH  13  19
HETATM   19  C   UNL     1      -9.719  13.463  68.399  1.00  0.00    -0.201 C  
BRANCH  19  20
HETATM   20  C   UNL     1      -9.021  14.037  67.149  1.00  0.00    -0.232 C  
BRANCH  20  21
HETATM   21  O   UNL     1      -7.756  14.640  67.403  1.00  0.00    -0.182 OA 
BRANCH  21  22
HETATM   22  C   UNL     1      -7.779  15.477  68.591  1.00  0.00    -0.144 C  
BRANCH  22  23
HETATM   23  C   UNL     1      -6.582  16.428  68.669  1.00  0.00    -0.142 C  
BRANCH  23  24
HETATM   24  C   UNL     1      -6.852  17.923  68.416  1.00  0.00    -0.227 C  
HETATM   25  C   UNL     1      -8.378  18.102  68.174  1.00  0.00    -0.285 C  
HETATM   26  C   UNL     1      -8.783  18.369  66.718  1.00  0.00    -0.284 C  
HETATM   27  C   UNL     1      -7.621  18.922  65.893  1.00  0.00    -0.209 C  
HETATM   28  C   UNL     1      -6.479  17.865  65.866  1.00  0.00    -0.294 C  
HETATM   29  C   UNL     1      -6.046  18.500  67.224  1.00  0.00    -0.172 C  
HETATM   30  C   UNL     1      -6.581  19.880  66.609  1.00  0.00    -0.214 C  
HETATM   31  C   UNL     1      -7.093  20.951  67.576  1.00  0.00    -0.389 C  
HETATM   32  C   UNL     1      -5.658  20.607  65.604  1.00  0.00    -0.235 C  
ENDBRANCH  23  24
ENDBRANCH  22  23
ENDBRANCH  21  22
ENDBRANCH  20  21
ENDBRANCH  19  20
ENDBRANCH  13  19
ENDBRANCH  12  13
ENDBRANCH   7  12
ENDBRANCH   2   3
TORSDOF 10
ENDMDL
MODEL       85
REMARK 921   NORMALIZED FREE ENERGY PREDICTED BY IDOCK:   -4.94 KCAL/MOL
REMARK 922        TOTAL FREE ENERGY PREDICTED BY IDOCK:   -9.11 KCAL/MOL
REMARK 923 INTER-LIGAND FREE ENERGY PREDICTED BY IDOCK:   -8.06 KCAL/MOL
REMARK 924 INTRA-LIGAND FREE ENERGY PREDICTED BY IDOCK:   -1.05 KCAL/MOL
REMARK 927      BINDING AFFINITY PREDICTED BY RF-SCORE:    0.00 PKD
ROOT
HETATM    1  C   UNL     1     -12.442  12.810  64.977  1.00  0.00    -0.506 C  
HETATM    2  O   UNL     1     -12.087  13.404  66.217  1.00  0.00    -0.403 OA 
ENDROOT
BRANCH   2   3
HETATM    3  C   UNL     1     -11.759  12.581  67.258  1.00  0.00    -0.362 A  
HETATM    4  C   UNL     1     -11.807  12.857  68.632  1.00  0.00    -0.312 A  
HETATM    5  C   UNL     1     -11.248  11.350  66.833  1.00  0.00    -0.331 A  
HETATM    6  C   UNL     1     -11.324  11.901  69.536  1.00  0.00    -0.306 A  
HETATM    7  C   UNL     1     -10.675  10.721  69.108  1.00  0.00    -0.265 A  
HETATM    8 BR   UNL     1     -10.162   8.758  67.020  1.00  0.00    -0.355 Br 
HETATM    9  C   UNL     1     -10.735  10.420  67.740  1.00  0.00    -0.279 A  
BRANCH   4  10
HETATM   10  O   UNL     1     -12.342  14.037  69.064  1.00  0.00    -0.307 OA 
HETATM   11  C   UNL     1     -11.403  15.074  69.352  1.00  0.00    -0.297 C  
ENDBRANCH   4  10
BRANCH   7  12
HETATM   12  C   UNL     1      -9.835   9.932  70.101  1.00  0.00    -0.219 C  
BRANCH  12  13
HETATM   13  N   UNL     1     -10.674   9.012  71.086  1.00  0.00    -0.261 N  
HETATM   14  O   UNL     1     -13.344   7.755  71.393  1.00  0.00    -0.321 OA 
HETATM   15  C   UNL     1     -11.957   9.764  71.571  1.00  0.00    -0.407 C  
HETATM   16  C   UNL     1     -12.935   8.802  72.274  1.00  0.00    -0.408 C  
HETATM   17  C   UNL     1     -11.187   7.801  70.248  1.00  0.00    -0.206 C  
HETATM   18  C   UNL     1     -12.235   6.958  70.976  1.00  0.00    -0.377 C  
BRANCH  13  19
HETATM   19  C   UNL     1      -9.803   8.554  72.305  1.00  0.00    -0.313 C  
BRANCH  19  20
HETATM   20  C   UNL     1      -8.883   7.375  71.926  1.00  0.00    -0.114 C  
BRANCH  20  21
HETATM   21  O   UNL     1      -7.630   7.758  71.370  1.00  0.00    -0.076 OA 
BRANCH  21  22
HETATM   22  C   UNL     1      -7.396   7.145  70.074  1.00  0.00    -0.080 C  
BRANCH  22  23
HETATM   23  C   UNL     1      -7.993   5.739  69.967  1.00  0.00    -0.099 C  
BRANCH  23  24
HETATM   24  C   UNL     1      -8.928   5.459  68.776  1.00  0.00    -0.127 C  
HETATM   25  C   UNL     1      -9.595   4.073  69.005  1.00  0.00    -0.223 C  
HETATM   26  C   UNL     1      -9.065   2.937  68.119  1.00  0.00    -0.226 C  
HETATM   27  C   UNL     1      -8.386   3.466  66.855  1.00  0.00    -0.100 C  
HETATM   28  C   UNL     1      -7.164   4.335  67.270  1.00  0.00    -0.068 C  
HETATM   29  C   UNL     1      -8.204   5.490  67.406  1.00  0.00    -0.101 C  
HETATM   30  C   UNL     1      -8.966   4.781  66.186  1.00  0.00    -0.122 C  
HETATM   31  C   UNL     1     -10.483   4.961  66.080  1.00  0.00    -0.346 C  
HETATM   32  C   UNL     1      -8.399   5.021  64.768  1.00  0.00    -0.140 C  
ENDBRANCH  23  24
ENDBRANCH  22  23
ENDBRANCH  21  22
ENDBRANCH  20  21
ENDBRANCH  19  20
ENDBRANCH  13  19
ENDBRANCH  12  13
ENDBRANCH   7  12
ENDBRANCH   2   3
TORSDOF 10
ENDMDL
MODEL       86
REMARK 921   NORMALIZED FREE ENERGY PREDICTED BY IDOCK:   -4.94 KCAL/MOL
REMARK 922        TOTAL FREE ENERGY PREDICTED BY IDOCK:   -9.09 KCAL/MOL
REMARK 923 INTER-LIGAND FREE ENERGY PREDICTED BY IDOCK:   -8.06 KCAL/MOL
REMARK 924 INTRA-LIGAND FREE ENERGY PREDICTED BY IDOCK:   -1.03 KCAL/MOL
REMARK 927      BINDING AFFINITY PREDICTED BY RF-SCORE:    0.00 PKD
ROOT
HETATM    1  C   UNL     1      -9.816  10.413  65.080  1.00  0.00    -0.319 C  
HETATM    2  O   UNL     1     -10.976  10.598  65.878  1.00  0.00    -0.034 OA 
ENDROOT
BRANCH   2   3
HETATM    3  C   UNL     1     -11.280  11.864  66.295  1.00  0.00    -0.337 A  
HETATM    4  C   UNL     1     -11.339  13.038  65.532  1.00  0.00    -0.300 A  
HETATM    5  C   UNL     1     -11.476  11.945  67.678  1.00  0.00    -0.387 A  
HETATM    6  C   UNL     1     -11.570  14.260  66.179  1.00  0.00    -0.374 A  
HETATM    7  C   UNL     1     -11.623  14.367  67.587  1.00  0.00    -0.396 A  
HETATM    8 BR   UNL     1     -12.012  13.111  70.184  1.00  0.00    -0.321 Br 
HETATM    9  C   UNL     1     -11.669  13.171  68.317  1.00  0.00    -0.349 A  
BRANCH   4  10
HETATM   10  O   UNL     1     -11.192  12.969  64.176  1.00  0.00    -0.362 OA 
HETATM   11  C   UNL     1     -12.383  12.699  63.437  1.00  0.00    -0.456 C  
ENDBRANCH   4  10
BRANCH   7  12
HETATM   12  C   UNL     1     -11.480  15.736  68.235  1.00  0.00    -0.337 C  
BRANCH  12  13
HETATM   13  N   UNL     1     -10.015  16.345  68.165  1.00  0.00    -0.237 N  
HETATM   14  O   UNL     1      -8.499  18.647  67.066  1.00  0.00    -0.259 OA 
HETATM   15  C   UNL     1      -9.548  16.469  66.678  1.00  0.00    -0.258 C  
HETATM   16  C   UNL     1      -8.274  17.329  66.564  1.00  0.00    -0.276 C  
HETATM   17  C   UNL     1     -10.108  17.808  68.701  1.00  0.00    -0.384 C  
HETATM   18  C   UNL     1      -8.840  18.627  68.453  1.00  0.00    -0.339 C  
BRANCH  13  19
HETATM   19  C   UNL     1      -9.007  15.479  68.995  1.00  0.00    -0.237 C  
BRANCH  19  20
HETATM   20  C   UNL     1      -8.164  14.569  68.079  1.00  0.00    -0.145 C  
BRANCH  20  21
HETATM   21  O   UNL     1      -8.225  13.184  68.404  1.00  0.00    -0.154 OA 
BRANCH  21  22
HETATM   22  C   UNL     1      -7.617  12.354  67.377  1.00  0.00    -0.160 C  
BRANCH  22  23
HETATM   23  C   UNL     1      -7.640  10.865  67.728  1.00  0.00    -0.095 C  
BRANCH  23  24
HETATM   24  C   UNL     1      -8.462  10.442  68.958  1.00  0.00    -0.155 C  
HETATM   25  C   UNL     1      -7.473  10.163  70.125  1.00  0.00    -0.146 C  
HETATM   26  C   UNL     1      -7.266   8.681  70.468  1.00  0.00    -0.053 C  
HETATM   27  C   UNL     1      -8.426   7.813  69.980  1.00  0.00    -0.135 C  
HETATM   28  C   UNL     1      -8.514   7.920  68.430  1.00  0.00    -0.128 C  
HETATM   29  C   UNL     1      -9.358   9.203  68.703  1.00  0.00    -0.135 C  
HETATM   30  C   UNL     1      -9.886   8.430  70.004  1.00  0.00    -0.182 C  
HETATM   31  C   UNL     1     -10.326   9.264  71.210  1.00  0.00    -0.397 C  
HETATM   32  C   UNL     1     -10.983   7.361  69.791  1.00  0.00    -0.215 C  
ENDBRANCH  23  24
ENDBRANCH  22  23
ENDBRANCH  21  22
ENDBRANCH  20  21
ENDBRANCH  19  20
ENDBRANCH  13  19
ENDBRANCH  12  13
ENDBRANCH   7  12
ENDBRANCH   2   3
TORSDOF 10
ENDMDL
MODEL       87
REMARK 921   NORMALIZED FREE ENERGY PREDICTED BY IDOCK:   -4.92 KCAL/MOL
REMARK 922        TOTAL FREE ENERGY PREDICTED BY IDOCK:   -9.07 KCAL/MOL
REMARK 923 INTER-LIGAND FREE ENERGY PREDICTED BY IDOCK:   -7.95 KCAL/MOL
REMARK 924 INTRA-LIGAND FREE ENERGY PREDICTED BY IDOCK:   -1.12 KCAL/MOL
REMARK 927      BINDING AFFINITY PREDICTED BY RF-SCORE:    0.00 PKD
ROOT
HETATM    1  C   UNL     1     -14.236   8.719  72.277  1.00  0.00    -0.420 C  
HETATM    2  O   UNL     1     -12.893   8.926  72.691  1.00  0.00    -0.393 OA 
ENDROOT
BRANCH   2   3
HETATM    3  C   UNL     1     -11.943   9.131  71.730  1.00  0.00    -0.379 A  
HETATM    4  C   UNL     1     -10.779   8.389  71.487  1.00  0.00    -0.247 A  
HETATM    5  C   UNL     1     -12.180  10.285  70.975  1.00  0.00    -0.487 A  
HETATM    6  C   UNL     1      -9.879   8.835  70.510  1.00  0.00    -0.224 A  
HETATM    7  C   UNL     1     -10.039  10.072  69.848  1.00  0.00    -0.289 A  
HETATM    8 BR   UNL     1     -11.763  12.267  69.019  1.00  0.00    -0.378 Br 
HETATM    9  C   UNL     1     -11.259  10.740  70.029  1.00  0.00    -0.291 A  
BRANCH   4  10
HETATM   10  O   UNL     1     -10.555   7.238  72.188  1.00  0.00    -0.204 OA 
HETATM   11  C   UNL     1      -9.911   7.398  73.452  1.00  0.00    -0.314 C  
ENDBRANCH   4  10
BRANCH   7  12
HETATM   12  C   UNL     1      -8.856  10.680  69.109  1.00  0.00    -0.122 C  
BRANCH  12  13
HETATM   13  N   UNL     1      -8.558  10.023  67.694  1.00  0.00    -0.118 N  
HETATM   14  O   UNL     1      -9.054   7.559  66.118  1.00  0.00    -0.172 OA 
HETATM   15  C   UNL     1      -7.769   8.685  67.872  1.00  0.00    -0.102 C  
HETATM   16  C   UNL     1      -7.733   7.880  66.557  1.00  0.00    -0.097 C  
HETATM   17  C   UNL     1      -9.936   9.623  67.082  1.00  0.00    -0.194 C  
HETATM   18  C   UNL     1      -9.815   8.735  65.842  1.00  0.00    -0.066 C  
BRANCH  13  19
HETATM   19  C   UNL     1      -7.772  11.015  66.770  1.00  0.00    -0.146 C  
BRANCH  19  20
HETATM   20  C   UNL     1      -6.427  11.425  67.404  1.00  0.00    -0.083 C  
BRANCH  20  21
HETATM   21  O   UNL     1      -5.978  12.728  67.045  1.00  0.00    -0.307 OA 
BRANCH  21  22
HETATM   22  C   UNL     1      -6.105  13.671  68.144  1.00  0.00    -0.118 C  
BRANCH  22  23
HETATM   23  C   UNL     1      -6.667  15.024  67.701  1.00  0.00    -0.201 C  
BRANCH  23  24
HETATM   24  C   UNL     1      -8.128  15.337  68.075  1.00  0.00    -0.141 C  
HETATM   25  C   UNL     1      -9.038  14.283  67.384  1.00  0.00    -0.199 C  
HETATM   26  C   UNL     1      -9.837  14.796  66.178  1.00  0.00    -0.335 C  
HETATM   27  C   UNL     1      -9.998  16.317  66.204  1.00  0.00    -0.355 C  
HETATM   28  C   UNL     1      -8.587  16.971  66.134  1.00  0.00    -0.252 C  
HETATM   29  C   UNL     1      -8.569  16.771  67.682  1.00  0.00    -0.211 C  
HETATM   30  C   UNL     1     -10.149  17.032  67.611  1.00  0.00    -0.298 C  
HETATM   31  C   UNL     1     -11.035  16.392  68.683  1.00  0.00    -0.345 C  
HETATM   32  C   UNL     1     -10.614  18.500  67.480  1.00  0.00    -0.461 C  
ENDBRANCH  23  24
ENDBRANCH  22  23
ENDBRANCH  21  22
ENDBRANCH  20  21
ENDBRANCH  19  20
ENDBRANCH  13  19
ENDBRANCH  12  13
ENDBRANCH   7  12
ENDBRANCH   2   3
TORSDOF 10
ENDMDL
MODEL       88
REMARK 921   NORMALIZED FREE ENERGY PREDICTED BY IDOCK:   -4.91 KCAL/MOL
REMARK 922        TOTAL FREE ENERGY PREDICTED BY IDOCK:   -9.06 KCAL/MOL
REMARK 923 INTER-LIGAND FREE ENERGY PREDICTED BY IDOCK:   -8.14 KCAL/MOL
REMARK 924 INTRA-LIGAND FREE ENERGY PREDICTED BY IDOCK:   -0.92 KCAL/MOL
REMARK 927      BINDING AFFINITY PREDICTED BY RF-SCORE:    0.00 PKD
ROOT
HETATM    1  C   UNL     1     -11.181  16.530  64.752  1.00  0.00    -0.143 C  
HETATM    2  O   UNL     1     -11.331  15.218  64.229  1.00  0.00    -0.246 OA 
ENDROOT
BRANCH   2   3
HETATM    3  C   UNL     1     -10.615  14.205  64.805  1.00  0.00    -0.418 A  
HETATM    4  C   UNL     1     -10.593  12.849  64.453  1.00  0.00    -0.396 A  
HETATM    5  C   UNL     1      -9.890  14.626  65.926  1.00  0.00    -0.358 A  
HETATM    6  C   UNL     1      -9.864  11.952  65.245  1.00  0.00    -0.255 A  
HETATM    7  C   UNL     1      -9.252  12.344  66.457  1.00  0.00    -0.215 A  
HETATM    8 BR   UNL     1      -8.187  14.451  68.161  1.00  0.00    -0.161 Br 
HETATM    9  C   UNL     1      -9.198  13.718  66.729  1.00  0.00    -0.244 A  
BRANCH   4  10
HETATM   10  O   UNL     1     -11.261  12.431  63.338  1.00  0.00    -0.456 OA 
HETATM   11  C   UNL     1     -12.628  12.069  63.533  1.00  0.00    -0.507 C  
ENDBRANCH   4  10
BRANCH   7  12
HETATM   12  C   UNL     1      -8.825  11.277  67.454  1.00  0.00    -0.145 C  
BRANCH  12  13
HETATM   13  N   UNL     1     -10.027  10.569  68.213  1.00  0.00    -0.155 N  
HETATM   14  O   UNL     1     -11.639  10.743  70.697  1.00  0.00    -0.322 OA 
HETATM   15  C   UNL     1      -9.557  10.051  69.611  1.00  0.00    -0.226 C  
HETATM   16  C   UNL     1     -10.758   9.639  70.485  1.00  0.00    -0.311 C  
HETATM   17  C   UNL     1     -11.090  11.673  68.507  1.00  0.00    -0.235 C  
HETATM   18  C   UNL     1     -12.189  11.217  69.468  1.00  0.00    -0.256 C  
BRANCH  13  19
HETATM   19  C   UNL     1     -10.620   9.399  67.355  1.00  0.00    -0.258 C  
BRANCH  19  20
HETATM   20  C   UNL     1      -9.551   8.328  67.053  1.00  0.00    -0.191 C  
BRANCH  20  21
HETATM   21  O   UNL     1      -9.571   7.209  67.932  1.00  0.00    -0.132 OA 
BRANCH  21  22
HETATM   22  C   UNL     1     -10.920   6.725  68.171  1.00  0.00    -0.201 C  
BRANCH  22  23
HETATM   23  C   UNL     1     -11.120   6.206  69.597  1.00  0.00    -0.489 C  
BRANCH  23  24
HETATM   24  C   UNL     1      -9.855   5.923  70.428  1.00  0.00    -0.231 C  
HETATM   25  C   UNL     1      -9.609   4.388  70.421  1.00  0.00    -0.266 C  
HETATM   26  C   UNL     1      -9.940   3.665  71.734  1.00  0.00    -0.210 C  
HETATM   27  C   UNL     1      -9.941   4.620  72.928  1.00  0.00    -0.194 C  
HETATM   28  C   UNL     1     -11.041   5.698  72.706  1.00  0.00    -0.334 C  
HETATM   29  C   UNL     1      -9.947   6.448  71.884  1.00  0.00    -0.193 C  
HETATM   30  C   UNL     1      -8.906   5.821  72.930  1.00  0.00    -0.124 C  
HETATM   31  C   UNL     1      -7.471   5.572  72.459  1.00  0.00    -0.097 C  
HETATM   32  C   UNL     1      -8.799   6.506  74.312  1.00  0.00    -0.170 C  
ENDBRANCH  23  24
ENDBRANCH  22  23
ENDBRANCH  21  22
ENDBRANCH  20  21
ENDBRANCH  19  20
ENDBRANCH  13  19
ENDBRANCH  12  13
ENDBRANCH   7  12
ENDBRANCH   2   3
TORSDOF 10
ENDMDL
MODEL       89
REMARK 921   NORMALIZED FREE ENERGY PREDICTED BY IDOCK:   -4.91 KCAL/MOL
REMARK 922        TOTAL FREE ENERGY PREDICTED BY IDOCK:   -9.05 KCAL/MOL
REMARK 923 INTER-LIGAND FREE ENERGY PREDICTED BY IDOCK:   -8.32 KCAL/MOL
REMARK 924 INTRA-LIGAND FREE ENERGY PREDICTED BY IDOCK:   -0.73 KCAL/MOL
REMARK 927      BINDING AFFINITY PREDICTED BY RF-SCORE:    0.00 PKD
ROOT
HETATM    1  C   UNL     1     -12.590  15.495  73.923  1.00  0.00    -0.629 C  
HETATM    2  O   UNL     1     -13.442  15.088  72.862  1.00  0.00    -0.457 OA 
ENDROOT
BRANCH   2   3
HETATM    3  C   UNL     1     -12.869  14.563  71.737  1.00  0.00    -0.343 A  
HETATM    4  C   UNL     1     -12.826  13.223  71.329  1.00  0.00    -0.312 A  
HETATM    5  C   UNL     1     -12.195  15.525  70.976  1.00  0.00    -0.449 A  
HETATM    6  C   UNL     1     -12.093  12.883  70.184  1.00  0.00    -0.373 A  
HETATM    7  C   UNL     1     -11.293  13.822  69.496  1.00  0.00    -0.283 A  
HETATM    8 BR   UNL     1     -10.655  16.594  68.875  1.00  0.00    -0.351 Br 
HETATM    9  C   UNL     1     -11.437  15.170  69.858  1.00  0.00    -0.288 A  
BRANCH   4  10
HETATM   10  O   UNL     1     -13.515  12.281  72.038  1.00  0.00    -0.467 OA 
HETATM   11  C   UNL     1     -13.059  10.936  71.886  1.00  0.00    -0.432 C  
ENDBRANCH   4  10
BRANCH   7  12
HETATM   12  C   UNL     1     -10.231  13.327  68.527  1.00  0.00    -0.220 C  
BRANCH  12  13
HETATM   13  N   UNL     1     -10.768  13.020  67.064  1.00  0.00    -0.257 N  
HETATM   14  O   UNL     1     -11.943  14.351  64.688  1.00  0.00    -0.417 OA 
HETATM   15  C   UNL     1     -12.268  13.443  66.937  1.00  0.00    -0.289 C  
HETATM   16  C   UNL     1     -12.724  13.442  65.464  1.00  0.00    -0.410 C  
HETATM   17  C   UNL     1      -9.983  13.951  66.090  1.00  0.00    -0.310 C  
HETATM   18  C   UNL     1     -10.565  13.978  64.675  1.00  0.00    -0.395 C  
BRANCH  13  19
HETATM   19  C   UNL     1     -10.583  11.506  66.705  1.00  0.00    -0.253 C  
BRANCH  19  20
HETATM   20  C   UNL     1     -10.145  10.687  67.936  1.00  0.00    -0.168 C  
BRANCH  20  21
HETATM   21  O   UNL     1     -11.162   9.855  68.485  1.00  0.00    -0.181 OA 
BRANCH  21  22
HETATM   22  C   UNL     1     -10.714   9.162  69.682  1.00  0.00    -0.225 C  
BRANCH  22  23
HETATM   23  C   UNL     1      -9.682   8.072  69.386  1.00  0.00    -0.170 C  
BRANCH  23  24
HETATM   24  C   UNL     1      -8.241   8.526  69.089  1.00  0.00    -0.119 C  
HETATM   25  C   UNL     1      -7.440   7.290  68.591  1.00  0.00    -0.102 C  
HETATM   26  C   UNL     1      -6.440   6.707  69.599  1.00  0.00    -0.044 C  
HETATM   27  C   UNL     1      -6.043   7.728  70.665  1.00  0.00    -0.034 C  
HETATM   28  C   UNL     1      -7.314   8.140  71.463  1.00  0.00    -0.082 C  
HETATM   29  C   UNL     1      -7.536   9.169  70.312  1.00  0.00    -0.108 C  
HETATM   30  C   UNL     1      -5.936   9.252  70.243  1.00  0.00    -0.037 C  
HETATM   31  C   UNL     1      -5.289   9.614  68.904  1.00  0.00    -0.036 C  
HETATM   32  C   UNL     1      -5.231  10.114  71.315  1.00  0.00    -0.080 C  
ENDBRANCH  23  24
ENDBRANCH  22  23
ENDBRANCH  21  22
ENDBRANCH  20  21
ENDBRANCH  19  20
ENDBRANCH  13  19
ENDBRANCH  12  13
ENDBRANCH   7  12
ENDBRANCH   2   3
TORSDOF 10
ENDMDL
MODEL       90
REMARK 921   NORMALIZED FREE ENERGY PREDICTED BY IDOCK:   -4.90 KCAL/MOL
REMARK 922        TOTAL FREE ENERGY PREDICTED BY IDOCK:   -9.04 KCAL/MOL
REMARK 923 INTER-LIGAND FREE ENERGY PREDICTED BY IDOCK:   -8.50 KCAL/MOL
REMARK 924 INTRA-LIGAND FREE ENERGY PREDICTED BY IDOCK:   -0.54 KCAL/MOL
REMARK 927      BINDING AFFINITY PREDICTED BY RF-SCORE:    0.00 PKD
ROOT
HETATM    1  C   UNL     1      -8.784   6.536  66.469  1.00  0.00    -0.134 C  
HETATM    2  O   UNL     1      -8.436   7.894  66.701  1.00  0.00    -0.123 OA 
ENDROOT
BRANCH   2   3
HETATM    3  C   UNL     1      -9.428   8.765  67.052  1.00  0.00    -0.169 A  
HETATM    4  C   UNL     1     -10.080   9.709  66.246  1.00  0.00    -0.252 A  
HETATM    5  C   UNL     1      -9.737   8.711  68.416  1.00  0.00    -0.176 A  
HETATM    6  C   UNL     1     -11.005  10.584  66.833  1.00  0.00    -0.199 A  
HETATM    7  C   UNL     1     -11.213  10.632  68.229  1.00  0.00    -0.362 A  
HETATM    8 BR   UNL     1     -11.020   9.355  70.839  1.00  0.00    -0.421 Br 
HETATM    9  C   UNL     1     -10.633   9.612  68.997  1.00  0.00    -0.218 A  
BRANCH   4  10
HETATM   10  O   UNL     1      -9.820   9.745  64.906  1.00  0.00    -0.284 OA 
HETATM   11  C   UNL     1     -10.219  10.937  64.229  1.00  0.00    -0.364 C  
ENDBRANCH   4  10
BRANCH   7  12
HETATM   12  C   UNL     1     -11.912  11.839  68.836  1.00  0.00    -0.271 C  
BRANCH  12  13
HETATM   13  N   UNL     1     -11.147  13.215  68.626  1.00  0.00    -0.257 N  
HETATM   14  O   UNL     1     -11.634  16.122  68.290  1.00  0.00    -0.321 OA 
HETATM   15  C   UNL     1     -11.600  13.889  67.289  1.00  0.00    -0.365 C  
HETATM   16  C   UNL     1     -11.112  15.349  67.208  1.00  0.00    -0.302 C  
HETATM   17  C   UNL     1     -11.620  14.173  69.762  1.00  0.00    -0.290 C  
HETATM   18  C   UNL     1     -11.187  15.625  69.552  1.00  0.00    -0.313 C  
BRANCH  13  19
HETATM   19  C   UNL     1      -9.595  13.003  68.645  1.00  0.00    -0.023 C  
BRANCH  19  20
HETATM   20  C   UNL     1      -8.960  13.381  67.291  1.00  0.00    -0.221 C  
BRANCH  20  21
HETATM   21  O   UNL     1      -7.601  13.799  67.371  1.00  0.00    -0.173 OA 
BRANCH  21  22
HETATM   22  C   UNL     1      -7.381  14.735  68.461  1.00  0.00    -0.118 C  
BRANCH  22  23
HETATM   23  C   UNL     1      -6.906  16.107  67.977  1.00  0.00    -0.138 C  
BRANCH  23  24
HETATM   24  C   UNL     1      -7.948  17.017  67.301  1.00  0.00    -0.197 C  
HETATM   25  C   UNL     1      -7.248  17.760  66.129  1.00  0.00    -0.346 C  
HETATM   26  C   UNL     1      -6.954  19.246  66.377  1.00  0.00    -0.229 C  
HETATM   27  C   UNL     1      -7.847  19.830  67.473  1.00  0.00    -0.317 C  
HETATM   28  C   UNL     1      -7.565  19.075  68.804  1.00  0.00    -0.375 C  
HETATM   29  C   UNL     1      -8.598  18.034  68.274  1.00  0.00    -0.293 C  
HETATM   30  C   UNL     1      -9.332  19.290  67.598  1.00  0.00    -0.371 C  
HETATM   31  C   UNL     1     -10.151  19.049  66.327  1.00  0.00    -0.479 C  
HETATM   32  C   UNL     1     -10.206  20.172  68.519  1.00  0.00    -0.403 C  
ENDBRANCH  23  24
ENDBRANCH  22  23
ENDBRANCH  21  22
ENDBRANCH  20  21
ENDBRANCH  19  20
ENDBRANCH  13  19
ENDBRANCH  12  13
ENDBRANCH   7  12
ENDBRANCH   2   3
TORSDOF 10
ENDMDL
MODEL       91
REMARK 921   NORMALIZED FREE ENERGY PREDICTED BY IDOCK:   -4.90 KCAL/MOL
REMARK 922        TOTAL FREE ENERGY PREDICTED BY IDOCK:   -9.04 KCAL/MOL
REMARK 923 INTER-LIGAND FREE ENERGY PREDICTED BY IDOCK:   -7.94 KCAL/MOL
REMARK 924 INTRA-LIGAND FREE ENERGY PREDICTED BY IDOCK:   -1.11 KCAL/MOL
REMARK 927      BINDING AFFINITY PREDICTED BY RF-SCORE:    0.00 PKD
ROOT
HETATM    1  C   UNL     1     -14.112   8.540  71.932  1.00  0.00    -0.447 C  
HETATM    2  O   UNL     1     -13.066   9.456  72.222  1.00  0.00    -0.415 OA 
ENDROOT
BRANCH   2   3
HETATM    3  C   UNL     1     -12.506  10.149  71.186  1.00  0.00    -0.387 A  
HETATM    4  C   UNL     1     -11.626   9.679  70.201  1.00  0.00    -0.141 A  
HETATM    5  C   UNL     1     -12.832  11.510  71.208  1.00  0.00    -0.463 A  
HETATM    6  C   UNL     1     -11.083  10.587  69.282  1.00  0.00    -0.298 A  
HETATM    7  C   UNL     1     -11.293  11.980  69.389  1.00  0.00    -0.317 A  
HETATM    8 BR   UNL     1     -12.867  14.209  70.405  1.00  0.00    -0.150 Br 
HETATM    9  C   UNL     1     -12.257  12.412  70.311  1.00  0.00    -0.267 A  
BRANCH   4  10
HETATM   10  O   UNL     1     -11.332   8.346  70.142  1.00  0.00    -0.195 OA 
HETATM   11  C   UNL     1     -10.168   7.936  70.860  1.00  0.00    -0.198 C  
ENDBRANCH   4  10
BRANCH   7  12
HETATM   12  C   UNL     1     -10.381  12.930  68.627  1.00  0.00    -0.188 C  
BRANCH  12  13
HETATM   13  N   UNL     1     -10.633  12.967  67.059  1.00  0.00    -0.256 N  
HETATM   14  O   UNL     1     -12.102  14.478  64.972  1.00  0.00    -0.391 OA 
HETATM   15  C   UNL     1     -12.156  12.797  66.750  1.00  0.00    -0.220 C  
HETATM   16  C   UNL     1     -12.466  13.132  65.277  1.00  0.00    -0.495 C  
HETATM   17  C   UNL     1     -10.262  14.403  66.576  1.00  0.00    -0.274 C  
HETATM   18  C   UNL     1     -10.700  14.692  65.139  1.00  0.00    -0.414 C  
BRANCH  13  19
HETATM   19  C   UNL     1      -9.790  11.867  66.329  1.00  0.00    -0.225 C  
BRANCH  19  20
HETATM   20  C   UNL     1      -8.436  11.638  67.034  1.00  0.00    -0.168 C  
BRANCH  20  21
HETATM   21  O   UNL     1      -7.551  12.752  66.989  1.00  0.00    -0.090 OA 
BRANCH  21  22
HETATM   22  C   UNL     1      -6.672  12.797  68.145  1.00  0.00    -0.092 C  
BRANCH  22  23
HETATM   23  C   UNL     1      -5.511  13.780  67.970  1.00  0.00    -0.115 C  
BRANCH  23  24
HETATM   24  C   UNL     1      -5.583  15.104  68.753  1.00  0.00    -0.090 C  
HETATM   25  C   UNL     1      -6.754  14.997  69.770  1.00  0.00    -0.180 C  
HETATM   26  C   UNL     1      -8.010  15.804  69.411  1.00  0.00    -0.211 C  
HETATM   27  C   UNL     1      -7.699  16.942  68.438  1.00  0.00    -0.219 C  
HETATM   28  C   UNL     1      -7.149  16.334  67.116  1.00  0.00    -0.244 C  
HETATM   29  C   UNL     1      -5.770  16.346  67.844  1.00  0.00    -0.140 C  
HETATM   30  C   UNL     1      -6.300  17.677  68.564  1.00  0.00    -0.185 C  
HETATM   31  C   UNL     1      -5.754  18.012  69.955  1.00  0.00    -0.245 C  
HETATM   32  C   UNL     1      -6.246  18.988  67.747  1.00  0.00    -0.217 C  
ENDBRANCH  23  24
ENDBRANCH  22  23
ENDBRANCH  21  22
ENDBRANCH  20  21
ENDBRANCH  19  20
ENDBRANCH  13  19
ENDBRANCH  12  13
ENDBRANCH   7  12
ENDBRANCH   2   3
TORSDOF 10
ENDMDL
MODEL       92
REMARK 921   NORMALIZED FREE ENERGY PREDICTED BY IDOCK:   -4.87 KCAL/MOL
REMARK 922        TOTAL FREE ENERGY PREDICTED BY IDOCK:   -8.98 KCAL/MOL
REMARK 923 INTER-LIGAND FREE ENERGY PREDICTED BY IDOCK:   -7.31 KCAL/MOL
REMARK 924 INTRA-LIGAND FREE ENERGY PREDICTED BY IDOCK:   -1.68 KCAL/MOL
REMARK 927      BINDING AFFINITY PREDICTED BY RF-SCORE:    0.00 PKD
ROOT
HETATM    1  C   UNL     1     -11.381  11.524  63.508  1.00  0.00    -0.279 C  
HETATM    2  O   UNL     1     -12.434  11.906  64.382  1.00  0.00    -0.261 OA 
ENDROOT
BRANCH   2   3
HETATM    3  C   UNL     1     -12.125  12.666  65.475  1.00  0.00    -0.458 A  
HETATM    4  C   UNL     1     -12.098  14.063  65.583  1.00  0.00    -0.417 A  
HETATM    5  C   UNL     1     -11.721  11.895  66.572  1.00  0.00    -0.247 A  
HETATM    6  C   UNL     1     -11.650  14.646  66.775  1.00  0.00    -0.370 A  
HETATM    7  C   UNL     1     -11.105  13.879  67.830  1.00  0.00    -0.281 A  
HETATM    8 BR   UNL     1     -10.819  11.313  69.175  1.00  0.00    -0.265 Br 
HETATM    9  C   UNL     1     -11.241  12.486  67.742  1.00  0.00    -0.269 A  
BRANCH   4  10
HETATM   10  O   UNL     1     -12.529  14.827  64.536  1.00  0.00    -0.542 OA 
HETATM   11  C   UNL     1     -11.715  15.956  64.217  1.00  0.00    -0.132 C  
ENDBRANCH   4  10
BRANCH   7  12
HETATM   12  C   UNL     1     -10.286  14.573  68.908  1.00  0.00    -0.229 C  
BRANCH  12  13
HETATM   13  N   UNL     1      -8.959  15.267  68.380  1.00  0.00    -0.178 N  
HETATM   14  O   UNL     1      -7.183  17.588  68.892  1.00  0.00    -0.247 OA 
HETATM   15  C   UNL     1      -9.259  16.731  67.919  1.00  0.00    -0.225 C  
HETATM   16  C   UNL     1      -7.955  17.522  67.692  1.00  0.00    -0.202 C  
HETATM   17  C   UNL     1      -8.000  15.399  69.604  1.00  0.00    -0.138 C  
HETATM   18  C   UNL     1      -6.786  16.288  69.331  1.00  0.00    -0.209 C  
BRANCH  13  19
HETATM   19  C   UNL     1      -8.315  14.437  67.218  1.00  0.00    -0.209 C  
BRANCH  19  20
HETATM   20  C   UNL     1      -7.607  13.176  67.755  1.00  0.00    -0.155 C  
BRANCH  20  21
HETATM   21  O   UNL     1      -6.509  12.733  66.963  1.00  0.00    -0.180 OA 
BRANCH  21  22
HETATM   22  C   UNL     1      -6.538  11.296  66.746  1.00  0.00    -0.140 C  
BRANCH  22  23
HETATM   23  C   UNL     1      -7.957  10.722  66.766  1.00  0.00    -0.138 C  
BRANCH  23  24
HETATM   24  C   UNL     1      -8.134   9.263  66.305  1.00  0.00    -0.107 C  
HETATM   25  C   UNL     1      -9.631   9.052  65.943  1.00  0.00    -0.317 C  
HETATM   26  C   UNL     1     -10.440   8.229  66.955  1.00  0.00    -0.365 C  
HETATM   27  C   UNL     1      -9.542   7.350  67.826  1.00  0.00    -0.162 C  
HETATM   28  C   UNL     1      -8.583   8.267  68.640  1.00  0.00    -0.133 C  
HETATM   29  C   UNL     1      -7.684   8.225  67.365  1.00  0.00    -0.102 C  
HETATM   30  C   UNL     1      -8.236   6.732  67.174  1.00  0.00    -0.121 C  
HETATM   31  C   UNL     1      -8.306   6.165  65.754  1.00  0.00    -0.143 C  
HETATM   32  C   UNL     1      -7.602   5.630  68.053  1.00  0.00    -0.085 C  
ENDBRANCH  23  24
ENDBRANCH  22  23
ENDBRANCH  21  22
ENDBRANCH  20  21
ENDBRANCH  19  20
ENDBRANCH  13  19
ENDBRANCH  12  13
ENDBRANCH   7  12
ENDBRANCH   2   3
TORSDOF 10
ENDMDL
MODEL       93
REMARK 921   NORMALIZED FREE ENERGY PREDICTED BY IDOCK:   -4.86 KCAL/MOL
REMARK 922        TOTAL FREE ENERGY PREDICTED BY IDOCK:   -8.98 KCAL/MOL
REMARK 923 INTER-LIGAND FREE ENERGY PREDICTED BY IDOCK:   -7.91 KCAL/MOL
REMARK 924 INTRA-LIGAND FREE ENERGY PREDICTED BY IDOCK:   -1.07 KCAL/MOL
REMARK 927      BINDING AFFINITY PREDICTED BY RF-SCORE:    0.00 PKD
ROOT
HETATM    1  C   UNL     1     -13.098  15.549  72.090  1.00  0.00    -0.434 C  
HETATM    2  O   UNL     1     -12.377  14.330  71.981  1.00  0.00    -0.298 OA 
ENDROOT
BRANCH   2   3
HETATM    3  C   UNL     1     -12.177  13.807  70.734  1.00  0.00    -0.363 A  
HETATM    4  C   UNL     1     -12.266  12.468  70.330  1.00  0.00    -0.267 A  
HETATM    5  C   UNL     1     -11.760  14.768  69.805  1.00  0.00    -0.354 A  
HETATM    6  C   UNL     1     -11.917  12.128  69.016  1.00  0.00    -0.302 A  
HETATM    7  C   UNL     1     -11.359  13.066  68.119  1.00  0.00    -0.329 A  
HETATM    8 BR   UNL     1     -10.927  15.838  67.338  1.00  0.00    -0.232 Br 
HETATM    9  C   UNL     1     -11.380  14.413  68.510  1.00  0.00    -0.282 A  
BRANCH   4  10
HETATM   10  O   UNL     1     -12.711  11.526  71.213  1.00  0.00    -0.398 OA 
HETATM   11  C   UNL     1     -12.042  10.265  71.163  1.00  0.00    -0.395 C  
ENDBRANCH   4  10
BRANCH   7  12
HETATM   12  C   UNL     1     -10.645  12.570  66.871  1.00  0.00    -0.236 C  
BRANCH  12  13
HETATM   13  N   UNL     1      -9.147  12.101  67.114  1.00  0.00    -0.183 N  
HETATM   14  O   UNL     1      -6.896  12.394  69.024  1.00  0.00    -0.100 OA 
HETATM   15  C   UNL     1      -8.194  13.340  67.177  1.00  0.00    -0.114 C  
HETATM   16  C   UNL     1      -6.802  12.945  67.710  1.00  0.00    -0.138 C  
HETATM   17  C   UNL     1      -9.099  11.459  68.535  1.00  0.00    -0.169 C  
HETATM   18  C   UNL     1      -7.677  11.198  69.036  1.00  0.00    -0.114 C  
BRANCH  13  19
HETATM   19  C   UNL     1      -8.685  11.099  66.002  1.00  0.00    -0.183 C  
BRANCH  19  20
HETATM   20  C   UNL     1      -9.880  10.312  65.425  1.00  0.00    -0.296 C  
BRANCH  20  21
HETATM   21  O   UNL     1      -9.836   8.910  65.666  1.00  0.00    -0.173 OA 
BRANCH  21  22
HETATM   22  C   UNL     1     -10.319   8.568  66.994  1.00  0.00    -0.309 C  
BRANCH  22  23
HETATM   23  C   UNL     1      -9.353   7.662  67.762  1.00  0.00    -0.153 C  
BRANCH  23  24
HETATM   24  C   UNL     1      -9.384   7.740  69.299  1.00  0.00    -0.148 C  
HETATM   25  C   UNL     1      -8.073   7.102  69.839  1.00  0.00    -0.125 C  
HETATM   26  C   UNL     1      -8.234   5.715  70.477  1.00  0.00    -0.116 C  
HETATM   27  C   UNL     1      -9.672   5.458  70.931  1.00  0.00    -0.237 C  
HETATM   28  C   UNL     1     -10.605   5.504  69.686  1.00  0.00    -0.375 C  
HETATM   29  C   UNL     1     -10.620   7.045  69.925  1.00  0.00    -0.249 C  
HETATM   30  C   UNL     1     -10.515   6.681  71.483  1.00  0.00    -0.242 C  
HETATM   31  C   UNL     1      -9.844   7.692  72.416  1.00  0.00    -0.235 C  
HETATM   32  C   UNL     1     -11.815   6.232  72.190  1.00  0.00    -0.365 C  
ENDBRANCH  23  24
ENDBRANCH  22  23
ENDBRANCH  21  22
ENDBRANCH  20  21
ENDBRANCH  19  20
ENDBRANCH  13  19
ENDBRANCH  12  13
ENDBRANCH   7  12
ENDBRANCH   2   3
TORSDOF 10
ENDMDL
MODEL       94
REMARK 921   NORMALIZED FREE ENERGY PREDICTED BY IDOCK:   -4.86 KCAL/MOL
REMARK 922        TOTAL FREE ENERGY PREDICTED BY IDOCK:   -8.97 KCAL/MOL
REMARK 923 INTER-LIGAND FREE ENERGY PREDICTED BY IDOCK:   -8.49 KCAL/MOL
REMARK 924 INTRA-LIGAND FREE ENERGY PREDICTED BY IDOCK:   -0.48 KCAL/MOL
REMARK 927      BINDING AFFINITY PREDICTED BY RF-SCORE:    0.00 PKD
ROOT
HETATM    1  C   UNL     1     -12.251  15.582  73.342  1.00  0.00    -0.522 C  
HETATM    2  O   UNL     1     -12.610  16.121  72.078  1.00  0.00    -0.446 OA 
ENDROOT
BRANCH   2   3
HETATM    3  C   UNL     1     -12.200  15.463  70.953  1.00  0.00    -0.373 A  
HETATM    4  C   UNL     1     -12.607  14.207  70.485  1.00  0.00    -0.342 A  
HETATM    5  C   UNL     1     -11.193  16.149  70.264  1.00  0.00    -0.389 A  
HETATM    6  C   UNL     1     -11.980  13.665  69.354  1.00  0.00    -0.394 A  
HETATM    7  C   UNL     1     -10.867  14.284  68.742  1.00  0.00    -0.265 A  
HETATM    8 BR   UNL     1      -9.269  16.673  68.275  1.00  0.00    -0.224 Br 
HETATM    9  C   UNL     1     -10.550  15.584  69.161  1.00  0.00    -0.234 A  
BRANCH   4  10
HETATM   10  O   UNL     1     -13.617  13.545  71.122  1.00  0.00    -0.102 OA 
HETATM   11  C   UNL     1     -13.223  12.419  71.906  1.00  0.00    -0.382 C  
ENDBRANCH   4  10
BRANCH   7  12
HETATM   12  C   UNL     1      -9.997  13.476  67.791  1.00  0.00    -0.232 C  
BRANCH  12  13
HETATM   13  N   UNL     1     -10.582  13.337  66.322  1.00  0.00    -0.286 N  
HETATM   14  O   UNL     1     -13.030  13.863  64.730  1.00  0.00    -0.686 OA 
HETATM   15  C   UNL     1     -11.854  12.428  66.328  1.00  0.00    -0.364 C  
HETATM   16  C   UNL     1     -12.612  12.522  64.988  1.00  0.00    -0.345 C  
HETATM   17  C   UNL     1     -11.077  14.754  65.897  1.00  0.00    -0.340 C  
HETATM   18  C   UNL     1     -11.913  14.746  64.616  1.00  0.00    -0.440 C  
BRANCH  13  19
HETATM   19  C   UNL     1      -9.500  12.775  65.338  1.00  0.00     0.177 C  
BRANCH  19  20
HETATM   20  C   UNL     1      -9.689  11.262  65.101  1.00  0.00    -0.244 C  
BRANCH  20  21
HETATM   21  O   UNL     1      -8.572  10.462  65.474  1.00  0.00    -0.156 OA 
BRANCH  21  22
HETATM   22  C   UNL     1      -8.485  10.282  66.914  1.00  0.00    -0.126 C  
BRANCH  22  23
HETATM   23  C   UNL     1      -8.635   8.819  67.339  1.00  0.00    -0.126 C  
BRANCH  23  24
HETATM   24  C   UNL     1      -8.783   8.534  68.845  1.00  0.00    -0.131 C  
HETATM   25  C   UNL     1      -8.074   7.184  69.150  1.00  0.00    -0.121 C  
HETATM   26  C   UNL     1      -9.011   5.998  69.416  1.00  0.00    -0.126 C  
HETATM   27  C   UNL     1     -10.405   6.455  69.845  1.00  0.00    -0.242 C  
HETATM   28  C   UNL     1     -11.035   7.290  68.692  1.00  0.00    -0.033 C  
HETATM   29  C   UNL     1     -10.258   8.488  69.320  1.00  0.00    -0.211 C  
HETATM   30  C   UNL     1     -10.527   7.767  70.726  1.00  0.00    -0.213 C  
HETATM   31  C   UNL     1      -9.526   8.002  71.861  1.00  0.00    -0.240 C  
HETATM   32  C   UNL     1     -11.933   7.935  71.345  1.00  0.00    -0.331 C  
ENDBRANCH  23  24
ENDBRANCH  22  23
ENDBRANCH  21  22
ENDBRANCH  20  21
ENDBRANCH  19  20
ENDBRANCH  13  19
ENDBRANCH  12  13
ENDBRANCH   7  12
ENDBRANCH   2   3
TORSDOF 10
ENDMDL
MODEL       95
REMARK 921   NORMALIZED FREE ENERGY PREDICTED BY IDOCK:   -4.85 KCAL/MOL
REMARK 922        TOTAL FREE ENERGY PREDICTED BY IDOCK:   -8.96 KCAL/MOL
REMARK 923 INTER-LIGAND FREE ENERGY PREDICTED BY IDOCK:   -7.70 KCAL/MOL
REMARK 924 INTRA-LIGAND FREE ENERGY PREDICTED BY IDOCK:   -1.25 KCAL/MOL
REMARK 927      BINDING AFFINITY PREDICTED BY RF-SCORE:    0.00 PKD
ROOT
HETATM    1  C   UNL     1      -8.602   8.998  63.840  1.00  0.00    -0.132 C  
HETATM    2  O   UNL     1      -7.601   9.270  64.810  1.00  0.00    -0.104 OA 
ENDROOT
BRANCH   2   3
HETATM    3  C   UNL     1      -7.850   8.933  66.111  1.00  0.00    -0.102 A  
HETATM    4  C   UNL     1      -7.094   9.247  67.249  1.00  0.00    -0.082 A  
HETATM    5  C   UNL     1      -8.973   8.110  66.249  1.00  0.00    -0.215 A  
HETATM    6  C   UNL     1      -7.474   8.711  68.487  1.00  0.00    -0.093 A  
HETATM    7  C   UNL     1      -8.516   7.766  68.610  1.00  0.00    -0.129 A  
HETATM    8 BR   UNL     1     -10.922   6.532  67.529  1.00  0.00    -0.415 Br 
HETATM    9  C   UNL     1      -9.320   7.552  67.481  1.00  0.00    -0.138 A  
BRANCH   4  10
HETATM   10  O   UNL     1      -6.021  10.083  67.136  1.00  0.00    -0.050 OA 
HETATM   11  C   UNL     1      -6.161  11.360  67.760  1.00  0.00    -0.049 C  
ENDBRANCH   4  10
BRANCH   7  12
HETATM   12  C   UNL     1      -8.622   6.935  69.880  1.00  0.00    -0.141 C  
BRANCH  12  13
HETATM   13  N   UNL     1      -9.339   7.673  71.090  1.00  0.00    -0.154 N  
HETATM   14  O   UNL     1     -10.291   7.215  73.862  1.00  0.00    -0.358 OA 
HETATM   15  C   UNL     1     -10.671   6.941  71.459  1.00  0.00    -0.223 C  
HETATM   16  C   UNL     1     -11.227   7.443  72.807  1.00  0.00    -0.332 C  
HETATM   17  C   UNL     1      -8.410   7.511  72.333  1.00  0.00    -0.108 C  
HETATM   18  C   UNL     1      -9.074   7.930  73.646  1.00  0.00    -0.273 C  
BRANCH  13  19
HETATM   19  C   UNL     1      -9.607   9.179  70.749  1.00  0.00    -0.275 C  
BRANCH  19  20
HETATM   20  C   UNL     1     -11.106   9.438  70.494  1.00  0.00    -0.273 C  
BRANCH  20  21
HETATM   21  O   UNL     1     -11.634  10.572  71.173  1.00  0.00    -0.307 OA 
BRANCH  21  22
HETATM   22  C   UNL     1     -12.472  11.386  70.308  1.00  0.00    -0.232 C  
BRANCH  22  23
HETATM   23  C   UNL     1     -11.662  12.328  69.413  1.00  0.00    -0.392 C  
BRANCH  23  24
HETATM   24  C   UNL     1     -11.874  12.211  67.893  1.00  0.00    -0.338 C  
HETATM   25  C   UNL     1     -10.807  11.228  67.333  1.00  0.00    -0.311 C  
HETATM   26  C   UNL     1      -9.663  11.881  66.546  1.00  0.00    -0.226 C  
HETATM   27  C   UNL     1     -10.047  13.264  66.020  1.00  0.00    -0.301 C  
HETATM   28  C   UNL     1     -10.363  14.191  67.230  1.00  0.00    -0.267 C  
HETATM   29  C   UNL     1     -11.793  13.572  67.155  1.00  0.00    -0.430 C  
HETATM   30  C   UNL     1     -11.548  13.506  65.572  1.00  0.00    -0.337 C  
HETATM   31  C   UNL     1     -12.275  12.420  64.774  1.00  0.00    -0.493 C  
HETATM   32  C   UNL     1     -11.724  14.820  64.778  1.00  0.00    -0.422 C  
ENDBRANCH  23  24
ENDBRANCH  22  23
ENDBRANCH  21  22
ENDBRANCH  20  21
ENDBRANCH  19  20
ENDBRANCH  13  19
ENDBRANCH  12  13
ENDBRANCH   7  12
ENDBRANCH   2   3
TORSDOF 10
ENDMDL
MODEL       96
REMARK 921   NORMALIZED FREE ENERGY PREDICTED BY IDOCK:   -4.84 KCAL/MOL
REMARK 922        TOTAL FREE ENERGY PREDICTED BY IDOCK:   -8.95 KCAL/MOL
REMARK 923 INTER-LIGAND FREE ENERGY PREDICTED BY IDOCK:   -8.16 KCAL/MOL
REMARK 924 INTRA-LIGAND FREE ENERGY PREDICTED BY IDOCK:   -0.79 KCAL/MOL
REMARK 927      BINDING AFFINITY PREDICTED BY RF-SCORE:    0.00 PKD
ROOT
HETATM    1  C   UNL     1      -9.647   8.723  65.849  1.00  0.00    -0.184 C  
HETATM    2  O   UNL     1      -9.684   9.843  64.976  1.00  0.00    -0.296 OA 
ENDROOT
BRANCH   2   3
HETATM    3  C   UNL     1      -9.558  11.091  65.519  1.00  0.00    -0.222 A  
HETATM    4  C   UNL     1     -10.136  12.290  65.082  1.00  0.00    -0.261 A  
HETATM    5  C   UNL     1      -8.669  11.122  66.599  1.00  0.00    -0.166 A  
HETATM    6  C   UNL     1      -9.791  13.487  65.725  1.00  0.00    -0.218 A  
HETATM    7  C   UNL     1      -8.787  13.545  66.718  1.00  0.00    -0.146 A  
HETATM    8 BR   UNL     1      -7.161  12.196  68.721  1.00  0.00    -0.097 Br 
HETATM    9  C   UNL     1      -8.304  12.324  67.209  1.00  0.00    -0.182 A  
BRANCH   4  10
HETATM   10  O   UNL     1     -11.037  12.270  64.056  1.00  0.00    -0.323 OA 
HETATM   11  C   UNL     1     -11.925  13.386  63.989  1.00  0.00    -0.464 C  
ENDBRANCH   4  10
BRANCH   7  12
HETATM   12  C   UNL     1      -8.186  14.892  67.089  1.00  0.00    -0.215 C  
BRANCH  12  13
HETATM   13  N   UNL     1      -9.157  15.841  67.913  1.00  0.00    -0.185 N  
HETATM   14  O   UNL     1     -10.357  18.553  67.864  1.00  0.00    -0.363 OA 
HETATM   15  C   UNL     1      -8.409  17.148  68.336  1.00  0.00    -0.251 C  
HETATM   16  C   UNL     1      -9.397  18.208  68.863  1.00  0.00    -0.173 C  
HETATM   17  C   UNL     1     -10.282  16.297  66.933  1.00  0.00    -0.288 C  
HETATM   18  C   UNL     1     -11.150  17.427  67.489  1.00  0.00     0.053 C  
BRANCH  13  19
HETATM   19  C   UNL     1      -9.736  15.099  69.166  1.00  0.00    -0.232 C  
BRANCH  19  20
HETATM   20  C   UNL     1     -11.170  14.595  68.906  1.00  0.00    -0.267 C  
BRANCH  20  21
HETATM   21  O   UNL     1     -11.297  13.178  68.851  1.00  0.00    -0.256 OA 
BRANCH  21  22
HETATM   22  C   UNL     1     -11.941  12.640  70.038  1.00  0.00    -0.306 C  
BRANCH  22  23
HETATM   23  C   UNL     1     -12.114  11.120  69.982  1.00  0.00    -0.437 C  
BRANCH  23  24
HETATM   24  C   UNL     1     -10.988  10.260  70.583  1.00  0.00    -0.287 C  
HETATM   25  C   UNL     1     -10.372   9.407  69.438  1.00  0.00    -0.222 C  
HETATM   26  C   UNL     1     -10.742   7.917  69.459  1.00  0.00    -0.195 C  
HETATM   27  C   UNL     1     -11.192   7.459  70.846  1.00  0.00    -0.292 C  
HETATM   28  C   UNL     1     -12.467   8.256  71.248  1.00  0.00    -0.264 C  
HETATM   29  C   UNL     1     -11.464   9.345  71.741  1.00  0.00    -0.413 C  
HETATM   30  C   UNL     1     -10.503   8.117  72.114  1.00  0.00    -0.352 C  
HETATM   31  C   UNL     1      -8.991   8.354  72.105  1.00  0.00    -0.293 C  
HETATM   32  C   UNL     1     -10.816   7.351  73.420  1.00  0.00    -0.362 C  
ENDBRANCH  23  24
ENDBRANCH  22  23
ENDBRANCH  21  22
ENDBRANCH  20  21
ENDBRANCH  19  20
ENDBRANCH  13  19
ENDBRANCH  12  13
ENDBRANCH   7  12
ENDBRANCH   2   3
TORSDOF 10
ENDMDL
MODEL       97
REMARK 921   NORMALIZED FREE ENERGY PREDICTED BY IDOCK:   -4.84 KCAL/MOL
REMARK 922        TOTAL FREE ENERGY PREDICTED BY IDOCK:   -8.94 KCAL/MOL
REMARK 923 INTER-LIGAND FREE ENERGY PREDICTED BY IDOCK:   -7.70 KCAL/MOL
REMARK 924 INTRA-LIGAND FREE ENERGY PREDICTED BY IDOCK:   -1.24 KCAL/MOL
REMARK 927      BINDING AFFINITY PREDICTED BY RF-SCORE:    0.00 PKD
ROOT
HETATM    1  C   UNL     1     -11.045   5.747  72.365  1.00  0.00    -0.281 C  
HETATM    2  O   UNL     1     -11.158   5.497  70.972  1.00  0.00    -0.184 OA 
ENDROOT
BRANCH   2   3
HETATM    3  C   UNL     1     -11.010   6.549  70.111  1.00  0.00    -0.317 A  
HETATM    4  C   UNL     1     -10.471   6.542  68.817  1.00  0.00    -0.213 A  
HETATM    5  C   UNL     1     -11.394   7.769  70.679  1.00  0.00    -0.275 A  
HETATM    6  C   UNL     1     -10.314   7.759  68.139  1.00  0.00    -0.248 A  
HETATM    7  C   UNL     1     -10.563   9.003  68.759  1.00  0.00    -0.196 A  
HETATM    8 BR   UNL     1     -11.855  10.540  70.868  1.00  0.00    -0.442 Br 
HETATM    9  C   UNL     1     -11.199   8.978  70.008  1.00  0.00    -0.128 A  
BRANCH   4  10
HETATM   10  O   UNL     1     -10.132   5.355  68.235  1.00  0.00    -0.157 OA 
HETATM   11  C   UNL     1     -10.270   5.300  66.814  1.00  0.00    -0.249 C  
ENDBRANCH   4  10
BRANCH   7  12
HETATM   12  C   UNL     1     -10.009  10.272  68.129  1.00  0.00    -0.146 C  
BRANCH  12  13
HETATM   13  N   UNL     1      -8.433  10.427  68.238  1.00  0.00    -0.120 N  
HETATM   14  O   UNL     1      -6.322  11.608  69.956  1.00  0.00    -0.142 OA 
HETATM   15  C   UNL     1      -8.034  11.938  68.238  1.00  0.00    -0.148 C  
HETATM   16  C   UNL     1      -6.559  12.126  68.646  1.00  0.00    -0.077 C  
HETATM   17  C   UNL     1      -8.022   9.882  69.642  1.00  0.00    -0.162 C  
HETATM   18  C   UNL     1      -6.575  10.204  70.018  1.00  0.00    -0.117 C  
BRANCH  13  19
HETATM   19  C   UNL     1      -7.712   9.659  67.078  1.00  0.00    -0.095 C  
BRANCH  19  20
HETATM   20  C   UNL     1      -7.903  10.378  65.727  1.00  0.00    -0.150 C  
BRANCH  20  21
HETATM   21  O   UNL     1      -9.029   9.935  64.976  1.00  0.00    -0.170 OA 
BRANCH  21  22
HETATM   22  C   UNL     1      -9.314  10.809  63.851  1.00  0.00    -0.253 C  
BRANCH  22  23
HETATM   23  C   UNL     1     -10.741  11.362  63.876  1.00  0.00    -0.462 C  
BRANCH  23  24
HETATM   24  C   UNL     1     -11.238  11.973  65.199  1.00  0.00    -0.368 C  
HETATM   25  C   UNL     1     -12.659  12.556  64.956  1.00  0.00    -0.424 C  
HETATM   26  C   UNL     1     -12.735  14.087  64.884  1.00  0.00    -0.303 C  
HETATM   27  C   UNL     1     -11.542  14.752  65.570  1.00  0.00    -0.301 C  
HETATM   28  C   UNL     1     -10.238  14.321  64.836  1.00  0.00    -0.361 C  
HETATM   29  C   UNL     1     -10.295  13.067  65.763  1.00  0.00    -0.296 C  
HETATM   30  C   UNL     1     -10.930  14.055  66.855  1.00  0.00    -0.301 C  
HETATM   31  C   UNL     1     -11.873  13.461  67.904  1.00  0.00    -0.392 C  
HETATM   32  C   UNL     1      -9.954  14.978  67.620  1.00  0.00    -0.225 C  
ENDBRANCH  23  24
ENDBRANCH  22  23
ENDBRANCH  21  22
ENDBRANCH  20  21
ENDBRANCH  19  20
ENDBRANCH  13  19
ENDBRANCH  12  13
ENDBRANCH   7  12
ENDBRANCH   2   3
TORSDOF 10
ENDMDL
MODEL       98
REMARK 921   NORMALIZED FREE ENERGY PREDICTED BY IDOCK:   -4.83 KCAL/MOL
REMARK 922        TOTAL FREE ENERGY PREDICTED BY IDOCK:   -8.93 KCAL/MOL
REMARK 923 INTER-LIGAND FREE ENERGY PREDICTED BY IDOCK:   -8.18 KCAL/MOL
REMARK 924 INTRA-LIGAND FREE ENERGY PREDICTED BY IDOCK:   -0.75 KCAL/MOL
REMARK 927      BINDING AFFINITY PREDICTED BY RF-SCORE:    0.00 PKD
ROOT
HETATM    1  C   UNL     1      -6.273  20.447  68.320  1.00  0.00    -0.300 C  
HETATM    2  O   UNL     1      -7.271  19.864  69.145  1.00  0.00    -0.312 OA 
ENDROOT
BRANCH   2   3
HETATM    3  C   UNL     1      -7.824  18.678  68.752  1.00  0.00    -0.289 A  
HETATM    4  C   UNL     1      -9.047  18.463  68.102  1.00  0.00    -0.309 A  
HETATM    5  C   UNL     1      -7.061  17.571  69.143  1.00  0.00    -0.195 A  
HETATM    6  C   UNL     1      -9.479  17.148  67.880  1.00  0.00    -0.257 A  
HETATM    7  C   UNL     1      -8.786  16.031  68.399  1.00  0.00    -0.188 A  
HETATM    8 BR   UNL     1      -6.332  14.869  69.448  1.00  0.00    -0.136 Br 
HETATM    9  C   UNL     1      -7.518  16.266  68.950  1.00  0.00    -0.209 A  
BRANCH   4  10
HETATM   10  O   UNL     1      -9.781  19.533  67.677  1.00  0.00    -0.315 OA 
HETATM   11  C   UNL     1      -9.678  19.843  66.287  1.00  0.00    -0.445 C  
ENDBRANCH   4  10
BRANCH   7  12
HETATM   12  C   UNL     1      -9.493  14.686  68.471  1.00  0.00    -0.216 C  
BRANCH  12  13
HETATM   13  N   UNL     1     -10.921  14.730  69.164  1.00  0.00    -0.257 N  
HETATM   14  O   UNL     1     -12.239  14.422  71.804  1.00  0.00    -0.339 OA 
HETATM   15  C   UNL     1     -11.238  13.356  69.841  1.00  0.00     0.098 C  
HETATM   16  C   UNL     1     -12.464  13.463  70.770  1.00  0.00    -0.341 C  
HETATM   17  C   UNL     1     -10.826  15.763  70.329  1.00  0.00    -0.351 C  
HETATM   18  C   UNL     1     -12.033  15.730  71.269  1.00  0.00    -0.434 C  
BRANCH  13  19
HETATM   19  C   UNL     1     -12.034  15.113  68.130  1.00  0.00    -0.123 C  
BRANCH  19  20
HETATM   20  C   UNL     1     -12.246  13.991  67.093  1.00  0.00    -0.321 C  
BRANCH  20  21
HETATM   21  O   UNL     1     -11.623  14.225  65.834  1.00  0.00    -0.342 OA 
BRANCH  21  22
HETATM   22  C   UNL     1     -11.643  13.044  64.987  1.00  0.00    -0.325 C  
BRANCH  22  23
HETATM   23  C   UNL     1     -10.371  12.202  65.114  1.00  0.00    -0.311 C  
BRANCH  23  24
HETATM   24  C   UNL     1     -10.458  10.917  65.958  1.00  0.00    -0.287 C  
HETATM   25  C   UNL     1      -9.924  11.241  67.382  1.00  0.00    -0.206 C  
HETATM   26  C   UNL     1      -8.533  10.676  67.704  1.00  0.00    -0.118 C  
HETATM   27  C   UNL     1      -8.172   9.497  66.801  1.00  0.00    -0.113 C  
HETATM   28  C   UNL     1      -8.138   9.989  65.325  1.00  0.00    -0.145 C  
HETATM   29  C   UNL     1      -9.676   9.726  65.346  1.00  0.00    -0.383 C  
HETATM   30  C   UNL     1      -9.332   8.519  66.343  1.00  0.00    -0.273 C  
HETATM   31  C   UNL     1     -10.396   8.094  67.358  1.00  0.00    -0.351 C  
HETATM   32  C   UNL     1      -8.791   7.216  65.710  1.00  0.00    -0.090 C  
ENDBRANCH  23  24
ENDBRANCH  22  23
ENDBRANCH  21  22
ENDBRANCH  20  21
ENDBRANCH  19  20
ENDBRANCH  13  19
ENDBRANCH  12  13
ENDBRANCH   7  12
ENDBRANCH   2   3
TORSDOF 10
ENDMDL
MODEL       99
REMARK 921   NORMALIZED FREE ENERGY PREDICTED BY IDOCK:   -4.80 KCAL/MOL
REMARK 922        TOTAL FREE ENERGY PREDICTED BY IDOCK:   -8.88 KCAL/MOL
REMARK 923 INTER-LIGAND FREE ENERGY PREDICTED BY IDOCK:   -7.49 KCAL/MOL
REMARK 924 INTRA-LIGAND FREE ENERGY PREDICTED BY IDOCK:   -1.39 KCAL/MOL
REMARK 927      BINDING AFFINITY PREDICTED BY RF-SCORE:    0.00 PKD
ROOT
HETATM    1  C   UNL     1     -11.387  11.208  67.816  1.00  0.00    -0.293 C  
HETATM    2  O   UNL     1     -10.742  12.087  66.905  1.00  0.00    -0.229 OA 
ENDROOT
BRANCH   2   3
HETATM    3  C   UNL     1     -10.875  13.433  67.101  1.00  0.00    -0.276 A  
HETATM    4  C   UNL     1     -10.852  14.456  66.143  1.00  0.00    -0.309 A  
HETATM    5  C   UNL     1     -10.967  13.776  68.455  1.00  0.00    -0.275 A  
HETATM    6  C   UNL     1     -10.902  15.791  66.570  1.00  0.00    -0.230 A  
HETATM    7  C   UNL     1     -10.849  16.146  67.937  1.00  0.00    -0.332 A  
HETATM    8 BR   UNL     1     -11.202  15.414  70.733  1.00  0.00    -0.389 Br 
HETATM    9  C   UNL     1     -10.979  15.108  68.871  1.00  0.00    -0.254 A  
BRANCH   4  10
HETATM   10  O   UNL     1     -10.805  14.137  64.816  1.00  0.00    -0.387 OA 
HETATM   11  C   UNL     1     -12.050  13.767  64.223  1.00  0.00    -0.440 C  
ENDBRANCH   4  10
BRANCH   7  12
HETATM   12  C   UNL     1     -10.510  17.578  68.320  1.00  0.00    -0.383 C  
BRANCH  12  13
HETATM   13  N   UNL     1      -9.108  18.089  67.779  1.00  0.00    -0.259 N  
HETATM   14  O   UNL     1      -7.638  20.576  67.104  1.00  0.00    -0.309 OA 
HETATM   15  C   UNL     1      -9.299  18.900  66.456  1.00  0.00    -0.335 C  
HETATM   16  C   UNL     1      -8.012  19.659  66.076  1.00  0.00    -0.328 C  
HETATM   17  C   UNL     1      -8.565  19.112  68.825  1.00  0.00    -0.335 C  
HETATM   18  C   UNL     1      -7.352  19.901  68.330  1.00  0.00    -0.292 C  
BRANCH  13  19
HETATM   19  C   UNL     1      -8.120  16.892  67.562  1.00  0.00    -0.173 C  
BRANCH  19  20
HETATM   20  C   UNL     1      -7.526  16.406  68.900  1.00  0.00    -0.214 C  
BRANCH  20  21
HETATM   21  O   UNL     1      -7.131  15.038  68.909  1.00  0.00    -0.104 OA 
BRANCH  21  22
HETATM   22  C   UNL     1      -7.380  14.389  67.632  1.00  0.00    -0.180 C  
BRANCH  22  23
HETATM   23  C   UNL     1      -6.849  12.955  67.582  1.00  0.00    -0.149 C  
BRANCH  23  24
HETATM   24  C   UNL     1      -7.471  11.938  68.557  1.00  0.00    -0.117 C  
HETATM   25  C   UNL     1      -6.438  11.660  69.685  1.00  0.00    -0.124 C  
HETATM   26  C   UNL     1      -5.738  10.296  69.610  1.00  0.00    -0.039 C  
HETATM   27  C   UNL     1      -6.538   9.286  68.786  1.00  0.00    -0.052 C  
HETATM   28  C   UNL     1      -6.667   9.819  67.330  1.00  0.00    -0.074 C  
HETATM   29  C   UNL     1      -7.895  10.612  67.874  1.00  0.00    -0.105 C  
HETATM   30  C   UNL     1      -8.120   9.356  68.845  1.00  0.00    -0.103 C  
HETATM   31  C   UNL     1      -8.809   9.598  70.190  1.00  0.00    -0.266 C  
HETATM   32  C   UNL     1      -8.790   8.105  68.232  1.00  0.00    -0.133 C  
ENDBRANCH  23  24
ENDBRANCH  22  23
ENDBRANCH  21  22
ENDBRANCH  20  21
ENDBRANCH  19  20
ENDBRANCH  13  19
ENDBRANCH  12  13
ENDBRANCH   7  12
ENDBRANCH   2   3
TORSDOF 10
ENDMDL
MODEL      100
REMARK 921   NORMALIZED FREE ENERGY PREDICTED BY IDOCK:   -4.80 KCAL/MOL
REMARK 922        TOTAL FREE ENERGY PREDICTED BY IDOCK:   -8.88 KCAL/MOL
REMARK 923 INTER-LIGAND FREE ENERGY PREDICTED BY IDOCK:   -8.63 KCAL/MOL
REMARK 924 INTRA-LIGAND FREE ENERGY PREDICTED BY IDOCK:   -0.24 KCAL/MOL
REMARK 927      BINDING AFFINITY PREDICTED BY RF-SCORE:    0.00 PKD
ROOT
HETATM    1  C   UNL     1      -8.726   8.943  62.528  1.00  0.00    -0.158 C  
HETATM    2  O   UNL     1      -8.140  10.054  63.190  1.00  0.00    -0.142 OA 
ENDROOT
BRANCH   2   3
HETATM    3  C   UNL     1      -8.789  10.579  64.272  1.00  0.00    -0.197 A  
HETATM    4  C   UNL     1      -8.641  10.237  65.623  1.00  0.00    -0.161 A  
HETATM    5  C   UNL     1      -9.762  11.519  63.915  1.00  0.00    -0.279 A  
HETATM    6  C   UNL     1      -9.485  10.830  66.573  1.00  0.00    -0.197 A  
HETATM    7  C   UNL     1     -10.562  11.666  66.203  1.00  0.00    -0.306 A  
HETATM    8 BR   UNL     1     -11.828  13.405  64.240  1.00  0.00    -0.496 Br 
HETATM    9  C   UNL     1     -10.622  12.076  64.864  1.00  0.00    -0.291 A  
BRANCH   4  10
HETATM   10  O   UNL     1      -7.667   9.353  65.992  1.00  0.00    -0.098 OA 
HETATM   11  C   UNL     1      -8.085   7.995  66.132  1.00  0.00    -0.111 C  
ENDBRANCH   4  10
BRANCH   7  12
HETATM   12  C   UNL     1     -11.661  11.954  67.215  1.00  0.00    -0.293 C  
BRANCH  12  13
HETATM   13  N   UNL     1     -11.334  13.136  68.223  1.00  0.00    -0.277 N  
HETATM   14  O   UNL     1     -12.640  15.022  70.104  1.00  0.00    -0.320 OA 
HETATM   15  C   UNL     1     -12.082  14.439  67.793  1.00  0.00    -0.269 C  
HETATM   16  C   UNL     1     -12.031  15.505  68.906  1.00  0.00    -0.284 C  
HETATM   17  C   UNL     1     -11.943  12.735  69.602  1.00  0.00    -0.288 C  
HETATM   18  C   UNL     1     -11.953  13.880  70.617  1.00  0.00    -0.292 C  
BRANCH  13  19
HETATM   19  C   UNL     1      -9.789  13.384  68.314  1.00  0.00    -0.235 C  
BRANCH  19  20
HETATM   20  C   UNL     1      -9.426  14.821  67.887  1.00  0.00    -0.201 C  
BRANCH  20  21
HETATM   21  O   UNL     1      -8.434  14.903  66.869  1.00  0.00    -0.228 OA 
BRANCH  21  22
HETATM   22  C   UNL     1      -7.125  15.234  67.408  1.00  0.00    -0.191 C  
BRANCH  22  23
HETATM   23  C   UNL     1      -6.686  16.659  67.063  1.00  0.00    -0.242 C  
BRANCH  23  24
HETATM   24  C   UNL     1      -7.776  17.638  66.589  1.00  0.00    -0.284 C  
HETATM   25  C   UNL     1      -7.106  18.690  65.660  1.00  0.00    -0.215 C  
HETATM   26  C   UNL     1      -6.925  20.085  66.274  1.00  0.00    -0.267 C  
HETATM   27  C   UNL     1      -7.881  20.324  67.443  1.00  0.00    -0.361 C  
HETATM   28  C   UNL     1      -7.574  19.286  68.561  1.00  0.00    -0.369 C  
HETATM   29  C   UNL     1      -8.518  18.342  67.754  1.00  0.00    -0.270 C  
HETATM   30  C   UNL     1      -9.325  19.675  67.377  1.00  0.00    -0.422 C  
HETATM   31  C   UNL     1     -10.097  19.702  66.055  1.00  0.00    -0.553 C  
HETATM   32  C   UNL     1     -10.280  20.247  68.450  1.00  0.00    -0.340 C  
ENDBRANCH  23  24
ENDBRANCH  22  23
ENDBRANCH  21  22
ENDBRANCH  20  21
ENDBRANCH  19  20
ENDBRANCH  13  19
ENDBRANCH  12  13
ENDBRANCH   7  12
ENDBRANCH   2   3
TORSDOF 10
ENDMDL
MODEL      101
REMARK 921   NORMALIZED FREE ENERGY PREDICTED BY IDOCK:   -4.78 KCAL/MOL
REMARK 922        TOTAL FREE ENERGY PREDICTED BY IDOCK:   -8.85 KCAL/MOL
REMARK 923 INTER-LIGAND FREE ENERGY PREDICTED BY IDOCK:   -8.33 KCAL/MOL
REMARK 924 INTRA-LIGAND FREE ENERGY PREDICTED BY IDOCK:   -0.51 KCAL/MOL
REMARK 927      BINDING AFFINITY PREDICTED BY RF-SCORE:    0.00 PKD
ROOT
HETATM    1  C   UNL     1      -7.639  17.284  65.845  1.00  0.00    -0.028 C  
HETATM    2  O   UNL     1      -9.017  17.621  65.907  1.00  0.00    -0.519 OA 
ENDROOT
BRANCH   2   3
HETATM    3  C   UNL     1      -9.888  16.697  66.413  1.00  0.00    -0.292 A  
HETATM    4  C   UNL     1     -10.144  16.389  67.756  1.00  0.00    -0.262 A  
HETATM    5  C   UNL     1     -10.517  15.945  65.414  1.00  0.00    -0.429 A  
HETATM    6  C   UNL     1     -11.006  15.326  68.059  1.00  0.00    -0.299 A  
HETATM    7  C   UNL     1     -11.529  14.474  67.060  1.00  0.00    -0.383 A  
HETATM    8 BR   UNL     1     -12.200  14.001  64.267  1.00  0.00    -0.398 Br 
HETATM    9  C   UNL     1     -11.345  14.865  65.726  1.00  0.00    -0.314 A  
BRANCH   4  10
HETATM   10  O   UNL     1      -9.570  17.141  68.741  1.00  0.00    -0.266 OA 
HETATM   11  C   UNL     1     -10.095  18.459  68.900  1.00  0.00    -0.321 C  
ENDBRANCH   4  10
BRANCH   7  12
HETATM   12  C   UNL     1     -12.118  13.131  67.463  1.00  0.00    -0.248 C  
BRANCH  12  13
HETATM   13  N   UNL     1     -11.094  11.919  67.405  1.00  0.00    -0.261 N  
HETATM   14  O   UNL     1      -8.713  10.951  65.923  1.00  0.00    -0.176 OA 
HETATM   15  C   UNL     1     -11.143  11.233  66.001  1.00  0.00    -0.116 C  
HETATM   16  C   UNL     1      -9.959  10.263  65.813  1.00  0.00    -0.271 C  
HETATM   17  C   UNL     1      -9.663  12.530  67.526  1.00  0.00    -0.196 C  
HETATM   18  C   UNL     1      -8.548  11.530  67.218  1.00  0.00    -0.150 C  
BRANCH  13  19
HETATM   19  C   UNL     1     -11.386  10.882  68.543  1.00  0.00    -0.299 C  
BRANCH  19  20
HETATM   20  C   UNL     1     -12.272  11.495  69.647  1.00  0.00    -0.229 C  
BRANCH  20  21
HETATM   21  O   UNL     1     -12.912  10.542  70.489  1.00  0.00    -0.345 OA 
BRANCH  21  22
HETATM   22  C   UNL     1     -11.974   9.891  71.388  1.00  0.00    -0.404 C  
BRANCH  22  23
HETATM   23  C   UNL     1     -11.963   8.369  71.233  1.00  0.00    -0.323 C  
BRANCH  23  24
HETATM   24  C   UNL     1     -11.019   7.775  70.172  1.00  0.00    -0.246 C  
HETATM   25  C   UNL     1     -11.395   6.279  69.977  1.00  0.00    -0.486 C  
HETATM   26  C   UNL     1     -10.412   5.271  70.588  1.00  0.00    -0.306 C  
HETATM   27  C   UNL     1      -9.026   5.880  70.801  1.00  0.00    -0.155 C  
HETATM   28  C   UNL     1      -9.149   7.068  71.799  1.00  0.00    -0.140 C  
HETATM   29  C   UNL     1      -9.519   7.910  70.539  1.00  0.00    -0.162 C  
HETATM   30  C   UNL     1      -8.507   6.948  69.751  1.00  0.00    -0.133 C  
HETATM   31  C   UNL     1      -8.751   6.710  68.259  1.00  0.00    -0.118 C  
HETATM   32  C   UNL     1      -6.996   7.240  69.903  1.00  0.00    -0.057 C  
ENDBRANCH  23  24
ENDBRANCH  22  23
ENDBRANCH  21  22
ENDBRANCH  20  21
ENDBRANCH  19  20
ENDBRANCH  13  19
ENDBRANCH  12  13
ENDBRANCH   7  12
ENDBRANCH   2   3
TORSDOF 10
ENDMDL
MODEL      102
REMARK 921   NORMALIZED FREE ENERGY PREDICTED BY IDOCK:   -4.76 KCAL/MOL
REMARK 922        TOTAL FREE ENERGY PREDICTED BY IDOCK:   -8.82 KCAL/MOL
REMARK 923 INTER-LIGAND FREE ENERGY PREDICTED BY IDOCK:   -7.80 KCAL/MOL
REMARK 924 INTRA-LIGAND FREE ENERGY PREDICTED BY IDOCK:   -1.02 KCAL/MOL
REMARK 927      BINDING AFFINITY PREDICTED BY RF-SCORE:    0.00 PKD
ROOT
HETATM    1  C   UNL     1     -11.819  14.419  68.750  1.00  0.00    -0.325 C  
HETATM    2  O   UNL     1     -12.178  13.778  67.535  1.00  0.00    -0.355 OA 
ENDROOT
BRANCH   2   3
HETATM    3  C   UNL     1     -11.280  12.919  66.966  1.00  0.00    -0.288 A  
HETATM    4  C   UNL     1     -11.434  12.142  65.810  1.00  0.00    -0.361 A  
HETATM    5  C   UNL     1     -10.108  12.786  67.720  1.00  0.00    -0.224 A  
HETATM    6  C   UNL     1     -10.420  11.242  65.454  1.00  0.00    -0.326 A  
HETATM    7  C   UNL     1      -9.304  10.998  66.286  1.00  0.00    -0.206 A  
HETATM    8 BR   UNL     1      -7.549  11.861  68.442  1.00  0.00    -0.125 Br 
HETATM    9  C   UNL     1      -9.121  11.860  67.377  1.00  0.00    -0.178 A  
BRANCH   4  10
HETATM   10  O   UNL     1     -12.553  12.292  65.041  1.00  0.00    -0.575 OA 
HETATM   11  C   UNL     1     -12.362  12.144  63.634  1.00  0.00    -0.568 C  
ENDBRANCH   4  10
BRANCH   7  12
HETATM   12  C   UNL     1      -8.461   9.754  66.053  1.00  0.00    -0.124 C  
BRANCH  12  13
HETATM   13  N   UNL     1      -8.962   8.465  66.833  1.00  0.00    -0.140 N  
HETATM   14  O   UNL     1     -10.490   5.952  66.441  1.00  0.00    -0.189 OA 
HETATM   15  C   UNL     1     -10.523   8.375  66.787  1.00  0.00    -0.245 C  
HETATM   16  C   UNL     1     -11.016   6.994  67.264  1.00  0.00    -0.302 C  
HETATM   17  C   UNL     1      -8.445   7.226  66.039  1.00  0.00    -0.145 C  
HETATM   18  C   UNL     1      -9.064   5.906  66.502  1.00  0.00    -0.143 C  
BRANCH  13  19
HETATM   19  C   UNL     1      -8.448   8.469  68.313  1.00  0.00    -0.135 C  
BRANCH  19  20
HETATM   20  C   UNL     1      -6.929   8.208  68.379  1.00  0.00    -0.073 C  
BRANCH  20  21
HETATM   21  O   UNL     1      -6.501   7.498  69.537  1.00  0.00    -0.034 OA 
BRANCH  21  22
HETATM   22  C   UNL     1      -6.742   8.248  70.758  1.00  0.00    -0.038 C  
BRANCH  22  23
HETATM   23  C   UNL     1      -7.539   7.452  71.795  1.00  0.00    -0.085 C  
BRANCH  23  24
HETATM   24  C   UNL     1      -8.944   7.969  72.153  1.00  0.00    -0.221 C  
HETATM   25  C   UNL     1      -9.135   7.819  73.689  1.00  0.00    -0.345 C  
HETATM   26  C   UNL     1     -10.067   6.680  74.125  1.00  0.00    -0.390 C  
HETATM   27  C   UNL     1     -11.020   6.260  73.006  1.00  0.00    -0.271 C  
HETATM   28  C   UNL     1     -10.181   5.734  71.805  1.00  0.00    -0.245 C  
HETATM   29  C   UNL     1     -10.080   7.236  71.394  1.00  0.00    -0.196 C  
HETATM   30  C   UNL     1     -11.552   7.377  72.015  1.00  0.00    -0.321 C  
HETATM   31  C   UNL     1     -11.971   8.738  72.577  1.00  0.00    -0.301 C  
HETATM   32  C   UNL     1     -12.732   6.883  71.146  1.00  0.00    -0.331 C  
ENDBRANCH  23  24
ENDBRANCH  22  23
ENDBRANCH  21  22
ENDBRANCH  20  21
ENDBRANCH  19  20
ENDBRANCH  13  19
ENDBRANCH  12  13
ENDBRANCH   7  12
ENDBRANCH   2   3
TORSDOF 10
ENDMDL
MODEL      103
REMARK 921   NORMALIZED FREE ENERGY PREDICTED BY IDOCK:   -4.75 KCAL/MOL
REMARK 922        TOTAL FREE ENERGY PREDICTED BY IDOCK:   -8.79 KCAL/MOL
REMARK 923 INTER-LIGAND FREE ENERGY PREDICTED BY IDOCK:   -7.94 KCAL/MOL
REMARK 924 INTRA-LIGAND FREE ENERGY PREDICTED BY IDOCK:   -0.85 KCAL/MOL
REMARK 927      BINDING AFFINITY PREDICTED BY RF-SCORE:    0.00 PKD
ROOT
HETATM    1  C   UNL     1     -13.757  15.229  71.373  1.00  0.00    -0.518 C  
HETATM    2  O   UNL     1     -12.460  14.687  71.172  1.00  0.00    -0.291 OA 
ENDROOT
BRANCH   2   3
HETATM    3  C   UNL     1     -12.294  13.753  70.188  1.00  0.00    -0.323 A  
HETATM    4  C   UNL     1     -12.360  12.357  70.295  1.00  0.00    -0.188 A  
HETATM    5  C   UNL     1     -11.944  14.322  68.958  1.00  0.00    -0.360 A  
HETATM    6  C   UNL     1     -12.054  11.572  69.175  1.00  0.00    -0.329 A  
HETATM    7  C   UNL     1     -11.560  12.134  67.976  1.00  0.00    -0.411 A  
HETATM    8 BR   UNL     1     -11.242  14.445  66.234  1.00  0.00    -0.345 Br 
HETATM    9  C   UNL     1     -11.605  13.530  67.859  1.00  0.00    -0.342 A  
BRANCH   4  10
HETATM   10  O   UNL     1     -12.742  11.789  71.477  1.00  0.00    -0.358 OA 
HETATM   11  C   UNL     1     -12.747  10.361  71.505  1.00  0.00    -0.459 C  
ENDBRANCH   4  10
BRANCH   7  12
HETATM   12  C   UNL     1     -10.882  11.231  66.956  1.00  0.00    -0.280 C  
BRANCH  12  13
HETATM   13  N   UNL     1      -9.818  10.226  67.573  1.00  0.00    -0.169 N  
HETATM   14  O   UNL     1      -9.481   8.240  69.750  1.00  0.00    -0.162 OA 
HETATM   15  C   UNL     1      -9.531  10.589  69.066  1.00  0.00    -0.201 C  
HETATM   16  C   UNL     1      -8.747   9.464  69.772  1.00  0.00    -0.181 C  
HETATM   17  C   UNL     1     -10.491   8.819  67.603  1.00  0.00    -0.244 C  
HETATM   18  C   UNL     1      -9.705   7.787  68.414  1.00  0.00    -0.159 C  
BRANCH  13  19
HETATM   19  C   UNL     1      -8.495  10.226  66.734  1.00  0.00    -0.123 C  
BRANCH  19  20
HETATM   20  C   UNL     1      -7.732  11.557  66.890  1.00  0.00    -0.157 C  
BRANCH  20  21
HETATM   21  O   UNL     1      -6.511  11.458  67.616  1.00  0.00    -0.056 OA 
BRANCH  21  22
HETATM   22  C   UNL     1      -5.741  12.689  67.561  1.00  0.00    -0.131 C  
BRANCH  22  23
HETATM   23  C   UNL     1      -6.411  13.842  68.312  1.00  0.00    -0.111 C  
BRANCH  23  24
HETATM   24  C   UNL     1      -6.437  15.216  67.618  1.00  0.00    -0.180 C  
HETATM   25  C   UNL     1      -5.597  16.204  68.476  1.00  0.00    -0.106 C  
HETATM   26  C   UNL     1      -6.410  17.232  69.276  1.00  0.00    -0.239 C  
HETATM   27  C   UNL     1      -7.808  17.435  68.691  1.00  0.00    -0.274 C  
HETATM   28  C   UNL     1      -8.580  16.085  68.757  1.00  0.00    -0.223 C  
HETATM   29  C   UNL     1      -7.869  15.770  67.404  1.00  0.00    -0.203 C  
HETATM   30  C   UNL     1      -7.985  17.343  67.118  1.00  0.00    -0.226 C  
HETATM   31  C   UNL     1      -6.937  17.991  66.209  1.00  0.00    -0.299 C  
HETATM   32  C   UNL     1      -9.358  17.873  66.646  1.00  0.00    -0.293 C  
ENDBRANCH  23  24
ENDBRANCH  22  23
ENDBRANCH  21  22
ENDBRANCH  20  21
ENDBRANCH  19  20
ENDBRANCH  13  19
ENDBRANCH  12  13
ENDBRANCH   7  12
ENDBRANCH   2   3
TORSDOF 10
ENDMDL
MODEL      104
REMARK 921   NORMALIZED FREE ENERGY PREDICTED BY IDOCK:   -4.74 KCAL/MOL
REMARK 922        TOTAL FREE ENERGY PREDICTED BY IDOCK:   -8.79 KCAL/MOL
REMARK 923 INTER-LIGAND FREE ENERGY PREDICTED BY IDOCK:   -7.64 KCAL/MOL
REMARK 924 INTRA-LIGAND FREE ENERGY PREDICTED BY IDOCK:   -1.14 KCAL/MOL
REMARK 927      BINDING AFFINITY PREDICTED BY RF-SCORE:    0.00 PKD
ROOT
HETATM    1  C   UNL     1     -12.525  13.186  63.425  1.00  0.00    -0.242 C  
HETATM    2  O   UNL     1     -11.944  11.894  63.322  1.00  0.00    -0.445 OA 
ENDROOT
BRANCH   2   3
HETATM    3  C   UNL     1     -11.039  11.513  64.273  1.00  0.00    -0.315 A  
HETATM    4  C   UNL     1      -9.855  10.783  64.103  1.00  0.00    -0.326 A  
HETATM    5  C   UNL     1     -11.439  11.862  65.569  1.00  0.00    -0.311 A  
HETATM    6  C   UNL     1      -9.118  10.407  65.234  1.00  0.00    -0.227 A  
HETATM    7  C   UNL     1      -9.589  10.628  66.547  1.00  0.00    -0.218 A  
HETATM    8 BR   UNL     1     -11.332  12.078  68.374  1.00  0.00    -0.363 Br 
HETATM    9  C   UNL     1     -10.717  11.450  66.690  1.00  0.00    -0.269 A  
BRANCH   4  10
HETATM   10  O   UNL     1      -9.431  10.473  62.842  1.00  0.00    -0.284 OA 
HETATM   11  C   UNL     1      -8.029  10.241  62.700  1.00  0.00    -0.151 C  
ENDBRANCH   4  10
BRANCH   7  12
HETATM   12  C   UNL     1      -8.960   9.864  67.702  1.00  0.00    -0.128 C  
BRANCH  12  13
HETATM   13  N   UNL     1      -9.665   8.480  68.035  1.00  0.00    -0.150 N  
HETATM   14  O   UNL     1      -9.882   5.684  67.068  1.00  0.00    -0.131 OA 
HETATM   15  C   UNL     1     -10.561   8.024  66.837  1.00  0.00    -0.254 C  
HETATM   16  C   UNL     1     -11.009   6.558  67.003  1.00  0.00    -0.396 C  
HETATM   17  C   UNL     1      -8.534   7.412  68.147  1.00  0.00    -0.124 C  
HETATM   18  C   UNL     1      -9.057   5.976  68.198  1.00  0.00    -0.118 C  
BRANCH  13  19
HETATM   19  C   UNL     1     -10.507   8.583  69.353  1.00  0.00    -0.218 C  
BRANCH  19  20
HETATM   20  C   UNL     1      -9.708   9.278  70.476  1.00  0.00    -0.260 C  
BRANCH  20  21
HETATM   21  O   UNL     1     -10.419   9.429  71.700  1.00  0.00    -0.325 OA 
BRANCH  21  22
HETATM   22  C   UNL     1     -11.596   8.578  71.757  1.00  0.00    -0.312 C  
BRANCH  22  23
HETATM   23  C   UNL     1     -11.441   7.416  72.741  1.00  0.00    -0.312 C  
BRANCH  23  24
HETATM   24  C   UNL     1     -11.011   6.055  72.164  1.00  0.00    -0.314 C  
HETATM   25  C   UNL     1     -11.490   4.945  73.142  1.00  0.00    -0.362 C  
HETATM   26  C   UNL     1     -10.385   4.292  73.983  1.00  0.00    -0.273 C  
HETATM   27  C   UNL     1      -9.005   4.467  73.349  1.00  0.00    -0.111 C  
HETATM   28  C   UNL     1      -8.682   5.987  73.264  1.00  0.00    -0.120 C  
HETATM   29  C   UNL     1      -9.483   5.943  71.927  1.00  0.00    -0.166 C  
HETATM   30  C   UNL     1      -8.898   4.458  71.768  1.00  0.00    -0.145 C  
HETATM   31  C   UNL     1      -9.717   3.441  70.968  1.00  0.00    -0.216 C  
HETATM   32  C   UNL     1      -7.439   4.326  71.275  1.00  0.00    -0.059 C  
ENDBRANCH  23  24
ENDBRANCH  22  23
ENDBRANCH  21  22
ENDBRANCH  20  21
ENDBRANCH  19  20
ENDBRANCH  13  19
ENDBRANCH  12  13
ENDBRANCH   7  12
ENDBRANCH   2   3
TORSDOF 10
ENDMDL
MODEL      105
REMARK 921   NORMALIZED FREE ENERGY PREDICTED BY IDOCK:   -4.72 KCAL/MOL
REMARK 922        TOTAL FREE ENERGY PREDICTED BY IDOCK:   -8.76 KCAL/MOL
REMARK 923 INTER-LIGAND FREE ENERGY PREDICTED BY IDOCK:   -7.69 KCAL/MOL
REMARK 924 INTRA-LIGAND FREE ENERGY PREDICTED BY IDOCK:   -1.07 KCAL/MOL
REMARK 927      BINDING AFFINITY PREDICTED BY RF-SCORE:    0.00 PKD
ROOT
HETATM    1  C   UNL     1     -10.887  16.533  65.796  1.00  0.00    -0.134 C  
HETATM    2  O   UNL     1     -10.140  15.727  66.695  1.00  0.00    -0.261 OA 
ENDROOT
BRANCH   2   3
HETATM    3  C   UNL     1     -10.390  14.384  66.721  1.00  0.00    -0.273 A  
HETATM    4  C   UNL     1     -10.507  13.544  67.837  1.00  0.00    -0.250 A  
HETATM    5  C   UNL     1     -10.453  13.822  65.440  1.00  0.00    -0.342 A  
HETATM    6  C   UNL     1     -10.663  12.165  67.638  1.00  0.00    -0.252 A  
HETATM    7  C   UNL     1     -10.582  11.576  66.356  1.00  0.00    -0.304 A  
HETATM    8 BR   UNL     1     -10.738  11.840  63.461  1.00  0.00    -0.511 Br 
HETATM    9  C   UNL     1     -10.572  12.443  65.254  1.00  0.00    -0.290 A  
BRANCH   4  10
HETATM   10  O   UNL     1     -10.489  14.083  69.091  1.00  0.00    -0.192 OA 
HETATM   11  C   UNL     1     -11.761  14.459  69.622  1.00  0.00    -0.309 C  
ENDBRANCH   4  10
BRANCH   7  12
HETATM   12  C   UNL     1     -10.363  10.075  66.240  1.00  0.00    -0.165 C  
BRANCH  12  13
HETATM   13  N   UNL     1      -8.858   9.613  66.443  1.00  0.00    -0.147 N  
HETATM   14  O   UNL     1      -6.238  10.583  67.441  1.00  0.00    -0.056 OA 
HETATM   15  C   UNL     1      -7.892  10.541  65.637  1.00  0.00    -0.150 C  
HETATM   16  C   UNL     1      -6.424  10.312  66.052  1.00  0.00    -0.107 C  
HETATM   17  C   UNL     1      -8.512   9.847  67.946  1.00  0.00    -0.121 C  
HETATM   18  C   UNL     1      -7.020   9.707  68.255  1.00  0.00    -0.073 C  
BRANCH  13  19
HETATM   19  C   UNL     1      -8.670   8.114  66.025  1.00  0.00    -0.156 C  
BRANCH  19  20
HETATM   20  C   UNL     1      -9.800   7.229  66.589  1.00  0.00    -0.187 C  
BRANCH  20  21
HETATM   21  O   UNL     1      -9.355   6.018  67.194  1.00  0.00    -0.115 OA 
BRANCH  21  22
HETATM   22  C   UNL     1      -9.203   6.151  68.633  1.00  0.00    -0.123 C  
BRANCH  22  23
HETATM   23  C   UNL     1     -10.542   6.300  69.360  1.00  0.00    -0.330 C  
BRANCH  23  24
HETATM   24  C   UNL     1     -10.890   7.691  69.920  1.00  0.00    -0.241 C  
HETATM   25  C   UNL     1      -9.742   8.126  70.873  1.00  0.00    -0.191 C  
HETATM   26  C   UNL     1     -10.076   8.071  72.370  1.00  0.00    -0.332 C  
HETATM   27  C   UNL     1     -11.584   8.111  72.621  1.00  0.00    -0.441 C  
HETATM   28  C   UNL     1     -12.236   6.863  71.957  1.00  0.00    -0.318 C  
HETATM   29  C   UNL     1     -12.251   7.732  70.661  1.00  0.00     0.029 C  
HETATM   30  C   UNL     1     -12.485   8.976  71.645  1.00  0.00    -0.418 C  
HETATM   31  C   UNL     1     -11.991  10.354  71.196  1.00  0.00    -0.460 C  
HETATM   32  C   UNL     1     -13.917   9.183  72.190  1.00  0.00    -0.466 C  
ENDBRANCH  23  24
ENDBRANCH  22  23
ENDBRANCH  21  22
ENDBRANCH  20  21
ENDBRANCH  19  20
ENDBRANCH  13  19
ENDBRANCH  12  13
ENDBRANCH   7  12
ENDBRANCH   2   3
TORSDOF 10
ENDMDL
MODEL      106
REMARK 921   NORMALIZED FREE ENERGY PREDICTED BY IDOCK:   -4.72 KCAL/MOL
REMARK 922        TOTAL FREE ENERGY PREDICTED BY IDOCK:   -8.76 KCAL/MOL
REMARK 923 INTER-LIGAND FREE ENERGY PREDICTED BY IDOCK:   -7.74 KCAL/MOL
REMARK 924 INTRA-LIGAND FREE ENERGY PREDICTED BY IDOCK:   -1.02 KCAL/MOL
REMARK 927      BINDING AFFINITY PREDICTED BY RF-SCORE:    0.00 PKD
ROOT
HETATM    1  C   UNL     1      -7.841   3.100  72.631  1.00  0.00    -0.063 C  
HETATM    2  O   UNL     1      -9.017   2.868  71.869  1.00  0.00    -0.080 OA 
ENDROOT
BRANCH   2   3
HETATM    3  C   UNL     1      -9.597   3.930  71.233  1.00  0.00    -0.170 A  
HETATM    4  C   UNL     1      -9.773   4.127  69.857  1.00  0.00    -0.210 A  
HETATM    5  C   UNL     1      -9.976   4.946  72.117  1.00  0.00    -0.235 A  
HETATM    6  C   UNL     1     -10.303   5.344  69.406  1.00  0.00    -0.339 A  
HETATM    7  C   UNL     1     -10.550   6.427  70.279  1.00  0.00    -0.290 A  
HETATM    8 BR   UNL     1     -11.025   7.414  72.977  1.00  0.00    -0.406 Br 
HETATM    9  C   UNL     1     -10.468   6.168  71.655  1.00  0.00    -0.222 A  
BRANCH   4  10
HETATM   10  O   UNL     1      -9.447   3.128  68.985  1.00  0.00    -0.163 OA 
HETATM   11  C   UNL     1      -9.358   3.508  67.612  1.00  0.00    -0.204 C  
ENDBRANCH   4  10
BRANCH   7  12
HETATM   12  C   UNL     1     -10.741   7.821  69.701  1.00  0.00    -0.223 C  
BRANCH  12  13
HETATM   13  N   UNL     1      -9.402   8.516  69.207  1.00  0.00    -0.153 N  
HETATM   14  O   UNL     1      -7.238  10.322  70.131  1.00  0.00    -0.153 OA 
HETATM   15  C   UNL     1      -9.529  10.071  69.307  1.00  0.00    -0.217 C  
HETATM   16  C   UNL     1      -8.159  10.755  69.129  1.00  0.00    -0.131 C  
HETATM   17  C   UNL     1      -8.285   8.118  70.220  1.00  0.00    -0.122 C  
HETATM   18  C   UNL     1      -6.993   8.918  70.046  1.00  0.00    -0.044 C  
BRANCH  13  19
HETATM   19  C   UNL     1      -9.049   8.079  67.744  1.00  0.00    -0.131 C  
BRANCH  19  20
HETATM   20  C   UNL     1     -10.057   8.656  66.728  1.00  0.00    -0.296 C  
BRANCH  20  21
HETATM   21  O   UNL     1      -9.485   9.040  65.482  1.00  0.00    -0.228 OA 
BRANCH  21  22
HETATM   22  C   UNL     1     -10.068  10.268  64.968  1.00  0.00    -0.283 C  
BRANCH  22  23
HETATM   23  C   UNL     1      -9.361  11.523  65.488  1.00  0.00    -0.203 C  
BRANCH  23  24
HETATM   24  C   UNL     1     -10.139  12.414  66.473  1.00  0.00    -0.246 C  
HETATM   25  C   UNL     1     -11.655  12.117  66.295  1.00  0.00    -0.424 C  
HETATM   26  C   UNL     1     -12.455  13.206  65.567  1.00  0.00    -0.516 C  
HETATM   27  C   UNL     1     -11.755  14.564  65.623  1.00  0.00    -0.335 C  
HETATM   28  C   UNL     1     -10.378  14.448  64.907  1.00  0.00    -0.419 C  
HETATM   29  C   UNL     1      -9.860  13.928  66.283  1.00  0.00    -0.318 C  
HETATM   30  C   UNL     1     -10.932  14.931  66.927  1.00  0.00    -0.327 C  
HETATM   31  C   UNL     1     -11.513  14.584  68.300  1.00  0.00    -0.336 C  
HETATM   32  C   UNL     1     -10.549  16.428  66.983  1.00  0.00    -0.260 C  
ENDBRANCH  23  24
ENDBRANCH  22  23
ENDBRANCH  21  22
ENDBRANCH  20  21
ENDBRANCH  19  20
ENDBRANCH  13  19
ENDBRANCH  12  13
ENDBRANCH   7  12
ENDBRANCH   2   3
TORSDOF 10
ENDMDL
MODEL      107
REMARK 921   NORMALIZED FREE ENERGY PREDICTED BY IDOCK:   -4.72 KCAL/MOL
REMARK 922        TOTAL FREE ENERGY PREDICTED BY IDOCK:   -8.75 KCAL/MOL
REMARK 923 INTER-LIGAND FREE ENERGY PREDICTED BY IDOCK:   -8.24 KCAL/MOL
REMARK 924 INTRA-LIGAND FREE ENERGY PREDICTED BY IDOCK:   -0.51 KCAL/MOL
REMARK 927      BINDING AFFINITY PREDICTED BY RF-SCORE:    0.00 PKD
ROOT
HETATM    1  C   UNL     1      -8.283   9.163  62.348  1.00  0.00    -0.159 C  
HETATM    2  O   UNL     1      -9.490   9.866  62.603  1.00  0.00    -0.275 OA 
ENDROOT
BRANCH   2   3
HETATM    3  C   UNL     1      -9.562  10.645  63.724  1.00  0.00    -0.306 A  
HETATM    4  C   UNL     1     -10.356  11.778  63.945  1.00  0.00    -0.385 A  
HETATM    5  C   UNL     1      -8.649  10.255  64.712  1.00  0.00    -0.193 A  
HETATM    6  C   UNL     1     -10.200  12.498  65.138  1.00  0.00    -0.299 A  
HETATM    7  C   UNL     1      -9.183  12.196  66.071  1.00  0.00    -0.119 A  
HETATM    8 BR   UNL     1      -7.269  10.294  67.165  1.00  0.00    -0.092 Br 
HETATM    9  C   UNL     1      -8.476  11.000  65.879  1.00  0.00    -0.140 A  
BRANCH   4  10
HETATM   10  O   UNL     1     -11.280  12.146  63.009  1.00  0.00    -0.248 OA 
HETATM   11  C   UNL     1     -12.647  11.995  63.395  1.00  0.00    -0.469 C  
ENDBRANCH   4  10
BRANCH   7  12
HETATM   12  C   UNL     1      -8.810  13.227  67.125  1.00  0.00    -0.222 C  
BRANCH  12  13
HETATM   13  N   UNL     1      -9.964  13.547  68.168  1.00  0.00    -0.234 N  
HETATM   14  O   UNL     1     -11.764  15.734  69.052  1.00  0.00    -0.379 OA 
HETATM   15  C   UNL     1      -9.536  14.721  69.108  1.00  0.00    -0.131 C  
HETATM   16  C   UNL     1     -10.736  15.252  69.918  1.00  0.00    -0.285 C  
HETATM   17  C   UNL     1     -11.178  14.085  67.348  1.00  0.00    -0.311 C  
HETATM   18  C   UNL     1     -12.278  14.693  68.220  1.00  0.00    -0.076 C  
BRANCH  13  19
HETATM   19  C   UNL     1     -10.337  12.273  69.001  1.00  0.00     0.038 C  
BRANCH  19  20
HETATM   20  C   UNL     1     -11.450  11.458  68.310  1.00  0.00    -0.299 C  
BRANCH  20  21
HETATM   21  O   UNL     1     -12.431  10.929  69.196  1.00  0.00    -0.409 OA 
BRANCH  21  22
HETATM   22  C   UNL     1     -12.203  11.339  70.572  1.00  0.00    -0.383 C  
BRANCH  22  23
HETATM   23  C   UNL     1     -12.123  10.155  71.538  1.00  0.00    -0.442 C  
BRANCH  23  24
HETATM   24  C   UNL     1     -11.783   8.778  70.940  1.00  0.00    -0.299 C  
HETATM   25  C   UNL     1     -12.250   7.688  71.945  1.00  0.00    -0.336 C  
HETATM   26  C   UNL     1     -11.127   6.989  72.724  1.00  0.00    -0.320 C  
HETATM   27  C   UNL     1      -9.778   7.108  72.013  1.00  0.00    -0.173 C  
HETATM   28  C   UNL     1      -9.399   8.614  71.907  1.00  0.00    -0.357 C  
HETATM   29  C   UNL     1     -10.276   8.603  70.617  1.00  0.00    -0.237 C  
HETATM   30  C   UNL     1      -9.762   7.096  70.428  1.00  0.00    -0.176 C  
HETATM   31  C   UNL     1     -10.666   6.114  69.678  1.00  0.00    -0.385 C  
HETATM   32  C   UNL     1      -8.340   6.905  69.853  1.00  0.00    -0.139 C  
ENDBRANCH  23  24
ENDBRANCH  22  23
ENDBRANCH  21  22
ENDBRANCH  20  21
ENDBRANCH  19  20
ENDBRANCH  13  19
ENDBRANCH  12  13
ENDBRANCH   7  12
ENDBRANCH   2   3
TORSDOF 10
ENDMDL
MODEL      108
REMARK 921   NORMALIZED FREE ENERGY PREDICTED BY IDOCK:   -4.72 KCAL/MOL
REMARK 922        TOTAL FREE ENERGY PREDICTED BY IDOCK:   -8.75 KCAL/MOL
REMARK 923 INTER-LIGAND FREE ENERGY PREDICTED BY IDOCK:   -8.27 KCAL/MOL
REMARK 924 INTRA-LIGAND FREE ENERGY PREDICTED BY IDOCK:   -0.48 KCAL/MOL
REMARK 927      BINDING AFFINITY PREDICTED BY RF-SCORE:    0.00 PKD
ROOT
HETATM    1  C   UNL     1     -14.387   8.346  71.733  1.00  0.00    -0.472 C  
HETATM    2  O   UNL     1     -13.419   9.323  72.085  1.00  0.00    -0.411 OA 
ENDROOT
BRANCH   2   3
HETATM    3  C   UNL     1     -12.389   9.556  71.217  1.00  0.00    -0.345 A  
HETATM    4  C   UNL     1     -11.352   8.688  70.846  1.00  0.00    -0.272 A  
HETATM    5  C   UNL     1     -12.382  10.867  70.726  1.00  0.00    -0.487 A  
HETATM    6  C   UNL     1     -10.330   9.164  70.013  1.00  0.00    -0.231 A  
HETATM    7  C   UNL     1     -10.240  10.522  69.634  1.00  0.00    -0.207 A  
HETATM    8 BR   UNL     1     -11.518  13.112  69.264  1.00  0.00    -0.338 Br 
HETATM    9  C   UNL     1     -11.340  11.341  69.928  1.00  0.00    -0.249 A  
BRANCH   4  10
HETATM   10  O   UNL     1     -11.368   7.394  71.282  1.00  0.00    -0.254 OA 
HETATM   11  C   UNL     1     -10.750   7.159  72.547  1.00  0.00    -0.250 C  
ENDBRANCH   4  10
BRANCH   7  12
HETATM   12  C   UNL     1      -8.928  11.054  69.077  1.00  0.00    -0.059 C  
BRANCH  12  13
HETATM   13  N   UNL     1      -8.721  10.793  67.524  1.00  0.00    -0.125 N  
HETATM   14  O   UNL     1      -9.461   8.904  65.360  1.00  0.00    -0.172 OA 
HETATM   15  C   UNL     1      -8.044   9.403  67.292  1.00  0.00    -0.110 C  
HETATM   16  C   UNL     1      -8.108   8.993  65.807  1.00  0.00    -0.109 C  
HETATM   17  C   UNL     1     -10.143  10.681  66.891  1.00  0.00    -0.214 C  
HETATM   18  C   UNL     1     -10.127  10.164  65.451  1.00  0.00    -0.272 C  
BRANCH  13  19
HETATM   19  C   UNL     1      -7.877  11.941  66.871  1.00  0.00    -0.120 C  
BRANCH  19  20
HETATM   20  C   UNL     1      -7.005  12.662  67.919  1.00  0.00    -0.110 C  
BRANCH  20  21
HETATM   21  O   UNL     1      -6.377  13.850  67.449  1.00  0.00    -0.320 OA 
BRANCH  21  22
HETATM   22  C   UNL     1      -7.308  14.963  67.363  1.00  0.00    -0.193 C  
BRANCH  22  23
HETATM   23  C   UNL     1      -6.791  16.223  68.062  1.00  0.00    -0.142 C  
BRANCH  23  24
HETATM   24  C   UNL     1      -7.061  17.573  67.372  1.00  0.00    -0.188 C  
HETATM   25  C   UNL     1      -6.305  18.677  68.164  1.00  0.00    -0.212 C  
HETATM   26  C   UNL     1      -7.191  19.589  69.024  1.00  0.00    -0.397 C  
HETATM   27  C   UNL     1      -8.644  19.590  68.548  1.00  0.00    -0.379 C  
HETATM   28  C   UNL     1      -9.212  18.146  68.673  1.00  0.00    -0.295 C  
HETATM   29  C   UNL     1      -8.569  17.919  67.269  1.00  0.00    -0.241 C  
HETATM   30  C   UNL     1      -8.925  19.458  66.994  1.00  0.00    -0.350 C  
HETATM   31  C   UNL     1      -8.050  20.236  66.007  1.00  0.00    -0.133 C  
HETATM   32  C   UNL     1     -10.390  19.787  66.628  1.00  0.00    -0.614 C  
ENDBRANCH  23  24
ENDBRANCH  22  23
ENDBRANCH  21  22
ENDBRANCH  20  21
ENDBRANCH  19  20
ENDBRANCH  13  19
ENDBRANCH  12  13
ENDBRANCH   7  12
ENDBRANCH   2   3
TORSDOF 10
ENDMDL
MODEL      109
REMARK 921   NORMALIZED FREE ENERGY PREDICTED BY IDOCK:   -4.72 KCAL/MOL
REMARK 922        TOTAL FREE ENERGY PREDICTED BY IDOCK:   -8.75 KCAL/MOL
REMARK 923 INTER-LIGAND FREE ENERGY PREDICTED BY IDOCK:   -8.28 KCAL/MOL
REMARK 924 INTRA-LIGAND FREE ENERGY PREDICTED BY IDOCK:   -0.46 KCAL/MOL
REMARK 927      BINDING AFFINITY PREDICTED BY RF-SCORE:    0.00 PKD
ROOT
HETATM    1  C   UNL     1      -8.308  17.274  66.102  1.00  0.00    -0.203 C  
HETATM    2  O   UNL     1      -9.659  17.164  65.680  1.00  0.00    -0.535 OA 
ENDROOT
BRANCH   2   3
HETATM    3  C   UNL     1     -10.373  16.066  66.074  1.00  0.00    -0.351 A  
HETATM    4  C   UNL     1     -10.757  15.700  67.371  1.00  0.00    -0.309 A  
HETATM    5  C   UNL     1     -10.663  15.202  65.012  1.00  0.00    -0.451 A  
HETATM    6  C   UNL     1     -11.401  14.470  67.569  1.00  0.00    -0.355 A  
HETATM    7  C   UNL     1     -11.566  13.531  66.527  1.00  0.00    -0.391 A  
HETATM    8 BR   UNL     1     -11.685  12.943  63.678  1.00  0.00    -0.572 Br 
HETATM    9  C   UNL     1     -11.272  13.964  65.225  1.00  0.00    -0.313 A  
BRANCH   4  10
HETATM   10  O   UNL     1     -10.518  16.552  68.411  1.00  0.00    -0.274 OA 
HETATM   11  C   UNL     1      -9.583  16.092  69.387  1.00  0.00    -0.236 C  
ENDBRANCH   4  10
BRANCH   7  12
HETATM   12  C   UNL     1     -11.902  12.088  66.872  1.00  0.00    -0.173 C  
BRANCH  12  13
HETATM   13  N   UNL     1     -10.642  11.128  66.977  1.00  0.00    -0.239 N  
HETATM   14  O   UNL     1      -7.972  10.648  65.777  1.00  0.00    -0.159 OA 
HETATM   15  C   UNL     1     -10.401  10.396  65.616  1.00  0.00    -0.190 C  
HETATM   16  C   UNL     1      -9.025   9.702  65.593  1.00  0.00    -0.169 C  
HETATM   17  C   UNL     1      -9.395  12.040  67.192  1.00  0.00    -0.187 C  
HETATM   18  C   UNL     1      -8.066  11.297  67.046  1.00  0.00    -0.149 C  
BRANCH  13  19
HETATM   19  C   UNL     1     -10.820  10.094  68.142  1.00  0.00    -0.262 C  
BRANCH  19  20
HETATM   20  C   UNL     1     -11.008  10.805  69.498  1.00  0.00    -0.266 C  
BRANCH  20  21
HETATM   21  O   UNL     1     -10.781   9.978  70.635  1.00  0.00    -0.303 OA 
BRANCH  21  22
HETATM   22  C   UNL     1      -9.447   9.402  70.634  1.00  0.00    -0.262 C  
BRANCH  22  23
HETATM   23  C   UNL     1      -9.144   8.605  71.906  1.00  0.00    -0.326 C  
BRANCH  23  24
HETATM   24  C   UNL     1      -8.717   7.137  71.733  1.00  0.00    -0.121 C  
HETATM   25  C   UNL     1      -9.390   6.588  70.444  1.00  0.00    -0.166 C  
HETATM   26  C   UNL     1     -10.561   5.623  70.675  1.00  0.00    -0.347 C  
HETATM   27  C   UNL     1     -10.509   4.984  72.063  1.00  0.00    -0.269 C  
HETATM   28  C   UNL     1     -10.619   6.107  73.135  1.00  0.00    -0.269 C  
HETATM   29  C   UNL     1      -9.076   6.245  72.950  1.00  0.00    -0.130 C  
HETATM   30  C   UNL     1      -9.089   4.663  72.690  1.00  0.00    -0.140 C  
HETATM   31  C   UNL     1      -7.995   4.069  71.799  1.00  0.00    -0.071 C  
HETATM   32  C   UNL     1      -9.184   3.747  73.931  1.00  0.00    -0.096 C  
ENDBRANCH  23  24
ENDBRANCH  22  23
ENDBRANCH  21  22
ENDBRANCH  20  21
ENDBRANCH  19  20
ENDBRANCH  13  19
ENDBRANCH  12  13
ENDBRANCH   7  12
ENDBRANCH   2   3
TORSDOF 10
ENDMDL
MODEL      110
REMARK 921   NORMALIZED FREE ENERGY PREDICTED BY IDOCK:   -4.70 KCAL/MOL
REMARK 922        TOTAL FREE ENERGY PREDICTED BY IDOCK:   -8.72 KCAL/MOL
REMARK 923 INTER-LIGAND FREE ENERGY PREDICTED BY IDOCK:   -7.89 KCAL/MOL
REMARK 924 INTRA-LIGAND FREE ENERGY PREDICTED BY IDOCK:   -0.83 KCAL/MOL
REMARK 927      BINDING AFFINITY PREDICTED BY RF-SCORE:    0.00 PKD
ROOT
HETATM    1  C   UNL     1     -10.385   5.036  69.640  1.00  0.00    -0.190 C  
HETATM    2  O   UNL     1     -11.061   6.161  70.183  1.00  0.00    -0.323 OA 
ENDROOT
BRANCH   2   3
HETATM    3  C   UNL     1     -10.409   7.361  70.202  1.00  0.00    -0.214 A  
HETATM    4  C   UNL     1     -10.762   8.531  70.889  1.00  0.00    -0.224 A  
HETATM    5  C   UNL     1      -9.298   7.385  69.351  1.00  0.00    -0.155 A  
HETATM    6  C   UNL     1     -10.005   9.694  70.689  1.00  0.00    -0.299 A  
HETATM    7  C   UNL     1      -8.975   9.764  69.724  1.00  0.00    -0.239 A  
HETATM    8 BR   UNL     1      -7.037   8.412  68.023  1.00  0.00    -0.088 Br 
HETATM    9  C   UNL     1      -8.573   8.559  69.131  1.00  0.00    -0.133 A  
BRANCH   4  10
HETATM   10  O   UNL     1     -11.818   8.511  71.755  1.00  0.00    -0.290 OA 
HETATM   11  C   UNL     1     -12.666   9.659  71.724  1.00  0.00    -0.420 C  
ENDBRANCH   4  10
BRANCH   7  12
HETATM   12  C   UNL     1      -8.466  11.126  69.277  1.00  0.00     0.136 C  
BRANCH  12  13
HETATM   13  N   UNL     1      -9.249  11.746  68.042  1.00  0.00    -0.174 N  
HETATM   14  O   UNL     1     -11.996  12.234  67.033  1.00  0.00    -0.576 OA 
HETATM   15  C   UNL     1     -10.152  10.660  67.370  1.00  0.00    -0.194 C  
HETATM   16  C   UNL     1     -11.142  11.297  66.375  1.00  0.00    -0.193 C  
HETATM   17  C   UNL     1     -10.231  12.812  68.619  1.00  0.00    -0.152 C  
HETATM   18  C   UNL     1     -11.251  13.314  67.596  1.00  0.00    -0.280 C  
BRANCH  13  19
HETATM   19  C   UNL     1      -8.255  12.366  67.002  1.00  0.00    -0.141 C  
BRANCH  19  20
HETATM   20  C   UNL     1      -6.821  12.430  67.566  1.00  0.00    -0.143 C  
BRANCH  20  21
HETATM   21  O   UNL     1      -6.143  13.658  67.321  1.00  0.00    -0.324 OA 
BRANCH  21  22
HETATM   22  C   UNL     1      -6.831  14.790  67.919  1.00  0.00    -0.160 C  
BRANCH  22  23
HETATM   23  C   UNL     1      -6.513  16.114  67.219  1.00  0.00    -0.216 C  
BRANCH  23  24
HETATM   24  C   UNL     1      -7.699  17.035  66.881  1.00  0.00    -0.251 C  
HETATM   25  C   UNL     1      -7.195  18.124  65.892  1.00  0.00    -0.275 C  
HETATM   26  C   UNL     1      -7.019  19.525  66.494  1.00  0.00    -0.223 C  
HETATM   27  C   UNL     1      -7.847  19.709  67.767  1.00  0.00    -0.325 C  
HETATM   28  C   UNL     1      -7.361  18.684  68.833  1.00  0.00    -0.301 C  
HETATM   29  C   UNL     1      -8.340  17.695  68.129  1.00  0.00    -0.259 C  
HETATM   30  C   UNL     1      -9.254  18.985  67.858  1.00  0.00    -0.345 C  
HETATM   31  C   UNL     1     -10.171  18.975  66.633  1.00  0.00    -0.475 C  
HETATM   32  C   UNL     1     -10.109  19.501  69.038  1.00  0.00    -0.444 C  
ENDBRANCH  23  24
ENDBRANCH  22  23
ENDBRANCH  21  22
ENDBRANCH  20  21
ENDBRANCH  19  20
ENDBRANCH  13  19
ENDBRANCH  12  13
ENDBRANCH   7  12
ENDBRANCH   2   3
TORSDOF 10
ENDMDL
MODEL      111
REMARK 921   NORMALIZED FREE ENERGY PREDICTED BY IDOCK:   -4.64 KCAL/MOL
REMARK 922        TOTAL FREE ENERGY PREDICTED BY IDOCK:   -8.62 KCAL/MOL
REMARK 923 INTER-LIGAND FREE ENERGY PREDICTED BY IDOCK:   -7.95 KCAL/MOL
REMARK 924 INTRA-LIGAND FREE ENERGY PREDICTED BY IDOCK:   -0.68 KCAL/MOL
REMARK 927      BINDING AFFINITY PREDICTED BY RF-SCORE:    0.00 PKD
ROOT
HETATM    1  C   UNL     1     -12.226  15.663  71.469  1.00  0.00    -0.424 C  
HETATM    2  O   UNL     1     -12.538  14.296  71.692  1.00  0.00    -0.329 OA 
ENDROOT
BRANCH   2   3
HETATM    3  C   UNL     1     -12.409  13.424  70.648  1.00  0.00    -0.348 A  
HETATM    4  C   UNL     1     -12.470  12.024  70.673  1.00  0.00    -0.247 A  
HETATM    5  C   UNL     1     -12.105  14.067  69.442  1.00  0.00    -0.386 A  
HETATM    6  C   UNL     1     -12.205  11.309  69.496  1.00  0.00    -0.325 A  
HETATM    7  C   UNL     1     -11.757  11.943  68.316  1.00  0.00    -0.385 A  
HETATM    8 BR   UNL     1     -11.506  14.356  66.706  1.00  0.00    -0.397 Br 
HETATM    9  C   UNL     1     -11.807  13.344  68.285  1.00  0.00    -0.358 A  
BRANCH   4  10
HETATM   10  O   UNL     1     -12.806  11.385  71.832  1.00  0.00    -0.396 OA 
HETATM   11  C   UNL     1     -13.186  10.015  71.696  1.00  0.00    -0.419 C  
ENDBRANCH   4  10
BRANCH   7  12
HETATM   12  C   UNL     1     -11.117  11.106  67.219  1.00  0.00    -0.302 C  
BRANCH  12  13
HETATM   13  N   UNL     1      -9.581  10.779  67.453  1.00  0.00    -0.158 N  
HETATM   14  O   UNL     1      -6.869  11.897  67.012  1.00  0.00    -0.144 OA 
HETATM   15  C   UNL     1      -8.819  10.743  66.088  1.00  0.00    -0.177 C  
HETATM   16  C   UNL     1      -7.292  10.733  66.302  1.00  0.00    -0.138 C  
HETATM   17  C   UNL     1      -8.978  11.984  68.240  1.00  0.00    -0.186 C  
HETATM   18  C   UNL     1      -7.450  11.957  68.315  1.00  0.00    -0.104 C  
BRANCH  13  19
HETATM   19  C   UNL     1      -9.406   9.427  68.226  1.00  0.00    -0.133 C  
BRANCH  19  20
HETATM   20  C   UNL     1      -9.450   8.222  67.264  1.00  0.00    -0.151 C  
BRANCH  20  21
HETATM   21  O   UNL     1     -10.761   7.788  66.919  1.00  0.00    -0.345 OA 
BRANCH  21  22
HETATM   22  C   UNL     1     -11.035   6.444  67.398  1.00  0.00    -0.376 C  
BRANCH  22  23
HETATM   23  C   UNL     1      -9.823   5.796  68.072  1.00  0.00    -0.155 C  
BRANCH  23  24
HETATM   24  C   UNL     1      -9.982   5.360  69.540  1.00  0.00    -0.289 C  
HETATM   25  C   UNL     1      -9.057   6.256  70.411  1.00  0.00    -0.157 C  
HETATM   26  C   UNL     1      -7.791   5.571  70.942  1.00  0.00    -0.104 C  
HETATM   27  C   UNL     1      -7.931   4.049  70.965  1.00  0.00    -0.063 C  
HETATM   28  C   UNL     1      -8.153   3.544  69.510  1.00  0.00    -0.064 C  
HETATM   29  C   UNL     1      -9.657   3.862  69.774  1.00  0.00    -0.271 C  
HETATM   30  C   UNL     1      -9.355   3.431  71.289  1.00  0.00    -0.208 C  
HETATM   31  C   UNL     1     -10.205   4.053  72.400  1.00  0.00    -0.232 C  
HETATM   32  C   UNL     1      -9.288   1.916  71.589  1.00  0.00    -0.174 C  
ENDBRANCH  23  24
ENDBRANCH  22  23
ENDBRANCH  21  22
ENDBRANCH  20  21
ENDBRANCH  19  20
ENDBRANCH  13  19
ENDBRANCH  12  13
ENDBRANCH   7  12
ENDBRANCH   2   3
TORSDOF 10
ENDMDL
MODEL      112
REMARK 921   NORMALIZED FREE ENERGY PREDICTED BY IDOCK:   -4.63 KCAL/MOL
REMARK 922        TOTAL FREE ENERGY PREDICTED BY IDOCK:   -8.62 KCAL/MOL
REMARK 923 INTER-LIGAND FREE ENERGY PREDICTED BY IDOCK:   -8.38 KCAL/MOL
REMARK 924 INTRA-LIGAND FREE ENERGY PREDICTED BY IDOCK:   -0.23 KCAL/MOL
REMARK 927      BINDING AFFINITY PREDICTED BY RF-SCORE:    0.00 PKD
ROOT
HETATM    1  C   UNL     1      -9.718   7.604  72.632  1.00  0.00    -0.196 C  
HETATM    2  O   UNL     1     -10.019   8.931  72.226  1.00  0.00    -0.292 OA 
ENDROOT
BRANCH   2   3
HETATM    3  C   UNL     1     -10.095   9.198  70.888  1.00  0.00    -0.287 A  
HETATM    4  C   UNL     1     -11.044   9.974  70.210  1.00  0.00    -0.318 A  
HETATM    5  C   UNL     1      -9.118   8.523  70.147  1.00  0.00    -0.154 A  
HETATM    6  C   UNL     1     -11.000  10.035  68.810  1.00  0.00    -0.242 A  
HETATM    7  C   UNL     1     -10.110   9.243  68.050  1.00  0.00    -0.234 A  
HETATM    8 BR   UNL     1      -7.665   7.672  67.890  1.00  0.00    -0.117 Br 
HETATM    9  C   UNL     1      -9.106   8.561  68.751  1.00  0.00    -0.143 A  
BRANCH   4  10
HETATM   10  O   UNL     1     -11.977  10.671  70.922  1.00  0.00    -0.332 OA 
HETATM   11  C   UNL     1     -13.173   9.958  71.243  1.00  0.00    -0.383 C  
ENDBRANCH   4  10
BRANCH   7  12
HETATM   12  C   UNL     1     -10.369   9.052  66.564  1.00  0.00    -0.193 C  
BRANCH  12  13
HETATM   13  N   UNL     1      -9.693  10.147  65.633  1.00  0.00    -0.239 N  
HETATM   14  O   UNL     1      -9.774  11.228  62.872  1.00  0.00    -0.339 OA 
HETATM   15  C   UNL     1      -9.020   9.467  64.396  1.00  0.00    -0.212 C  
HETATM   16  C   UNL     1      -8.627  10.512  63.332  1.00  0.00    -0.172 C  
HETATM   17  C   UNL     1     -10.846  11.025  65.057  1.00  0.00    -0.123 C  
HETATM   18  C   UNL     1     -10.395  11.957  63.931  1.00  0.00    -0.389 C  
BRANCH  13  19
HETATM   19  C   UNL     1      -8.652  11.000  66.435  1.00  0.00    -0.165 C  
BRANCH  19  20
HETATM   20  C   UNL     1      -9.320  12.219  67.102  1.00  0.00    -0.196 C  
BRANCH  20  21
HETATM   21  O   UNL     1      -8.753  13.475  66.743  1.00  0.00    -0.188 OA 
BRANCH  21  22
HETATM   22  C   UNL     1      -9.764  14.509  66.595  1.00  0.00    -0.273 C  
BRANCH  22  23
HETATM   23  C   UNL     1      -9.247  15.740  65.847  1.00  0.00    -0.337 C  
BRANCH  23  24
HETATM   24  C   UNL     1      -8.615  16.864  66.689  1.00  0.00    -0.281 C  
HETATM   25  C   UNL     1      -8.667  16.433  68.182  1.00  0.00    -0.191 C  
HETATM   26  C   UNL     1      -9.713  17.160  69.038  1.00  0.00    -0.212 C  
HETATM   27  C   UNL     1     -10.127  18.497  68.422  1.00  0.00    -0.423 C  
HETATM   28  C   UNL     1     -10.775  18.228  67.033  1.00  0.00    -0.305 C  
HETATM   29  C   UNL     1      -9.309  18.237  66.500  1.00  0.00    -0.306 C  
HETATM   30  C   UNL     1      -9.032  19.333  67.637  1.00  0.00    -0.346 C  
HETATM   31  C   UNL     1      -7.617  19.436  68.211  1.00  0.00    -0.345 C  
HETATM   32  C   UNL     1      -9.491  20.780  67.346  1.00  0.00    -0.451 C  
ENDBRANCH  23  24
ENDBRANCH  22  23
ENDBRANCH  21  22
ENDBRANCH  20  21
ENDBRANCH  19  20
ENDBRANCH  13  19
ENDBRANCH  12  13
ENDBRANCH   7  12
ENDBRANCH   2   3
TORSDOF 10
ENDMDL
MODEL      113
REMARK 921   NORMALIZED FREE ENERGY PREDICTED BY IDOCK:   -4.62 KCAL/MOL
REMARK 922        TOTAL FREE ENERGY PREDICTED BY IDOCK:   -8.59 KCAL/MOL
REMARK 923 INTER-LIGAND FREE ENERGY PREDICTED BY IDOCK:   -6.92 KCAL/MOL
REMARK 924 INTRA-LIGAND FREE ENERGY PREDICTED BY IDOCK:   -1.67 KCAL/MOL
REMARK 927      BINDING AFFINITY PREDICTED BY RF-SCORE:    0.00 PKD
ROOT
HETATM    1  C   UNL     1      -6.124   7.389  65.378  1.00  0.00    -0.038 C  
HETATM    2  O   UNL     1      -6.439   6.348  66.292  1.00  0.00    -0.040 OA 
ENDROOT
BRANCH   2   3
HETATM    3  C   UNL     1      -7.408   6.579  67.228  1.00  0.00    -0.087 A  
HETATM    4  C   UNL     1      -8.568   5.834  67.479  1.00  0.00    -0.105 A  
HETATM    5  C   UNL     1      -7.195   7.763  67.944  1.00  0.00    -0.090 A  
HETATM    6  C   UNL     1      -9.490   6.306  68.423  1.00  0.00    -0.118 A  
HETATM    7  C   UNL     1      -9.354   7.570  69.041  1.00  0.00    -0.146 A  
HETATM    8 BR   UNL     1      -7.667   9.813  69.815  1.00  0.00    -0.165 Br 
HETATM    9  C   UNL     1      -8.138   8.244  68.855  1.00  0.00    -0.115 A  
BRANCH   4  10
HETATM   10  O   UNL     1      -8.767   4.656  66.819  1.00  0.00    -0.111 OA 
HETATM   11  C   UNL     1      -9.927   4.600  65.988  1.00  0.00    -0.244 C  
ENDBRANCH   4  10
BRANCH   7  12
HETATM   12  C   UNL     1     -10.556   8.191  69.736  1.00  0.00    -0.231 C  
BRANCH  12  13
HETATM   13  N   UNL     1     -10.792   7.682  71.221  1.00  0.00    -0.230 N  
HETATM   14  O   UNL     1     -10.304   5.350  72.989  1.00  0.00    -0.178 OA 
HETATM   15  C   UNL     1     -11.647   6.372  71.216  1.00  0.00    -0.311 C  
HETATM   16  C   UNL     1     -11.634   5.693  72.600  1.00  0.00    -0.251 C  
HETATM   17  C   UNL     1      -9.397   7.272  71.786  1.00  0.00    -0.149 C  
HETATM   18  C   UNL     1      -9.478   6.508  73.109  1.00  0.00    -0.145 C  
BRANCH  13  19
HETATM   19  C   UNL     1     -11.476   8.790  72.092  1.00  0.00    -0.351 C  
BRANCH  19  20
HETATM   20  C   UNL     1     -12.926   9.048  71.634  1.00  0.00    -0.361 C  
BRANCH  20  21
HETATM   21  O   UNL     1     -13.256  10.423  71.465  1.00  0.00    -0.391 OA 
BRANCH  21  22
HETATM   22  C   UNL     1     -12.171  11.175  70.859  1.00  0.00    -0.364 C  
BRANCH  22  23
HETATM   23  C   UNL     1     -12.379  11.414  69.361  1.00  0.00    -0.184 C  
BRANCH  23  24
HETATM   24  C   UNL     1     -11.315  12.248  68.625  1.00  0.00    -0.339 C  
HETATM   25  C   UNL     1     -12.024  13.037  67.489  1.00  0.00    -0.360 C  
HETATM   26  C   UNL     1     -11.771  12.513  66.069  1.00  0.00    -0.472 C  
HETATM   27  C   UNL     1     -10.493  11.676  65.988  1.00  0.00    -0.294 C  
HETATM   28  C   UNL     1     -10.647  10.437  66.917  1.00  0.00    -0.293 C  
HETATM   29  C   UNL     1     -10.157  11.394  68.047  1.00  0.00    -0.193 C  
HETATM   30  C   UNL     1      -9.268  12.087  66.906  1.00  0.00    -0.197 C  
HETATM   31  C   UNL     1      -8.915  13.568  67.065  1.00  0.00    -0.237 C  
HETATM   32  C   UNL     1      -7.960  11.369  66.501  1.00  0.00    -0.128 C  
ENDBRANCH  23  24
ENDBRANCH  22  23
ENDBRANCH  21  22
ENDBRANCH  20  21
ENDBRANCH  19  20
ENDBRANCH  13  19
ENDBRANCH  12  13
ENDBRANCH   7  12
ENDBRANCH   2   3
TORSDOF 10
ENDMDL
MODEL      114
REMARK 921   NORMALIZED FREE ENERGY PREDICTED BY IDOCK:   -4.62 KCAL/MOL
REMARK 922        TOTAL FREE ENERGY PREDICTED BY IDOCK:   -8.59 KCAL/MOL
REMARK 923 INTER-LIGAND FREE ENERGY PREDICTED BY IDOCK:   -7.16 KCAL/MOL
REMARK 924 INTRA-LIGAND FREE ENERGY PREDICTED BY IDOCK:   -1.42 KCAL/MOL
REMARK 927      BINDING AFFINITY PREDICTED BY RF-SCORE:    0.00 PKD
ROOT
HETATM    1  C   UNL     1      -9.345   8.212  72.448  1.00  0.00    -0.240 C  
HETATM    2  O   UNL     1      -8.571   8.337  71.263  1.00  0.00    -0.125 OA 
ENDROOT
BRANCH   2   3
HETATM    3  C   UNL     1      -8.896   9.328  70.379  1.00  0.00    -0.234 A  
HETATM    4  C   UNL     1      -8.048  10.033  69.515  1.00  0.00    -0.161 A  
HETATM    5  C   UNL     1     -10.247   9.690  70.446  1.00  0.00    -0.348 A  
HETATM    6  C   UNL     1      -8.572  11.091  68.759  1.00  0.00    -0.144 A  
HETATM    7  C   UNL     1      -9.896  11.554  68.930  1.00  0.00    -0.091 A  
HETATM    8 BR   UNL     1     -12.620  11.079  69.841  1.00  0.00    -0.094 Br 
HETATM    9  C   UNL     1     -10.750  10.769  69.717  1.00  0.00    -0.186 A  
BRANCH   4  10
HETATM   10  O   UNL     1      -6.737   9.664  69.408  1.00  0.00    -0.050 OA 
HETATM   11  C   UNL     1      -5.801  10.500  70.089  1.00  0.00    -0.080 C  
ENDBRANCH   4  10
BRANCH   7  12
HETATM   12  C   UNL     1     -10.280  12.923  68.390  1.00  0.00    -0.237 C  
BRANCH  12  13
HETATM   13  N   UNL     1     -10.905  12.902  66.930  1.00  0.00    -0.254 N  
HETATM   14  O   UNL     1     -11.831  14.709  64.767  1.00  0.00    -0.404 OA 
HETATM   15  C   UNL     1     -12.286  13.636  66.919  1.00  0.00    -0.352 C  
HETATM   16  C   UNL     1     -12.766  13.897  65.478  1.00  0.00    -0.499 C  
HETATM   17  C   UNL     1      -9.966  13.758  66.025  1.00  0.00    -0.306 C  
HETATM   18  C   UNL     1     -10.562  14.065  64.650  1.00  0.00    -0.395 C  
BRANCH  13  19
HETATM   19  C   UNL     1     -11.049  11.434  66.403  1.00  0.00    -0.240 C  
BRANCH  19  20
HETATM   20  C   UNL     1      -9.872  11.051  65.482  1.00  0.00    -0.243 C  
BRANCH  20  21
HETATM   21  O   UNL     1      -9.946   9.734  64.945  1.00  0.00    -0.252 OA 
BRANCH  21  22
HETATM   22  C   UNL     1      -9.215   8.773  65.753  1.00  0.00    -0.206 C  
BRANCH  22  23
HETATM   23  C   UNL     1     -10.086   8.118  66.829  1.00  0.00    -0.365 C  
BRANCH  23  24
HETATM   24  C   UNL     1     -10.040   6.583  66.935  1.00  0.00    -0.253 C  
HETATM   25  C   UNL     1     -10.934   6.157  68.133  1.00  0.00    -0.398 C  
HETATM   26  C   UNL     1     -10.177   5.695  69.386  1.00  0.00    -0.315 C  
HETATM   27  C   UNL     1      -8.752   5.245  69.059  1.00  0.00    -0.104 C  
HETATM   28  C   UNL     1      -7.970   6.453  68.466  1.00  0.00    -0.106 C  
HETATM   29  C   UNL     1      -8.605   6.021  67.108  1.00  0.00    -0.106 C  
HETATM   30  C   UNL     1      -8.493   4.525  67.671  1.00  0.00    -0.103 C  
HETATM   31  C   UNL     1      -9.499   3.486  67.168  1.00  0.00    -0.219 C  
HETATM   32  C   UNL     1      -7.103   3.851  67.606  1.00  0.00    -0.056 C  
ENDBRANCH  23  24
ENDBRANCH  22  23
ENDBRANCH  21  22
ENDBRANCH  20  21
ENDBRANCH  19  20
ENDBRANCH  13  19
ENDBRANCH  12  13
ENDBRANCH   7  12
ENDBRANCH   2   3
TORSDOF 10
ENDMDL
MODEL      115
REMARK 921   NORMALIZED FREE ENERGY PREDICTED BY IDOCK:   -4.59 KCAL/MOL
REMARK 922        TOTAL FREE ENERGY PREDICTED BY IDOCK:   -8.55 KCAL/MOL
REMARK 923 INTER-LIGAND FREE ENERGY PREDICTED BY IDOCK:   -7.64 KCAL/MOL
REMARK 924 INTRA-LIGAND FREE ENERGY PREDICTED BY IDOCK:   -0.91 KCAL/MOL
REMARK 927      BINDING AFFINITY PREDICTED BY RF-SCORE:    0.00 PKD
ROOT
HETATM    1  C   UNL     1      -7.964   9.596  70.121  1.00  0.00    -0.176 C  
HETATM    2  O   UNL     1      -7.073  10.040  69.108  1.00  0.00    -0.061 OA 
ENDROOT
BRANCH   2   3
HETATM    3  C   UNL     1      -7.031  11.376  68.822  1.00  0.00    -0.097 A  
HETATM    4  C   UNL     1      -7.492  12.033  67.674  1.00  0.00    -0.132 A  
HETATM    5  C   UNL     1      -6.366  12.117  69.806  1.00  0.00    -0.102 A  
HETATM    6  C   UNL     1      -7.257  13.408  67.534  1.00  0.00    -0.163 A  
HETATM    7  C   UNL     1      -6.462  14.131  68.451  1.00  0.00    -0.103 A  
HETATM    8 BR   UNL     1      -5.276  14.368  71.100  1.00  0.00    -0.156 Br 
HETATM    9  C   UNL     1      -6.105  13.479  69.640  1.00  0.00    -0.121 A  
BRANCH   4  10
HETATM   10  O   UNL     1      -8.180  11.331  66.725  1.00  0.00    -0.147 OA 
HETATM   11  C   UNL     1      -7.379  10.611  65.787  1.00  0.00    -0.110 C  
ENDBRANCH   4  10
BRANCH   7  12
HETATM   12  C   UNL     1      -5.919  15.495  68.051  1.00  0.00    -0.139 C  
BRANCH  12  13
HETATM   13  N   UNL     1      -6.946  16.691  68.237  1.00  0.00    -0.151 N  
HETATM   14  O   UNL     1      -7.532  19.431  67.260  1.00  0.00    -0.226 OA 
HETATM   15  C   UNL     1      -6.199  17.980  68.712  1.00  0.00    -0.210 C  
HETATM   16  C   UNL     1      -7.106  19.222  68.607  1.00  0.00    -0.322 C  
HETATM   17  C   UNL     1      -7.509  17.028  66.821  1.00  0.00    -0.231 C  
HETATM   18  C   UNL     1      -8.307  18.332  66.779  1.00  0.00    -0.255 C  
BRANCH  13  19
HETATM   19  C   UNL     1      -8.084  16.304  69.242  1.00  0.00    -0.157 C  
BRANCH  19  20
HETATM   20  C   UNL     1      -9.475  16.416  68.586  1.00  0.00    -0.239 C  
BRANCH  20  21
HETATM   21  O   UNL     1     -10.511  15.721  69.272  1.00  0.00    -0.214 OA 
BRANCH  21  22
HETATM   22  C   UNL     1     -10.429  14.284  69.073  1.00  0.00    -0.204 C  
BRANCH  22  23
HETATM   23  C   UNL     1     -11.481  13.760  68.093  1.00  0.00    -0.348 C  
BRANCH  23  24
HETATM   24  C   UNL     1     -10.989  13.299  66.709  1.00  0.00    -0.302 C  
HETATM   25  C   UNL     1     -10.289  14.505  66.022  1.00  0.00    -0.320 C  
HETATM   26  C   UNL     1     -11.083  15.165  64.886  1.00  0.00    -0.425 C  
HETATM   27  C   UNL     1     -12.137  14.222  64.304  1.00  0.00    -0.467 C  
HETATM   28  C   UNL     1     -13.153  13.854  65.424  1.00  0.00    -0.236 C  
HETATM   29  C   UNL     1     -12.122  12.748  65.806  1.00  0.00    -0.505 C  
HETATM   30  C   UNL     1     -11.804  12.674  64.236  1.00  0.00    -0.462 C  
HETATM   31  C   UNL     1     -10.405  12.227  63.803  1.00  0.00    -0.464 C  
HETATM   32  C   UNL     1     -12.803  11.893  63.352  1.00  0.00    -0.393 C  
ENDBRANCH  23  24
ENDBRANCH  22  23
ENDBRANCH  21  22
ENDBRANCH  20  21
ENDBRANCH  19  20
ENDBRANCH  13  19
ENDBRANCH  12  13
ENDBRANCH   7  12
ENDBRANCH   2   3
TORSDOF 10
ENDMDL
MODEL      116
REMARK 921   NORMALIZED FREE ENERGY PREDICTED BY IDOCK:   -4.56 KCAL/MOL
REMARK 922        TOTAL FREE ENERGY PREDICTED BY IDOCK:   -8.50 KCAL/MOL
REMARK 923 INTER-LIGAND FREE ENERGY PREDICTED BY IDOCK:   -6.87 KCAL/MOL
REMARK 924 INTRA-LIGAND FREE ENERGY PREDICTED BY IDOCK:   -1.63 KCAL/MOL
REMARK 927      BINDING AFFINITY PREDICTED BY RF-SCORE:    0.00 PKD
ROOT
HETATM    1  C   UNL     1     -12.148  14.607  70.192  1.00  0.00    -0.327 C  
HETATM    2  O   UNL     1     -12.055  13.703  69.101  1.00  0.00    -0.345 OA 
ENDROOT
BRANCH   2   3
HETATM    3  C   UNL     1     -11.574  12.446  69.341  1.00  0.00    -0.307 A  
HETATM    4  C   UNL     1     -10.524  11.780  68.694  1.00  0.00    -0.222 A  
HETATM    5  C   UNL     1     -12.311  11.763  70.315  1.00  0.00    -0.320 A  
HETATM    6  C   UNL     1     -10.257  10.445  69.027  1.00  0.00    -0.233 A  
HETATM    7  C   UNL     1     -11.087   9.707  69.901  1.00  0.00    -0.268 A  
HETATM    8 BR   UNL     1     -13.081   9.659  72.021  1.00  0.00    -0.544 Br 
HETATM    9  C   UNL     1     -12.060  10.422  70.612  1.00  0.00    -0.348 A  
BRANCH   4  10
HETATM   10  O   UNL     1      -9.769  12.447  67.772  1.00  0.00    -0.190 OA 
HETATM   11  C   UNL     1      -8.633  13.141  68.288  1.00  0.00    -0.166 C  
ENDBRANCH   4  10
BRANCH   7  12
HETATM   12  C   UNL     1     -10.988   8.189  69.916  1.00  0.00    -0.168 C  
BRANCH  12  13
HETATM   13  N   UNL     1      -9.935   7.609  70.953  1.00  0.00    -0.181 N  
HETATM   14  O   UNL     1      -9.630   6.917  73.822  1.00  0.00    -0.180 OA 
HETATM   15  C   UNL     1      -9.665   8.647  72.091  1.00  0.00    -0.313 C  
HETATM   16  C   UNL     1      -8.894   8.004  73.260  1.00  0.00    -0.265 C  
HETATM   17  C   UNL     1     -10.611   6.387  71.648  1.00  0.00    -0.222 C  
HETATM   18  C   UNL     1      -9.838   5.876  72.865  1.00  0.00    -0.167 C  
BRANCH  13  19
HETATM   19  C   UNL     1      -8.601   7.210  70.234  1.00  0.00    -0.143 C  
BRANCH  19  20
HETATM   20  C   UNL     1      -8.876   6.525  68.880  1.00  0.00    -0.126 C  
BRANCH  20  21
HETATM   21  O   UNL     1      -7.737   5.911  68.286  1.00  0.00    -0.097 OA 
BRANCH  21  22
HETATM   22  C   UNL     1      -7.901   5.727  66.853  1.00  0.00    -0.101 C  
BRANCH  22  23
HETATM   23  C   UNL     1      -8.720   6.844  66.202  1.00  0.00    -0.153 C  
BRANCH  23  24
HETATM   24  C   UNL     1      -7.965   7.834  65.295  1.00  0.00    -0.127 C  
HETATM   25  C   UNL     1      -7.039   8.700  66.195  1.00  0.00    -0.084 C  
HETATM   26  C   UNL     1      -7.506  10.146  66.416  1.00  0.00    -0.108 C  
HETATM   27  C   UNL     1      -8.471  10.609  65.324  1.00  0.00    -0.152 C  
HETATM   28  C   UNL     1      -9.737   9.705  65.359  1.00  0.00    -0.365 C  
HETATM   29  C   UNL     1      -8.905   8.740  64.459  1.00  0.00    -0.011 C  
HETATM   30  C   UNL     1      -8.250  10.070  63.850  1.00  0.00    -0.159 C  
HETATM   31  C   UNL     1      -6.828   9.983  63.290  1.00  0.00    -0.131 C  
HETATM   32  C   UNL     1      -9.081  10.850  62.806  1.00  0.00    -0.351 C  
ENDBRANCH  23  24
ENDBRANCH  22  23
ENDBRANCH  21  22
ENDBRANCH  20  21
ENDBRANCH  19  20
ENDBRANCH  13  19
ENDBRANCH  12  13
ENDBRANCH   7  12
ENDBRANCH   2   3
TORSDOF 10
ENDMDL
MODEL      117
REMARK 921   NORMALIZED FREE ENERGY PREDICTED BY IDOCK:   -4.55 KCAL/MOL
REMARK 922        TOTAL FREE ENERGY PREDICTED BY IDOCK:   -8.48 KCAL/MOL
REMARK 923 INTER-LIGAND FREE ENERGY PREDICTED BY IDOCK:   -7.97 KCAL/MOL
REMARK 924 INTRA-LIGAND FREE ENERGY PREDICTED BY IDOCK:   -0.51 KCAL/MOL
REMARK 927      BINDING AFFINITY PREDICTED BY RF-SCORE:    0.00 PKD
ROOT
HETATM    1  C   UNL     1      -5.562  14.070  71.018  1.00  0.00    -0.199 C  
HETATM    2  O   UNL     1      -5.950  15.110  70.131  1.00  0.00    -0.133 OA 
ENDROOT
BRANCH   2   3
HETATM    3  C   UNL     1      -6.965  14.865  69.250  1.00  0.00    -0.151 A  
HETATM    4  C   UNL     1      -6.884  14.319  67.962  1.00  0.00    -0.144 A  
HETATM    5  C   UNL     1      -8.208  15.303  69.723  1.00  0.00    -0.009 A  
HETATM    6  C   UNL     1      -8.044  14.248  67.178  1.00  0.00    -0.154 A  
HETATM    7  C   UNL     1      -9.268  14.819  67.592  1.00  0.00    -0.191 A  
HETATM    8 BR   UNL     1     -10.978  15.805  69.733  1.00  0.00    -0.351 Br 
HETATM    9  C   UNL     1      -9.349  15.261  68.920  1.00  0.00    -0.213 A  
BRANCH   4  10
HETATM   10  O   UNL     1      -5.687  13.849  67.503  1.00  0.00    -0.338 OA 
HETATM   11  C   UNL     1      -5.600  12.433  67.337  1.00  0.00    -0.126 C  
ENDBRANCH   4  10
BRANCH   7  12
HETATM   12  C   UNL     1     -10.362  15.061  66.563  1.00  0.00    -0.284 C  
BRANCH  12  13
HETATM   13  N   UNL     1     -10.919  13.743  65.874  1.00  0.00    -0.282 N  
HETATM   14  O   UNL     1     -12.176  12.780  63.365  1.00  0.00    -0.550 OA 
HETATM   15  C   UNL     1     -12.432  13.913  65.520  1.00  0.00    -0.511 C  
HETATM   16  C   UNL     1     -12.916  12.785  64.587  1.00  0.00    -0.146 C  
HETATM   17  C   UNL     1     -10.179  13.601  64.507  1.00  0.00    -0.224 C  
HETATM   18  C   UNL     1     -10.788  12.534  63.596  1.00  0.00    -0.441 C  
BRANCH  13  19
HETATM   19  C   UNL     1     -10.698  12.493  66.793  1.00  0.00    -0.236 C  
BRANCH  19  20
HETATM   20  C   UNL     1     -11.765  12.419  67.904  1.00  0.00    -0.360 C  
BRANCH  20  21
HETATM   21  O   UNL     1     -12.126  11.097  68.289  1.00  0.00    -0.620 OA 
BRANCH  21  22
HETATM   22  C   UNL     1     -10.962  10.256  68.514  1.00  0.00    -0.247 C  
BRANCH  22  23
HETATM   23  C   UNL     1     -10.769   9.205  67.419  1.00  0.00    -0.247 C  
BRANCH  23  24
HETATM   24  C   UNL     1      -9.658   8.160  67.631  1.00  0.00    -0.186 C  
HETATM   25  C   UNL     1      -9.868   7.018  66.598  1.00  0.00    -0.223 C  
HETATM   26  C   UNL     1     -10.421   5.707  67.173  1.00  0.00    -0.334 C  
HETATM   27  C   UNL     1     -10.168   5.591  68.677  1.00  0.00    -0.261 C  
HETATM   28  C   UNL     1     -10.903   6.757  69.399  1.00  0.00    -0.312 C  
HETATM   29  C   UNL     1      -9.622   7.585  69.070  1.00  0.00    -0.153 C  
HETATM   30  C   UNL     1      -8.829   6.205  69.262  1.00  0.00    -0.124 C  
HETATM   31  C   UNL     1      -7.519   6.012  68.494  1.00  0.00    -0.087 C  
HETATM   32  C   UNL     1      -8.555   5.747  70.713  1.00  0.00    -0.129 C  
ENDBRANCH  23  24
ENDBRANCH  22  23
ENDBRANCH  21  22
ENDBRANCH  20  21
ENDBRANCH  19  20
ENDBRANCH  13  19
ENDBRANCH  12  13
ENDBRANCH   7  12
ENDBRANCH   2   3
TORSDOF 10
ENDMDL
MODEL      118
REMARK 921   NORMALIZED FREE ENERGY PREDICTED BY IDOCK:   -4.55 KCAL/MOL
REMARK 922        TOTAL FREE ENERGY PREDICTED BY IDOCK:   -8.48 KCAL/MOL
REMARK 923 INTER-LIGAND FREE ENERGY PREDICTED BY IDOCK:   -7.57 KCAL/MOL
REMARK 924 INTRA-LIGAND FREE ENERGY PREDICTED BY IDOCK:   -0.91 KCAL/MOL
REMARK 927      BINDING AFFINITY PREDICTED BY RF-SCORE:    0.00 PKD
ROOT
HETATM    1  C   UNL     1      -9.833   4.299  70.717  1.00  0.00    -0.195 C  
HETATM    2  O   UNL     1      -9.916   5.368  71.649  1.00  0.00    -0.173 OA 
ENDROOT
BRANCH   2   3
HETATM    3  C   UNL     1      -9.965   6.646  71.165  1.00  0.00    -0.182 A  
HETATM    4  C   UNL     1     -11.050   7.310  70.576  1.00  0.00    -0.267 A  
HETATM    5  C   UNL     1      -8.727   7.295  71.228  1.00  0.00    -0.127 A  
HETATM    6  C   UNL     1     -10.857   8.594  70.049  1.00  0.00    -0.226 A  
HETATM    7  C   UNL     1      -9.581   9.195  69.978  1.00  0.00    -0.218 A  
HETATM    8 BR   UNL     1      -6.827   9.349  70.913  1.00  0.00    -0.076 Br 
HETATM    9  C   UNL     1      -8.537   8.559  70.667  1.00  0.00    -0.148 A  
BRANCH   4  10
HETATM   10  O   UNL     1     -12.274   6.706  70.545  1.00  0.00    -0.364 OA 
HETATM   11  C   UNL     1     -13.241   7.218  71.463  1.00  0.00    -0.379 C  
ENDBRANCH   4  10
BRANCH   7  12
HETATM   12  C   UNL     1      -9.370  10.388  69.059  1.00  0.00    -0.194 C  
BRANCH  12  13
HETATM   13  N   UNL     1      -9.273  10.021  67.517  1.00  0.00    -0.137 N  
HETATM   14  O   UNL     1      -7.330   9.168  65.444  1.00  0.00    -0.087 OA 
HETATM   15  C   UNL     1      -8.273  10.980  66.793  1.00  0.00    -0.149 C  
HETATM   16  C   UNL     1      -7.928  10.463  65.381  1.00  0.00    -0.147 C  
HETATM   17  C   UNL     1      -8.633   8.601  67.430  1.00  0.00    -0.134 C  
HETATM   18  C   UNL     1      -8.221   8.207  66.011  1.00  0.00    -0.121 C  
BRANCH  13  19
HETATM   19  C   UNL     1     -10.684  10.071  66.839  1.00  0.00    -0.140 C  
BRANCH  19  20
HETATM   20  C   UNL     1     -11.260  11.502  66.847  1.00  0.00    -0.298 C  
BRANCH  20  21
HETATM   21  O   UNL     1     -12.121  11.800  65.753  1.00  0.00    -0.357 OA 
BRANCH  21  22
HETATM   22  C   UNL     1     -12.261  13.231  65.542  1.00  0.00    -0.457 C  
BRANCH  22  23
HETATM   23  C   UNL     1     -10.914  13.952  65.448  1.00  0.00    -0.316 C  
BRANCH  23  24
HETATM   24  C   UNL     1     -10.779  15.294  66.191  1.00  0.00    -0.322 C  
HETATM   25  C   UNL     1      -9.335  15.824  65.966  1.00  0.00    -0.384 C  
HETATM   26  C   UNL     1      -8.400  15.714  67.178  1.00  0.00    -0.237 C  
HETATM   27  C   UNL     1      -9.177  15.603  68.491  1.00  0.00    -0.197 C  
HETATM   28  C   UNL     1     -10.039  14.308  68.454  1.00  0.00    -0.243 C  
HETATM   29  C   UNL     1     -11.086  15.191  67.707  1.00  0.00    -0.313 C  
HETATM   30  C   UNL     1     -10.545  16.391  68.622  1.00  0.00    -0.305 C  
HETATM   31  C   UNL     1     -10.643  17.817  68.074  1.00  0.00    -0.372 C  
HETATM   32  C   UNL     1     -11.056  16.449  70.080  1.00  0.00    -0.300 C  
ENDBRANCH  23  24
ENDBRANCH  22  23
ENDBRANCH  21  22
ENDBRANCH  20  21
ENDBRANCH  19  20
ENDBRANCH  13  19
ENDBRANCH  12  13
ENDBRANCH   7  12
ENDBRANCH   2   3
TORSDOF 10
ENDMDL
MODEL      119
REMARK 921   NORMALIZED FREE ENERGY PREDICTED BY IDOCK:   -4.54 KCAL/MOL
REMARK 922        TOTAL FREE ENERGY PREDICTED BY IDOCK:   -8.47 KCAL/MOL
REMARK 923 INTER-LIGAND FREE ENERGY PREDICTED BY IDOCK:   -7.86 KCAL/MOL
REMARK 924 INTRA-LIGAND FREE ENERGY PREDICTED BY IDOCK:   -0.61 KCAL/MOL
REMARK 927      BINDING AFFINITY PREDICTED BY RF-SCORE:    0.00 PKD
ROOT
HETATM    1  C   UNL     1      -7.583   8.473  64.449  1.00  0.00    -0.117 C  
HETATM    2  O   UNL     1      -7.839   9.835  64.758  1.00  0.00    -0.122 OA 
ENDROOT
BRANCH   2   3
HETATM    3  C   UNL     1      -8.959  10.136  65.480  1.00  0.00    -0.172 A  
HETATM    4  C   UNL     1     -10.077  10.881  65.079  1.00  0.00    -0.300 A  
HETATM    5  C   UNL     1      -8.889   9.679  66.801  1.00  0.00    -0.148 A  
HETATM    6  C   UNL     1     -11.080  11.162  66.017  1.00  0.00    -0.117 A  
HETATM    7  C   UNL     1     -10.947  10.829  67.384  1.00  0.00    -0.361 A  
HETATM    8 BR   UNL     1      -9.689   9.226  69.463  1.00  0.00    -0.192 Br 
HETATM    9  C   UNL     1      -9.876   9.996  67.736  1.00  0.00    -0.157 A  
BRANCH   4  10
HETATM   10  O   UNL     1     -10.179  11.298  63.783  1.00  0.00    -0.306 OA 
HETATM   11  C   UNL     1     -10.836  12.550  63.585  1.00  0.00    -0.441 C  
ENDBRANCH   4  10
BRANCH   7  12
HETATM   12  C   UNL     1     -11.859  11.494  68.403  1.00  0.00    -0.283 C  
BRANCH  12  13
HETATM   13  N   UNL     1     -11.413  12.958  68.828  1.00  0.00    -0.281 N  
HETATM   14  O   UNL     1     -12.503  15.520  69.852  1.00  0.00    -0.336 OA 
HETATM   15  C   UNL     1     -12.143  14.025  67.948  1.00  0.00    -0.279 C  
HETATM   16  C   UNL     1     -11.968  15.442  68.530  1.00  0.00    -0.181 C  
HETATM   17  C   UNL     1     -11.931  13.185  70.282  1.00  0.00    -0.292 C  
HETATM   18  C   UNL     1     -11.822  14.638  70.745  1.00  0.00    -0.311 C  
BRANCH  13  19
HETATM   19  C   UNL     1      -9.858  13.122  68.727  1.00  0.00     0.015 C  
BRANCH  19  20
HETATM   20  C   UNL     1      -9.466  14.057  67.565  1.00  0.00    -0.221 C  
BRANCH  20  21
HETATM   21  O   UNL     1      -8.186  13.794  67.000  1.00  0.00    -0.144 OA 
BRANCH  21  22
HETATM   22  C   UNL     1      -7.148  14.620  67.592  1.00  0.00    -0.182 C  
BRANCH  22  23
HETATM   23  C   UNL     1      -7.070  16.014  66.966  1.00  0.00    -0.233 C  
BRANCH  23  24
HETATM   24  C   UNL     1      -6.990  17.216  67.925  1.00  0.00    -0.173 C  
HETATM   25  C   UNL     1      -8.401  17.433  68.542  1.00  0.00    -0.271 C  
HETATM   26  C   UNL     1      -9.173  18.645  68.002  1.00  0.00    -0.329 C  
HETATM   27  C   UNL     1      -8.241  19.684  67.377  1.00  0.00    -0.333 C  
HETATM   28  C   UNL     1      -7.504  19.033  66.171  1.00  0.00    -0.293 C  
HETATM   29  C   UNL     1      -6.494  18.516  67.242  1.00  0.00    -0.202 C  
HETATM   30  C   UNL     1      -6.805  19.885  68.017  1.00  0.00    -0.309 C  
HETATM   31  C   UNL     1      -6.660  19.902  69.541  1.00  0.00    -0.372 C  
HETATM   32  C   UNL     1      -6.101  21.161  67.499  1.00  0.00    -0.420 C  
ENDBRANCH  23  24
ENDBRANCH  22  23
ENDBRANCH  21  22
ENDBRANCH  20  21
ENDBRANCH  19  20
ENDBRANCH  13  19
ENDBRANCH  12  13
ENDBRANCH   7  12
ENDBRANCH   2   3
TORSDOF 10
ENDMDL
MODEL      120
REMARK 921   NORMALIZED FREE ENERGY PREDICTED BY IDOCK:   -4.53 KCAL/MOL
REMARK 922        TOTAL FREE ENERGY PREDICTED BY IDOCK:   -8.45 KCAL/MOL
REMARK 923 INTER-LIGAND FREE ENERGY PREDICTED BY IDOCK:   -7.68 KCAL/MOL
REMARK 924 INTRA-LIGAND FREE ENERGY PREDICTED BY IDOCK:   -0.77 KCAL/MOL
REMARK 927      BINDING AFFINITY PREDICTED BY RF-SCORE:    0.00 PKD
ROOT
HETATM    1  C   UNL     1     -12.138  15.061  68.238  1.00  0.00    -0.075 C  
HETATM    2  O   UNL     1     -12.255  14.429  66.971  1.00  0.00    -0.400 OA 
ENDROOT
BRANCH   2   3
HETATM    3  C   UNL     1     -11.269  13.565  66.584  1.00  0.00    -0.312 A  
HETATM    4  C   UNL     1     -11.382  12.420  65.784  1.00  0.00    -0.352 A  
HETATM    5  C   UNL     1     -10.027  13.875  67.151  1.00  0.00    -0.239 A  
HETATM    6  C   UNL     1     -10.255  11.610  65.591  1.00  0.00    -0.284 A  
HETATM    7  C   UNL     1      -9.040  11.836  66.276  1.00  0.00    -0.209 A  
HETATM    8 BR   UNL     1      -7.283  13.641  67.736  1.00  0.00    -0.186 Br 
HETATM    9  C   UNL     1      -8.920  13.041  66.984  1.00  0.00    -0.225 A  
BRANCH   4  10
HETATM   10  O   UNL     1     -12.576  12.129  65.190  1.00  0.00    -0.505 OA 
HETATM   11  C   UNL     1     -12.556  12.049  63.764  1.00  0.00    -0.454 C  
ENDBRANCH   4  10
BRANCH   7  12
HETATM   12  C   UNL     1      -8.003  10.725  66.338  1.00  0.00    -0.151 C  
BRANCH  12  13
HETATM   13  N   UNL     1      -8.517   9.382  67.012  1.00  0.00    -0.127 N  
HETATM   14  O   UNL     1      -8.094   6.446  66.974  1.00  0.00    -0.110 OA 
HETATM   15  C   UNL     1      -9.099   8.418  65.928  1.00  0.00    -0.171 C  
HETATM   16  C   UNL     1      -9.321   7.004  66.501  1.00  0.00    -0.159 C  
HETATM   17  C   UNL     1      -7.262   8.658  67.591  1.00  0.00    -0.084 C  
HETATM   18  C   UNL     1      -7.542   7.222  68.038  1.00  0.00    -0.115 C  
BRANCH  13  19
HETATM   19  C   UNL     1      -9.583   9.684  68.120  1.00  0.00    -0.143 C  
BRANCH  19  20
HETATM   20  C   UNL     1      -8.918  10.211  69.409  1.00  0.00    -0.191 C  
BRANCH  20  21
HETATM   21  O   UNL     1      -9.090   9.373  70.548  1.00  0.00    -0.236 OA 
BRANCH  21  22
HETATM   22  C   UNL     1     -10.433   9.465  71.096  1.00  0.00    -0.322 C  
BRANCH  22  23
HETATM   23  C   UNL     1     -11.281   8.226  70.797  1.00  0.00    -0.284 C  
BRANCH  23  24
HETATM   24  C   UNL     1     -11.308   7.116  71.863  1.00  0.00    -0.294 C  
HETATM   25  C   UNL     1     -10.646   7.674  73.155  1.00  0.00    -0.438 C  
HETATM   26  C   UNL     1      -9.240   7.137  73.455  1.00  0.00    -0.220 C  
HETATM   27  C   UNL     1      -8.974   5.806  72.752  1.00  0.00    -0.127 C  
HETATM   28  C   UNL     1      -9.065   6.025  71.214  1.00  0.00    -0.149 C  
HETATM   29  C   UNL     1     -10.598   5.814  71.413  1.00  0.00    -0.313 C  
HETATM   30  C   UNL     1     -10.182   4.794  72.578  1.00  0.00    -0.245 C  
HETATM   31  C   UNL     1     -11.158   4.588  73.740  1.00  0.00    -0.330 C  
HETATM   32  C   UNL     1      -9.715   3.385  72.147  1.00  0.00    -0.228 C  
ENDBRANCH  23  24
ENDBRANCH  22  23
ENDBRANCH  21  22
ENDBRANCH  20  21
ENDBRANCH  19  20
ENDBRANCH  13  19
ENDBRANCH  12  13
ENDBRANCH   7  12
ENDBRANCH   2   3
TORSDOF 10
ENDMDL
MODEL      121
REMARK 921   NORMALIZED FREE ENERGY PREDICTED BY IDOCK:   -4.51 KCAL/MOL
REMARK 922        TOTAL FREE ENERGY PREDICTED BY IDOCK:   -8.42 KCAL/MOL
REMARK 923 INTER-LIGAND FREE ENERGY PREDICTED BY IDOCK:   -7.61 KCAL/MOL
REMARK 924 INTRA-LIGAND FREE ENERGY PREDICTED BY IDOCK:   -0.82 KCAL/MOL
REMARK 927      BINDING AFFINITY PREDICTED BY RF-SCORE:    0.00 PKD
ROOT
HETATM    1  C   UNL     1     -11.060   5.318  73.520  1.00  0.00    -0.256 C  
HETATM    2  O   UNL     1     -10.018   5.857  72.720  1.00  0.00    -0.176 OA 
ENDROOT
BRANCH   2   3
HETATM    3  C   UNL     1     -10.306   6.207  71.431  1.00  0.00    -0.214 A  
HETATM    4  C   UNL     1     -10.267   5.403  70.283  1.00  0.00    -0.267 A  
HETATM    5  C   UNL     1     -10.598   7.569  71.294  1.00  0.00    -0.230 A  
HETATM    6  C   UNL     1     -10.502   5.991  69.032  1.00  0.00    -0.319 A  
HETATM    7  C   UNL     1     -10.653   7.386  68.872  1.00  0.00    -0.191 A  
HETATM    8 BR   UNL     1     -11.273   9.989  70.022  1.00  0.00    -0.368 Br 
HETATM    9  C   UNL     1     -10.794   8.151  70.040  1.00  0.00    -0.233 A  
BRANCH   4  10
HETATM   10  O   UNL     1     -10.025   4.065  70.405  1.00  0.00    -0.182 OA 
HETATM   11  C   UNL     1      -9.404   3.443  69.280  1.00  0.00    -0.170 C  
ENDBRANCH   4  10
BRANCH   7  12
HETATM   12  C   UNL     1     -10.508   7.997  67.487  1.00  0.00    -0.260 C  
BRANCH  12  13
HETATM   13  N   UNL     1      -9.159   7.618  66.740  1.00  0.00    -0.144 N  
HETATM   14  O   UNL     1      -8.118   6.789  64.088  1.00  0.00    -0.111 OA 
HETATM   15  C   UNL     1      -9.243   6.164  66.170  1.00  0.00    -0.131 C  
HETATM   16  C   UNL     1      -8.087   5.881  65.190  1.00  0.00    -0.131 C  
HETATM   17  C   UNL     1      -9.053   8.553  65.495  1.00  0.00    -0.091 C  
HETATM   18  C   UNL     1      -7.951   8.140  64.518  1.00  0.00    -0.142 C  
BRANCH  13  19
HETATM   19  C   UNL     1      -7.926   7.772  67.695  1.00  0.00    -0.124 C  
BRANCH  19  20
HETATM   20  C   UNL     1      -7.299   9.177  67.579  1.00  0.00    -0.084 C  
BRANCH  20  21
HETATM   21  O   UNL     1      -8.068  10.218  68.172  1.00  0.00    -0.107 OA 
BRANCH  21  22
HETATM   22  C   UNL     1      -7.912  11.481  67.470  1.00  0.00    -0.133 C  
BRANCH  22  23
HETATM   23  C   UNL     1      -8.770  12.600  68.064  1.00  0.00    -0.190 C  
BRANCH  23  24
HETATM   24  C   UNL     1      -9.408  13.598  67.081  1.00  0.00    -0.240 C  
HETATM   25  C   UNL     1     -10.310  14.567  67.896  1.00  0.00    -0.231 C  
HETATM   26  C   UNL     1     -11.820  14.336  67.750  1.00  0.00    -0.414 C  
HETATM   27  C   UNL     1     -12.161  13.576  66.468  1.00  0.00    -0.433 C  
HETATM   28  C   UNL     1     -11.484  12.176  66.521  1.00  0.00    -0.430 C  
HETATM   29  C   UNL     1     -10.230  12.913  65.958  1.00  0.00    -0.293 C  
HETATM   30  C   UNL     1     -11.278  13.844  65.180  1.00  0.00    -0.326 C  
HETATM   31  C   UNL     1     -10.860  15.278  64.844  1.00  0.00    -0.444 C  
HETATM   32  C   UNL     1     -11.915  13.264  63.896  1.00  0.00    -0.541 C  
ENDBRANCH  23  24
ENDBRANCH  22  23
ENDBRANCH  21  22
ENDBRANCH  20  21
ENDBRANCH  19  20
ENDBRANCH  13  19
ENDBRANCH  12  13
ENDBRANCH   7  12
ENDBRANCH   2   3
TORSDOF 10
ENDMDL
MODEL      122
REMARK 921   NORMALIZED FREE ENERGY PREDICTED BY IDOCK:   -4.51 KCAL/MOL
REMARK 922        TOTAL FREE ENERGY PREDICTED BY IDOCK:   -8.42 KCAL/MOL
REMARK 923 INTER-LIGAND FREE ENERGY PREDICTED BY IDOCK:   -8.05 KCAL/MOL
REMARK 924 INTRA-LIGAND FREE ENERGY PREDICTED BY IDOCK:   -0.37 KCAL/MOL
REMARK 927      BINDING AFFINITY PREDICTED BY RF-SCORE:    0.00 PKD
ROOT
HETATM    1  C   UNL     1      -9.284   4.410  74.561  1.00  0.00    -0.105 C  
HETATM    2  O   UNL     1      -9.926   3.639  73.555  1.00  0.00    -0.110 OA 
ENDROOT
BRANCH   2   3
HETATM    3  C   UNL     1     -10.197   4.237  72.356  1.00  0.00    -0.181 A  
HETATM    4  C   UNL     1      -9.673   3.929  71.093  1.00  0.00    -0.178 A  
HETATM    5  C   UNL     1     -11.057   5.334  72.483  1.00  0.00    -0.289 A  
HETATM    6  C   UNL     1     -10.009   4.740  70.000  1.00  0.00    -0.314 A  
HETATM    7  C   UNL     1     -10.756   5.929  70.147  1.00  0.00    -0.389 A  
HETATM    8 BR   UNL     1     -12.609   7.551  71.702  1.00  0.00    -0.389 Br 
HETATM    9  C   UNL     1     -11.355   6.157  71.395  1.00  0.00    -0.275 A  
BRANCH   4  10
HETATM   10  O   UNL     1      -8.867   2.837  70.947  1.00  0.00    -0.070 OA 
HETATM   11  C   UNL     1      -9.333   1.841  70.035  1.00  0.00    -0.094 C  
ENDBRANCH   4  10
BRANCH   7  12
HETATM   12  C   UNL     1     -10.751   6.955  69.023  1.00  0.00    -0.230 C  
BRANCH  12  13
HETATM   13  N   UNL     1      -9.477   7.902  69.004  1.00  0.00    -0.151 N  
HETATM   14  O   UNL     1      -7.990   9.840  70.687  1.00  0.00    -0.272 OA 
HETATM   15  C   UNL     1      -9.903   9.390  69.229  1.00  0.00    -0.174 C  
HETATM   16  C   UNL     1      -8.680  10.282  69.517  1.00  0.00    -0.139 C  
HETATM   17  C   UNL     1      -8.610   7.520  70.243  1.00  0.00    -0.144 C  
HETATM   18  C   UNL     1      -7.483   8.515  70.526  1.00  0.00    -0.062 C  
BRANCH  13  19
HETATM   19  C   UNL     1      -8.683   7.747  67.662  1.00  0.00    -0.126 C  
BRANCH  19  20
HETATM   20  C   UNL     1      -9.633   7.739  66.446  1.00  0.00    -0.165 C  
BRANCH  20  21
HETATM   21  O   UNL     1     -10.162   9.015  66.102  1.00  0.00    -0.267 OA 
BRANCH  21  22
HETATM   22  C   UNL     1      -9.379   9.670  65.066  1.00  0.00    -0.255 C  
BRANCH  22  23
HETATM   23  C   UNL     1     -10.104  10.864  64.441  1.00  0.00    -0.402 C  
BRANCH  23  24
HETATM   24  C   UNL     1      -9.912  12.236  65.113  1.00  0.00    -0.236 C  
HETATM   25  C   UNL     1     -10.320  12.102  66.607  1.00  0.00    -0.233 C  
HETATM   26  C   UNL     1     -11.662  12.747  66.980  1.00  0.00    -0.440 C  
HETATM   27  C   UNL     1     -12.079  13.822  65.976  1.00  0.00    -0.470 C  
HETATM   28  C   UNL     1     -12.258  13.160  64.579  1.00  0.00    -0.466 C  
HETATM   29  C   UNL     1     -10.720  13.372  64.433  1.00  0.00    -0.423 C  
HETATM   30  C   UNL     1     -10.944  14.700  65.302  1.00  0.00    -0.374 C  
HETATM   31  C   UNL     1      -9.781  15.206  66.160  1.00  0.00    -0.338 C  
HETATM   32  C   UNL     1     -11.511  15.935  64.566  1.00  0.00    -0.287 C  
ENDBRANCH  23  24
ENDBRANCH  22  23
ENDBRANCH  21  22
ENDBRANCH  20  21
ENDBRANCH  19  20
ENDBRANCH  13  19
ENDBRANCH  12  13
ENDBRANCH   7  12
ENDBRANCH   2   3
TORSDOF 10
ENDMDL
MODEL      123
REMARK 921   NORMALIZED FREE ENERGY PREDICTED BY IDOCK:   -4.50 KCAL/MOL
REMARK 922        TOTAL FREE ENERGY PREDICTED BY IDOCK:   -8.40 KCAL/MOL
REMARK 923 INTER-LIGAND FREE ENERGY PREDICTED BY IDOCK:   -7.71 KCAL/MOL
REMARK 924 INTRA-LIGAND FREE ENERGY PREDICTED BY IDOCK:   -0.68 KCAL/MOL
REMARK 927      BINDING AFFINITY PREDICTED BY RF-SCORE:    0.00 PKD
ROOT
HETATM    1  C   UNL     1     -10.043   5.392  74.244  1.00  0.00    -0.251 C  
HETATM    2  O   UNL     1      -9.746   6.697  73.769  1.00  0.00    -0.180 OA 
ENDROOT
BRANCH   2   3
HETATM    3  C   UNL     1     -10.112   7.020  72.492  1.00  0.00    -0.177 A  
HETATM    4  C   UNL     1      -9.745   6.386  71.297  1.00  0.00    -0.174 A  
HETATM    5  C   UNL     1     -10.891   8.181  72.431  1.00  0.00    -0.409 A  
HETATM    6  C   UNL     1     -10.151   6.945  70.077  1.00  0.00    -0.195 A  
HETATM    7  C   UNL     1     -10.811   8.191  70.003  1.00  0.00    -0.233 A  
HETATM    8 BR   UNL     1     -12.392  10.271  71.288  1.00  0.00    -0.526 Br 
HETATM    9  C   UNL     1     -11.258   8.749  71.210  1.00  0.00    -0.284 A  
BRANCH   4  10
HETATM   10  O   UNL     1      -9.021   5.229  71.343  1.00  0.00    -0.138 OA 
HETATM   11  C   UNL     1      -9.615   4.101  70.699  1.00  0.00    -0.194 C  
ENDBRANCH   4  10
BRANCH   7  12
HETATM   12  C   UNL     1     -10.870   8.924  68.671  1.00  0.00     0.009 C  
BRANCH  12  13
HETATM   13  N   UNL     1      -9.695   9.966  68.442  1.00  0.00    -0.147 N  
HETATM   14  O   UNL     1      -6.748  10.124  68.136  1.00  0.00    -0.061 OA 
HETATM   15  C   UNL     1      -8.677   9.907  69.627  1.00  0.00    -0.204 C  
HETATM   16  C   UNL     1      -7.384  10.675  69.290  1.00  0.00    -0.119 C  
HETATM   17  C   UNL     1      -8.905   9.487  67.184  1.00  0.00    -0.131 C  
HETATM   18  C   UNL     1      -7.581  10.225  66.981  1.00  0.00    -0.099 C  
BRANCH  13  19
HETATM   19  C   UNL     1     -10.259  11.417  68.262  1.00  0.00    -0.193 C  
BRANCH  19  20
HETATM   20  C   UNL     1     -11.762  11.396  67.916  1.00  0.00    -0.228 C  
BRANCH  20  21
HETATM   21  O   UNL     1     -12.116  12.164  66.770  1.00  0.00    -0.609 OA 
BRANCH  21  22
HETATM   22  C   UNL     1     -12.098  13.591  67.043  1.00  0.00    -0.354 C  
BRANCH  22  23
HETATM   23  C   UNL     1     -11.050  14.340  66.217  1.00  0.00    -0.323 C  
BRANCH  23  24
HETATM   24  C   UNL     1      -9.882  14.990  66.981  1.00  0.00    -0.241 C  
HETATM   25  C   UNL     1     -10.389  15.371  68.401  1.00  0.00    -0.229 C  
HETATM   26  C   UNL     1     -10.623  16.870  68.633  1.00  0.00    -0.360 C  
HETATM   27  C   UNL     1      -9.838  17.731  67.643  1.00  0.00    -0.299 C  
HETATM   28  C   UNL     1     -10.324  17.407  66.201  1.00  0.00    -0.329 C  
HETATM   29  C   UNL     1      -9.297  16.235  66.265  1.00  0.00    -0.360 C  
HETATM   30  C   UNL     1      -8.414  17.222  67.170  1.00  0.00    -0.223 C  
HETATM   31  C   UNL     1      -7.461  16.602  68.196  1.00  0.00    -0.170 C  
HETATM   32  C   UNL     1      -7.608  18.317  66.435  1.00  0.00    -0.285 C  
ENDBRANCH  23  24
ENDBRANCH  22  23
ENDBRANCH  21  22
ENDBRANCH  20  21
ENDBRANCH  19  20
ENDBRANCH  13  19
ENDBRANCH  12  13
ENDBRANCH   7  12
ENDBRANCH   2   3
TORSDOF 10
ENDMDL
MODEL      124
REMARK 921   NORMALIZED FREE ENERGY PREDICTED BY IDOCK:   -4.49 KCAL/MOL
REMARK 922        TOTAL FREE ENERGY PREDICTED BY IDOCK:   -8.38 KCAL/MOL
REMARK 923 INTER-LIGAND FREE ENERGY PREDICTED BY IDOCK:   -7.58 KCAL/MOL
REMARK 924 INTRA-LIGAND FREE ENERGY PREDICTED BY IDOCK:   -0.81 KCAL/MOL
REMARK 927      BINDING AFFINITY PREDICTED BY RF-SCORE:    0.00 PKD
ROOT
HETATM    1  C   UNL     1     -10.059   3.733  64.601  1.00  0.00    -0.191 C  
HETATM    2  O   UNL     1      -9.088   4.426  65.371  1.00  0.00    -0.130 OA 
ENDROOT
BRANCH   2   3
HETATM    3  C   UNL     1      -9.479   4.985  66.556  1.00  0.00    -0.149 A  
HETATM    4  C   UNL     1      -9.762   4.341  67.768  1.00  0.00    -0.123 A  
HETATM    5  C   UNL     1      -9.675   6.368  66.462  1.00  0.00    -0.177 A  
HETATM    6  C   UNL     1     -10.252   5.096  68.842  1.00  0.00    -0.221 A  
HETATM    7  C   UNL     1     -10.589   6.462  68.710  1.00  0.00    -0.295 A  
HETATM    8 BR   UNL     1     -10.320   8.984  67.280  1.00  0.00    -0.343 Br 
HETATM    9  C   UNL     1     -10.198   7.104  67.526  1.00  0.00    -0.212 A  
BRANCH   4  10
HETATM   10  O   UNL     1      -9.536   3.000  67.887  1.00  0.00    -0.207 OA 
HETATM   11  C   UNL     1      -8.242   2.630  68.366  1.00  0.00    -0.060 C  
ENDBRANCH   4  10
BRANCH   7  12
HETATM   12  C   UNL     1     -11.469   7.117  69.764  1.00  0.00    -0.058 C  
BRANCH  12  13
HETATM   13  N   UNL     1     -10.680   7.674  71.025  1.00  0.00    -0.226 N  
HETATM   14  O   UNL     1      -9.029   6.780  73.322  1.00  0.00    -0.123 OA 
HETATM   15  C   UNL     1     -11.255   7.058  72.342  1.00  0.00    -0.268 C  
HETATM   16  C   UNL     1     -10.326   7.338  73.540  1.00  0.00    -0.366 C  
HETATM   17  C   UNL     1      -9.217   7.143  70.914  1.00  0.00    -0.152 C  
HETATM   18  C   UNL     1      -8.393   7.363  72.184  1.00  0.00    -0.109 C  
BRANCH  13  19
HETATM   19  C   UNL     1     -10.733   9.240  71.072  1.00  0.00    -0.316 C  
BRANCH  19  20
HETATM   20  C   UNL     1     -12.143   9.742  71.443  1.00  0.00    -0.400 C  
BRANCH  20  21
HETATM   21  O   UNL     1     -12.645  10.772  70.598  1.00  0.00    -0.329 OA 
BRANCH  21  22
HETATM   22  C   UNL     1     -11.580  11.478  69.905  1.00  0.00    -0.308 C  
BRANCH  22  23
HETATM   23  C   UNL     1     -11.975  12.901  69.503  1.00  0.00    -0.346 C  
BRANCH  23  24
HETATM   24  C   UNL     1     -11.407  13.443  68.179  1.00  0.00    -0.321 C  
HETATM   25  C   UNL     1     -10.016  12.789  67.949  1.00  0.00    -0.229 C  
HETATM   26  C   UNL     1      -8.811  13.712  68.181  1.00  0.00    -0.189 C  
HETATM   27  C   UNL     1      -9.194  15.188  68.076  1.00  0.00    -0.185 C  
HETATM   28  C   UNL     1     -10.243  15.513  69.180  1.00  0.00    -0.240 C  
HETATM   29  C   UNL     1     -11.289  14.988  68.148  1.00  0.00    -0.343 C  
HETATM   30  C   UNL     1     -10.314  15.602  67.033  1.00  0.00    -0.289 C  
HETATM   31  C   UNL     1     -10.313  14.961  65.642  1.00  0.00    -0.370 C  
HETATM   32  C   UNL     1     -10.376  17.130  66.808  1.00  0.00    -0.302 C  
ENDBRANCH  23  24
ENDBRANCH  22  23
ENDBRANCH  21  22
ENDBRANCH  20  21
ENDBRANCH  19  20
ENDBRANCH  13  19
ENDBRANCH  12  13
ENDBRANCH   7  12
ENDBRANCH   2   3
TORSDOF 10
ENDMDL
MODEL      125
REMARK 921   NORMALIZED FREE ENERGY PREDICTED BY IDOCK:   -4.48 KCAL/MOL
REMARK 922        TOTAL FREE ENERGY PREDICTED BY IDOCK:   -8.38 KCAL/MOL
REMARK 923 INTER-LIGAND FREE ENERGY PREDICTED BY IDOCK:   -7.64 KCAL/MOL
REMARK 924 INTRA-LIGAND FREE ENERGY PREDICTED BY IDOCK:   -0.74 KCAL/MOL
REMARK 927      BINDING AFFINITY PREDICTED BY RF-SCORE:    0.00 PKD
ROOT
HETATM    1  C   UNL     1     -10.986   4.429  73.548  1.00  0.00    -0.295 C  
HETATM    2  O   UNL     1     -11.859   5.378  72.953  1.00  0.00    -0.263 OA 
ENDROOT
BRANCH   2   3
HETATM    3  C   UNL     1     -11.317   6.341  72.148  1.00  0.00    -0.297 A  
HETATM    4  C   UNL     1     -11.982   7.295  71.367  1.00  0.00    -0.320 A  
HETATM    5  C   UNL     1      -9.921   6.265  72.081  1.00  0.00    -0.184 A  
HETATM    6  C   UNL     1     -11.233   8.130  70.527  1.00  0.00    -0.249 A  
HETATM    7  C   UNL     1      -9.842   7.962  70.346  1.00  0.00    -0.183 A  
HETATM    8 BR   UNL     1      -7.296   6.923  71.302  1.00  0.00    -0.082 Br 
HETATM    9  C   UNL     1      -9.187   7.077  71.214  1.00  0.00    -0.152 A  
BRANCH   4  10
HETATM   10  O   UNL     1     -13.340   7.409  71.454  1.00  0.00    -0.370 OA 
HETATM   11  C   UNL     1     -13.849   8.743  71.487  1.00  0.00    -0.340 C  
ENDBRANCH   4  10
BRANCH   7  12
HETATM   12  C   UNL     1      -9.163   8.617  69.152  1.00  0.00    -0.152 C  
BRANCH  12  13
HETATM   13  N   UNL     1      -9.278   7.795  67.798  1.00  0.00    -0.136 N  
HETATM   14  O   UNL     1      -9.956   5.100  66.761  1.00  0.00    -0.163 OA 
HETATM   15  C   UNL     1      -8.311   6.566  67.827  1.00  0.00    -0.119 C  
HETATM   16  C   UNL     1      -8.617   5.590  66.673  1.00  0.00    -0.116 C  
HETATM   17  C   UNL     1     -10.718   7.198  67.752  1.00  0.00    -0.212 C  
HETATM   18  C   UNL     1     -10.909   6.157  66.647  1.00  0.00    -0.207 C  
BRANCH  13  19
HETATM   19  C   UNL     1      -8.982   8.709  66.560  1.00  0.00    -0.154 C  
BRANCH  19  20
HETATM   20  C   UNL     1      -7.587   9.359  66.664  1.00  0.00    -0.094 C  
BRANCH  20  21
HETATM   21  O   UNL     1      -7.556  10.745  66.339  1.00  0.00    -0.131 OA 
BRANCH  21  22
HETATM   22  C   UNL     1      -7.288  11.573  67.503  1.00  0.00    -0.112 C  
BRANCH  22  23
HETATM   23  C   UNL     1      -8.536  12.296  68.017  1.00  0.00    -0.171 C  
BRANCH  23  24
HETATM   24  C   UNL     1      -9.313  13.164  67.010  1.00  0.00    -0.238 C  
HETATM   25  C   UNL     1     -10.069  14.264  67.807  1.00  0.00    -0.231 C  
HETATM   26  C   UNL     1     -11.585  14.060  67.930  1.00  0.00    -0.377 C  
HETATM   27  C   UNL     1     -12.127  13.138  66.837  1.00  0.00    -0.377 C  
HETATM   28  C   UNL     1     -11.460  11.739  66.985  1.00  0.00    -0.368 C  
HETATM   29  C   UNL     1     -10.304  12.353  66.137  1.00  0.00    -0.271 C  
HETATM   30  C   UNL     1     -11.454  13.196  65.403  1.00  0.00    -0.331 C  
HETATM   31  C   UNL     1     -11.083  14.555  64.805  1.00  0.00    -0.400 C  
HETATM   32  C   UNL     1     -12.288  12.461  64.329  1.00  0.00    -0.544 C  
ENDBRANCH  23  24
ENDBRANCH  22  23
ENDBRANCH  21  22
ENDBRANCH  20  21
ENDBRANCH  19  20
ENDBRANCH  13  19
ENDBRANCH  12  13
ENDBRANCH   7  12
ENDBRANCH   2   3
TORSDOF 10
ENDMDL
MODEL      126
REMARK 921   NORMALIZED FREE ENERGY PREDICTED BY IDOCK:   -4.48 KCAL/MOL
REMARK 922        TOTAL FREE ENERGY PREDICTED BY IDOCK:   -8.37 KCAL/MOL
REMARK 923 INTER-LIGAND FREE ENERGY PREDICTED BY IDOCK:   -7.58 KCAL/MOL
REMARK 924 INTRA-LIGAND FREE ENERGY PREDICTED BY IDOCK:   -0.79 KCAL/MOL
REMARK 927      BINDING AFFINITY PREDICTED BY RF-SCORE:    0.00 PKD
ROOT
HETATM    1  C   UNL     1      -8.785   9.542  63.642  1.00  0.00    -0.221 C  
HETATM    2  O   UNL     1      -8.598  10.453  64.715  1.00  0.00    -0.173 OA 
ENDROOT
BRANCH   2   3
HETATM    3  C   UNL     1      -8.678   9.974  65.992  1.00  0.00    -0.138 A  
HETATM    4  C   UNL     1      -7.938  10.369  67.115  1.00  0.00    -0.115 A  
HETATM    5  C   UNL     1      -9.577   8.909  66.114  1.00  0.00    -0.335 A  
HETATM    6  C   UNL     1      -8.105   9.671  68.320  1.00  0.00    -0.105 A  
HETATM    7  C   UNL     1      -8.899   8.507  68.411  1.00  0.00    -0.139 A  
HETATM    8 BR   UNL     1     -11.034   6.838  67.346  1.00  0.00    -0.382 Br 
HETATM    9  C   UNL     1      -9.708   8.198  67.308  1.00  0.00    -0.178 A  
BRANCH   4  10
HETATM   10  O   UNL     1      -7.089  11.434  67.023  1.00  0.00    -0.120 OA 
HETATM   11  C   UNL     1      -5.886  11.335  67.786  1.00  0.00    -0.048 C  
ENDBRANCH   4  10
BRANCH   7  12
HETATM   12  C   UNL     1      -8.732   7.584  69.609  1.00  0.00    -0.137 C  
BRANCH  12  13
HETATM   13  N   UNL     1      -9.644   7.953  70.855  1.00  0.00    -0.161 N  
HETATM   14  O   UNL     1     -10.664   6.835  73.407  1.00  0.00    -0.292 OA 
HETATM   15  C   UNL     1     -10.839   6.950  70.968  1.00  0.00    -0.241 C  
HETATM   16  C   UNL     1     -11.559   7.092  72.325  1.00  0.00    -0.271 C  
HETATM   17  C   UNL     1      -8.779   7.723  72.133  1.00  0.00    -0.130 C  
HETATM   18  C   UNL     1      -9.587   7.772  73.431  1.00  0.00    -0.290 C  
BRANCH  13  19
HETATM   19  C   UNL     1     -10.162   9.428  70.755  1.00  0.00    -0.299 C  
BRANCH  19  20
HETATM   20  C   UNL     1     -11.702   9.479  70.686  1.00  0.00    -0.262 C  
BRANCH  20  21
HETATM   21  O   UNL     1     -12.227  10.629  70.032  1.00  0.00    -0.304 OA 
BRANCH  21  22
HETATM   22  C   UNL     1     -11.748  10.746  68.665  1.00  0.00    -0.219 C  
BRANCH  22  23
HETATM   23  C   UNL     1     -11.896  12.163  68.104  1.00  0.00    -0.362 C  
BRANCH  23  24
HETATM   24  C   UNL     1     -10.850  13.206  68.538  1.00  0.00    -0.285 C  
HETATM   25  C   UNL     1     -11.558  14.245  69.452  1.00  0.00    -0.354 C  
HETATM   26  C   UNL     1     -11.818  15.614  68.810  1.00  0.00    -0.336 C  
HETATM   27  C   UNL     1     -10.893  15.873  67.620  1.00  0.00    -0.312 C  
HETATM   28  C   UNL     1     -11.164  14.794  66.532  1.00  0.00    -0.342 C  
HETATM   29  C   UNL     1     -10.162  13.918  67.345  1.00  0.00    -0.252 C  
HETATM   30  C   UNL     1      -9.417  15.298  67.679  1.00  0.00    -0.205 C  
HETATM   31  C   UNL     1      -8.628  15.395  68.987  1.00  0.00    -0.227 C  
HETATM   32  C   UNL     1      -8.508  15.891  66.578  1.00  0.00    -0.348 C  
ENDBRANCH  23  24
ENDBRANCH  22  23
ENDBRANCH  21  22
ENDBRANCH  20  21
ENDBRANCH  19  20
ENDBRANCH  13  19
ENDBRANCH  12  13
ENDBRANCH   7  12
ENDBRANCH   2   3
TORSDOF 10
ENDMDL
MODEL      127
REMARK 921   NORMALIZED FREE ENERGY PREDICTED BY IDOCK:   -4.48 KCAL/MOL
REMARK 922        TOTAL FREE ENERGY PREDICTED BY IDOCK:   -8.37 KCAL/MOL
REMARK 923 INTER-LIGAND FREE ENERGY PREDICTED BY IDOCK:   -7.33 KCAL/MOL
REMARK 924 INTRA-LIGAND FREE ENERGY PREDICTED BY IDOCK:   -1.04 KCAL/MOL
REMARK 927      BINDING AFFINITY PREDICTED BY RF-SCORE:    0.00 PKD
ROOT
HETATM    1  C   UNL     1     -10.943   5.557  73.313  1.00  0.00    -0.292 C  
HETATM    2  O   UNL     1     -11.835   5.792  72.233  1.00  0.00    -0.273 OA 
ENDROOT
BRANCH   2   3
HETATM    3  C   UNL     1     -11.392   6.540  71.178  1.00  0.00    -0.314 A  
HETATM    4  C   UNL     1     -10.636   6.123  70.075  1.00  0.00    -0.261 A  
HETATM    5  C   UNL     1     -11.702   7.899  71.312  1.00  0.00    -0.313 A  
HETATM    6  C   UNL     1     -10.195   7.081  69.150  1.00  0.00    -0.193 A  
HETATM    7  C   UNL     1     -10.379   8.466  69.356  1.00  0.00    -0.217 A  
HETATM    8 BR   UNL     1     -11.808  10.638  70.668  1.00  0.00    -0.476 Br 
HETATM    9  C   UNL     1     -11.227   8.848  70.406  1.00  0.00    -0.230 A  
BRANCH   4  10
HETATM   10  O   UNL     1     -10.362   4.796  69.908  1.00  0.00    -0.238 OA 
HETATM   11  C   UNL     1      -9.170   4.496  69.181  1.00  0.00    -0.134 C  
ENDBRANCH   4  10
BRANCH   7  12
HETATM   12  C   UNL     1      -9.554   9.455  68.547  1.00  0.00    -0.147 C  
BRANCH  12  13
HETATM   13  N   UNL     1      -8.010   9.481  68.919  1.00  0.00    -0.089 N  
HETATM   14  O   UNL     1      -5.880   7.817  70.142  1.00  0.00    -0.023 OA 
HETATM   15  C   UNL     1      -7.819   9.278  70.458  1.00  0.00    -0.153 C  
HETATM   16  C   UNL     1      -6.343   8.995  70.803  1.00  0.00    -0.055 C  
HETATM   17  C   UNL     1      -7.361   8.233  68.245  1.00  0.00    -0.095 C  
HETATM   18  C   UNL     1      -5.934   7.959  68.722  1.00  0.00    -0.035 C  
BRANCH  13  19
HETATM   19  C   UNL     1      -7.342  10.817  68.446  1.00  0.00    -0.092 C  
BRANCH  19  20
HETATM   20  C   UNL     1      -8.340  11.993  68.499  1.00  0.00    -0.104 C  
BRANCH  20  21
HETATM   21  O   UNL     1      -7.795  13.209  69.000  1.00  0.00     0.053 OA 
BRANCH  21  22
HETATM   22  C   UNL     1      -8.337  14.372  68.319  1.00  0.00    -0.158 C  
BRANCH  22  23
HETATM   23  C   UNL     1      -8.537  14.141  66.819  1.00  0.00    -0.097 C  
BRANCH  23  24
HETATM   24  C   UNL     1      -9.964  14.302  66.265  1.00  0.00    -0.319 C  
HETATM   25  C   UNL     1     -10.961  14.111  67.443  1.00  0.00    -0.306 C  
HETATM   26  C   UNL     1     -11.726  12.780  67.445  1.00  0.00    -0.425 C  
HETATM   27  C   UNL     1     -11.764  12.141  66.056  1.00  0.00    -0.388 C  
HETATM   28  C   UNL     1     -10.306  11.833  65.606  1.00  0.00    -0.293 C  
HETATM   29  C   UNL     1     -10.292  13.314  65.116  1.00  0.00    -0.336 C  
HETATM   30  C   UNL     1     -11.847  13.094  64.793  1.00  0.00    -0.413 C  
HETATM   31  C   UNL     1     -12.772  14.313  64.834  1.00  0.00    -0.243 C  
HETATM   32  C   UNL     1     -12.194  12.327  63.496  1.00  0.00    -0.669 C  
ENDBRANCH  23  24
ENDBRANCH  22  23
ENDBRANCH  21  22
ENDBRANCH  20  21
ENDBRANCH  19  20
ENDBRANCH  13  19
ENDBRANCH  12  13
ENDBRANCH   7  12
ENDBRANCH   2   3
TORSDOF 10
ENDMDL
MODEL      128
REMARK 921   NORMALIZED FREE ENERGY PREDICTED BY IDOCK:   -4.48 KCAL/MOL
REMARK 922        TOTAL FREE ENERGY PREDICTED BY IDOCK:   -8.37 KCAL/MOL
REMARK 923 INTER-LIGAND FREE ENERGY PREDICTED BY IDOCK:   -7.50 KCAL/MOL
REMARK 924 INTRA-LIGAND FREE ENERGY PREDICTED BY IDOCK:   -0.87 KCAL/MOL
REMARK 927      BINDING AFFINITY PREDICTED BY RF-SCORE:    0.00 PKD
ROOT
HETATM    1  C   UNL     1     -12.304  13.144  63.205  1.00  0.00    -0.283 C  
HETATM    2  O   UNL     1     -11.056  12.466  63.208  1.00  0.00    -0.438 OA 
ENDROOT
BRANCH   2   3
HETATM    3  C   UNL     1     -10.441  12.247  64.409  1.00  0.00    -0.325 A  
HETATM    4  C   UNL     1      -9.632  11.166  64.786  1.00  0.00    -0.240 A  
HETATM    5  C   UNL     1     -10.756  13.222  65.363  1.00  0.00    -0.308 A  
HETATM    6  C   UNL     1      -9.181  11.082  66.110  1.00  0.00    -0.209 A  
HETATM    7  C   UNL     1      -9.614  11.981  67.111  1.00  0.00    -0.195 A  
HETATM    8 BR   UNL     1     -10.761  14.555  67.842  1.00  0.00    -0.253 Br 
HETATM    9  C   UNL     1     -10.332  13.109  66.688  1.00  0.00    -0.265 A  
BRANCH   4  10
HETATM   10  O   UNL     1      -9.282  10.230  63.856  1.00  0.00    -0.228 OA 
HETATM   11  C   UNL     1      -8.695   9.034  64.370  1.00  0.00    -0.118 C  
ENDBRANCH   4  10
BRANCH   7  12
HETATM   12  C   UNL     1      -9.416  11.617  68.574  1.00  0.00    -0.173 C  
BRANCH  12  13
HETATM   13  N   UNL     1     -10.550  10.683  69.178  1.00  0.00    -0.213 N  
HETATM   14  O   UNL     1     -12.024  10.138  71.693  1.00  0.00    -0.361 OA 
HETATM   15  C   UNL     1      -9.985   9.845  70.371  1.00  0.00    -0.160 C  
HETATM   16  C   UNL     1     -11.121   9.167  71.163  1.00  0.00    -0.323 C  
HETATM   17  C   UNL     1     -11.630  11.624  69.796  1.00  0.00    -0.315 C  
HETATM   18  C   UNL     1     -12.658  10.886  70.655  1.00  0.00    -0.346 C  
BRANCH  13  19
HETATM   19  C   UNL     1     -11.151   9.746  68.074  1.00  0.00    -0.106 C  
BRANCH  19  20
HETATM   20  C   UNL     1     -10.340   8.440  67.946  1.00  0.00    -0.221 C  
BRANCH  20  21
HETATM   21  O   UNL     1     -10.884   7.495  67.030  1.00  0.00    -0.348 OA 
BRANCH  21  22
HETATM   22  C   UNL     1     -10.907   6.150  67.582  1.00  0.00    -0.332 C  
BRANCH  22  23
HETATM   23  C   UNL     1     -11.164   6.133  69.091  1.00  0.00    -0.409 C  
BRANCH  23  24
HETATM   24  C   UNL     1     -10.368   5.117  69.930  1.00  0.00    -0.347 C  
HETATM   25  C   UNL     1     -10.723   5.347  71.426  1.00  0.00    -0.258 C  
HETATM   26  C   UNL     1      -9.630   6.029  72.261  1.00  0.00    -0.162 C  
HETATM   27  C   UNL     1      -8.247   5.877  71.626  1.00  0.00    -0.119 C  
HETATM   28  C   UNL     1      -8.259   6.567  70.231  1.00  0.00    -0.126 C  
HETATM   29  C   UNL     1      -8.835   5.211  69.718  1.00  0.00    -0.130 C  
HETATM   30  C   UNL     1      -7.921   4.535  70.849  1.00  0.00    -0.072 C  
HETATM   31  C   UNL     1      -8.375   3.199  71.441  1.00  0.00    -0.083 C  
HETATM   32  C   UNL     1      -6.415   4.384  70.537  1.00  0.00    -0.034 C  
ENDBRANCH  23  24
ENDBRANCH  22  23
ENDBRANCH  21  22
ENDBRANCH  20  21
ENDBRANCH  19  20
ENDBRANCH  13  19
ENDBRANCH  12  13
ENDBRANCH   7  12
ENDBRANCH   2   3
TORSDOF 10
ENDMDL
MODEL      129
REMARK 921   NORMALIZED FREE ENERGY PREDICTED BY IDOCK:   -4.46 KCAL/MOL
REMARK 922        TOTAL FREE ENERGY PREDICTED BY IDOCK:   -8.34 KCAL/MOL
REMARK 923 INTER-LIGAND FREE ENERGY PREDICTED BY IDOCK:   -7.63 KCAL/MOL
REMARK 924 INTRA-LIGAND FREE ENERGY PREDICTED BY IDOCK:   -0.71 KCAL/MOL
REMARK 927      BINDING AFFINITY PREDICTED BY RF-SCORE:    0.00 PKD
ROOT
HETATM    1  C   UNL     1     -12.323  14.005  63.955  1.00  0.00    -0.298 C  
HETATM    2  O   UNL     1     -12.859  13.846  65.261  1.00  0.00    -0.689 OA 
ENDROOT
BRANCH   2   3
HETATM    3  C   UNL     1     -12.037  13.373  66.245  1.00  0.00    -0.422 A  
HETATM    4  C   UNL     1     -11.372  14.098  67.243  1.00  0.00    -0.332 A  
HETATM    5  C   UNL     1     -11.812  11.995  66.145  1.00  0.00    -0.225 A  
HETATM    6  C   UNL     1     -10.487  13.426  68.098  1.00  0.00    -0.250 A  
HETATM    7  C   UNL     1     -10.145  12.068  67.910  1.00  0.00    -0.199 A  
HETATM    8 BR   UNL     1     -10.771   9.458  66.783  1.00  0.00    -0.026 Br 
HETATM    9  C   UNL     1     -10.900  11.343  66.977  1.00  0.00    -0.282 A  
BRANCH   4  10
HETATM   10  O   UNL     1     -11.614  15.435  67.380  1.00  0.00    -0.269 OA 
HETATM   11  C   UNL     1     -11.538  15.945  68.711  1.00  0.00    -0.386 C  
ENDBRANCH   4  10
BRANCH   7  12
HETATM   12  C   UNL     1      -8.909  11.510  68.600  1.00  0.00    -0.106 C  
BRANCH  12  13
HETATM   13  N   UNL     1      -7.569  11.650  67.761  1.00  0.00    -0.113 N  
HETATM   14  O   UNL     1      -5.414  10.027  66.527  1.00  0.00    -0.043 OA 
HETATM   15  C   UNL     1      -6.369  11.027  68.546  1.00  0.00    -0.049 C  
HETATM   16  C   UNL     1      -5.130  10.873  67.641  1.00  0.00    -0.036 C  
HETATM   17  C   UNL     1      -7.740  10.769  66.485  1.00  0.00    -0.145 C  
HETATM   18  C   UNL     1      -6.441  10.576  65.701  1.00  0.00    -0.119 C  
BRANCH  13  19
HETATM   19  C   UNL     1      -7.283  13.149  67.404  1.00  0.00    -0.110 C  
BRANCH  19  20
HETATM   20  C   UNL     1      -6.940  13.969  68.664  1.00  0.00    -0.106 C  
BRANCH  20  21
HETATM   21  O   UNL     1      -5.806  14.819  68.526  1.00  0.00    -0.087 OA 
BRANCH  21  22
HETATM   22  C   UNL     1      -6.167  16.225  68.575  1.00  0.00    -0.116 C  
BRANCH  22  23
HETATM   23  C   UNL     1      -6.355  16.838  67.185  1.00  0.00    -0.223 C  
BRANCH  23  24
HETATM   24  C   UNL     1      -7.699  17.533  66.896  1.00  0.00    -0.248 C  
HETATM   25  C   UNL     1      -7.475  18.549  65.741  1.00  0.00    -0.130 C  
HETATM   26  C   UNL     1      -7.456  20.025  66.161  1.00  0.00    -0.324 C  
HETATM   27  C   UNL     1      -8.166  20.248  67.498  1.00  0.00    -0.358 C  
HETATM   28  C   UNL     1      -7.418  19.445  68.601  1.00  0.00    -0.385 C  
HETATM   29  C   UNL     1      -8.300  18.246  68.134  1.00  0.00    -0.296 C  
HETATM   30  C   UNL     1      -9.426  19.349  67.838  1.00  0.00    -0.407 C  
HETATM   31  C   UNL     1     -10.453  19.056  66.742  1.00  0.00    -0.510 C  
HETATM   32  C   UNL     1     -10.223  19.884  69.050  1.00  0.00    -0.344 C  
ENDBRANCH  23  24
ENDBRANCH  22  23
ENDBRANCH  21  22
ENDBRANCH  20  21
ENDBRANCH  19  20
ENDBRANCH  13  19
ENDBRANCH  12  13
ENDBRANCH   7  12
ENDBRANCH   2   3
TORSDOF 10
ENDMDL
MODEL      130
REMARK 921   NORMALIZED FREE ENERGY PREDICTED BY IDOCK:   -4.46 KCAL/MOL
REMARK 922        TOTAL FREE ENERGY PREDICTED BY IDOCK:   -8.34 KCAL/MOL
REMARK 923 INTER-LIGAND FREE ENERGY PREDICTED BY IDOCK:   -7.44 KCAL/MOL
REMARK 924 INTRA-LIGAND FREE ENERGY PREDICTED BY IDOCK:   -0.90 KCAL/MOL
REMARK 927      BINDING AFFINITY PREDICTED BY RF-SCORE:    0.00 PKD
ROOT
HETATM    1  C   UNL     1      -9.324   4.208  67.157  1.00  0.00    -0.176 C  
HETATM    2  O   UNL     1      -9.362   5.238  68.134  1.00  0.00    -0.111 OA 
ENDROOT
BRANCH   2   3
HETATM    3  C   UNL     1      -9.522   6.528  67.710  1.00  0.00    -0.119 A  
HETATM    4  C   UNL     1     -10.366   7.516  68.235  1.00  0.00    -0.195 A  
HETATM    5  C   UNL     1      -8.779   6.814  66.560  1.00  0.00    -0.139 A  
HETATM    6  C   UNL     1     -10.456   8.753  67.582  1.00  0.00    -0.310 A  
HETATM    7  C   UNL     1      -9.822   8.997  66.343  1.00  0.00    -0.356 A  
HETATM    8 BR   UNL     1      -7.762   8.311  64.403  1.00  0.00    -0.131 Br 
HETATM    9  C   UNL     1      -8.903   8.036  65.896  1.00  0.00    -0.153 A  
BRANCH   4  10
HETATM   10  O   UNL     1     -11.065   7.266  69.381  1.00  0.00    -0.178 OA 
HETATM   11  C   UNL     1     -10.601   7.941  70.551  1.00  0.00    -0.223 C  
ENDBRANCH   4  10
BRANCH   7  12
HETATM   12  C   UNL     1     -10.265  10.184  65.502  1.00  0.00    -0.218 C  
BRANCH  12  13
HETATM   13  N   UNL     1      -9.844  11.598  66.088  1.00  0.00    -0.216 N  
HETATM   14  O   UNL     1      -8.552  12.851  68.446  1.00  0.00    -0.174 OA 
HETATM   15  C   UNL     1     -10.555  11.852  67.457  1.00  0.00    -0.219 C  
HETATM   16  C   UNL     1      -9.940  13.062  68.188  1.00  0.00    -0.231 C  
HETATM   17  C   UNL     1      -8.320  11.517  66.413  1.00  0.00    -0.118 C  
HETATM   18  C   UNL     1      -7.811  12.703  67.234  1.00  0.00    -0.155 C  
BRANCH  13  19
HETATM   19  C   UNL     1     -10.166  12.746  65.070  1.00  0.00    -0.272 C  
BRANCH  19  20
HETATM   20  C   UNL     1     -11.669  13.091  65.072  1.00  0.00    -0.339 C  
BRANCH  20  21
HETATM   21  O   UNL     1     -11.964  14.446  65.395  1.00  0.00    -0.364 OA 
BRANCH  21  22
HETATM   22  C   UNL     1     -11.248  15.379  64.540  1.00  0.00    -0.299 C  
BRANCH  22  23
HETATM   23  C   UNL     1     -10.785  16.632  65.287  1.00  0.00    -0.219 C  
BRANCH  23  24
HETATM   24  C   UNL     1      -9.861  16.428  66.502  1.00  0.00    -0.290 C  
HETATM   25  C   UNL     1     -10.642  16.856  67.777  1.00  0.00    -0.340 C  
HETATM   26  C   UNL     1     -10.209  18.192  68.394  1.00  0.00    -0.401 C  
HETATM   27  C   UNL     1      -8.791  18.582  67.975  1.00  0.00    -0.317 C  
HETATM   28  C   UNL     1      -8.755  18.755  66.428  1.00  0.00    -0.294 C  
HETATM   29  C   UNL     1      -8.528  17.212  66.398  1.00  0.00    -0.307 C  
HETATM   30  C   UNL     1      -7.724  17.428  67.769  1.00  0.00    -0.200 C  
HETATM   31  C   UNL     1      -7.676  16.268  68.767  1.00  0.00    -0.202 C  
HETATM   32  C   UNL     1      -6.281  17.969  67.660  1.00  0.00    -0.174 C  
ENDBRANCH  23  24
ENDBRANCH  22  23
ENDBRANCH  21  22
ENDBRANCH  20  21
ENDBRANCH  19  20
ENDBRANCH  13  19
ENDBRANCH  12  13
ENDBRANCH   7  12
ENDBRANCH   2   3
TORSDOF 10
ENDMDL
MODEL      131
REMARK 921   NORMALIZED FREE ENERGY PREDICTED BY IDOCK:   -4.46 KCAL/MOL
REMARK 922        TOTAL FREE ENERGY PREDICTED BY IDOCK:   -8.34 KCAL/MOL
REMARK 923 INTER-LIGAND FREE ENERGY PREDICTED BY IDOCK:   -8.00 KCAL/MOL
REMARK 924 INTRA-LIGAND FREE ENERGY PREDICTED BY IDOCK:   -0.34 KCAL/MOL
REMARK 927      BINDING AFFINITY PREDICTED BY RF-SCORE:    0.00 PKD
ROOT
HETATM    1  C   UNL     1     -13.450  15.251  71.436  1.00  0.00    -0.505 C  
HETATM    2  O   UNL     1     -12.371  14.332  71.529  1.00  0.00    -0.341 OA 
ENDROOT
BRANCH   2   3
HETATM    3  C   UNL     1     -12.258  13.366  70.569  1.00  0.00    -0.352 A  
HETATM    4  C   UNL     1     -12.431  11.982  70.706  1.00  0.00    -0.279 A  
HETATM    5  C   UNL     1     -11.845  13.878  69.334  1.00  0.00    -0.384 A  
HETATM    6  C   UNL     1     -12.165  11.150  69.609  1.00  0.00    -0.360 A  
HETATM    7  C   UNL     1     -11.610  11.645  68.408  1.00  0.00    -0.376 A  
HETATM    8 BR   UNL     1     -11.087  13.884  66.622  1.00  0.00    -0.319 Br 
HETATM    9  C   UNL     1     -11.547  13.038  68.259  1.00  0.00    -0.340 A  
BRANCH   4  10
HETATM   10  O   UNL     1     -12.875  11.472  71.892  1.00  0.00    -0.384 OA 
HETATM   11  C   UNL     1     -13.134  10.067  71.905  1.00  0.00    -0.460 C  
ENDBRANCH   4  10
BRANCH   7  12
HETATM   12  C   UNL     1     -10.983  10.670  67.422  1.00  0.00    -0.298 C  
BRANCH  12  13
HETATM   13  N   UNL     1      -9.443  10.379  67.674  1.00  0.00    -0.148 N  
HETATM   14  O   UNL     1      -6.883   9.968  66.233  1.00  0.00    -0.089 OA 
HETATM   15  C   UNL     1      -9.023   9.042  66.980  1.00  0.00    -0.126 C  
HETATM   16  C   UNL     1      -7.489   8.890  66.948  1.00  0.00    -0.083 C  
HETATM   17  C   UNL     1      -8.644  11.503  66.945  1.00  0.00    -0.163 C  
HETATM   18  C   UNL     1      -7.143  11.224  66.861  1.00  0.00    -0.139 C  
BRANCH  13  19
HETATM   19  C   UNL     1      -9.125  10.334  69.208  1.00  0.00    -0.194 C  
BRANCH  19  20
HETATM   20  C   UNL     1      -9.501   8.968  69.819  1.00  0.00    -0.175 C  
BRANCH  20  21
HETATM   21  O   UNL     1      -9.026   8.763  71.146  1.00  0.00    -0.182 OA 
BRANCH  21  22
HETATM   22  C   UNL     1     -10.077   8.932  72.135  1.00  0.00    -0.217 C  
BRANCH  22  23
HETATM   23  C   UNL     1     -10.312   7.672  72.971  1.00  0.00    -0.393 C  
BRANCH  23  24
HETATM   24  C   UNL     1     -10.249   6.318  72.240  1.00  0.00    -0.209 C  
HETATM   25  C   UNL     1     -11.394   5.421  72.789  1.00  0.00    -0.358 C  
HETATM   26  C   UNL     1     -10.948   4.288  73.724  1.00  0.00    -0.344 C  
HETATM   27  C   UNL     1      -9.475   3.931  73.526  1.00  0.00    -0.126 C  
HETATM   28  C   UNL     1      -8.607   5.178  73.866  1.00  0.00    -0.113 C  
HETATM   29  C   UNL     1      -8.883   5.601  72.390  1.00  0.00    -0.135 C  
HETATM   30  C   UNL     1      -8.867   4.031  72.066  1.00  0.00    -0.136 C  
HETATM   31  C   UNL     1      -9.692   3.532  70.876  1.00  0.00    -0.213 C  
HETATM   32  C   UNL     1      -7.484   3.350  71.953  1.00  0.00    -0.052 C  
ENDBRANCH  23  24
ENDBRANCH  22  23
ENDBRANCH  21  22
ENDBRANCH  20  21
ENDBRANCH  19  20
ENDBRANCH  13  19
ENDBRANCH  12  13
ENDBRANCH   7  12
ENDBRANCH   2   3
TORSDOF 10
ENDMDL
MODEL      132
REMARK 921   NORMALIZED FREE ENERGY PREDICTED BY IDOCK:   -4.45 KCAL/MOL
REMARK 922        TOTAL FREE ENERGY PREDICTED BY IDOCK:   -8.32 KCAL/MOL
REMARK 923 INTER-LIGAND FREE ENERGY PREDICTED BY IDOCK:   -7.99 KCAL/MOL
REMARK 924 INTRA-LIGAND FREE ENERGY PREDICTED BY IDOCK:   -0.33 KCAL/MOL
REMARK 927      BINDING AFFINITY PREDICTED BY RF-SCORE:    0.00 PKD
ROOT
HETATM    1  C   UNL     1      -9.589   3.314  70.685  1.00  0.00    -0.153 C  
HETATM    2  O   UNL     1      -9.744   3.988  69.445  1.00  0.00    -0.193 OA 
ENDROOT
BRANCH   2   3
HETATM    3  C   UNL     1     -10.052   5.319  69.465  1.00  0.00    -0.252 A  
HETATM    4  C   UNL     1     -10.578   6.105  68.431  1.00  0.00    -0.265 A  
HETATM    5  C   UNL     1      -9.706   5.935  70.674  1.00  0.00    -0.217 A  
HETATM    6  C   UNL     1     -10.723   7.485  68.630  1.00  0.00    -0.111 A  
HETATM    7  C   UNL     1     -10.242   8.132  69.790  1.00  0.00    -0.203 A  
HETATM    8 BR   UNL     1      -9.399   7.991  72.573  1.00  0.00    -0.321 Br 
HETATM    9  C   UNL     1      -9.820   7.315  70.848  1.00  0.00    -0.184 A  
BRANCH   4  10
HETATM   10  O   UNL     1     -10.959   5.512  67.261  1.00  0.00    -0.153 OA 
HETATM   11  C   UNL     1      -9.928   5.345  66.287  1.00  0.00    -0.170 C  
ENDBRANCH   4  10
BRANCH   7  12
HETATM   12  C   UNL     1     -10.068   9.644  69.781  1.00  0.00    -0.233 C  
BRANCH  12  13
HETATM   13  N   UNL     1      -9.450  10.225  68.439  1.00  0.00    -0.142 N  
HETATM   14  O   UNL     1      -6.854  10.892  67.167  1.00  0.00    -0.082 OA 
HETATM   15  C   UNL     1      -8.623  11.519  68.737  1.00  0.00    -0.052 C  
HETATM   16  C   UNL     1      -7.770  11.928  67.520  1.00  0.00    -0.151 C  
HETATM   17  C   UNL     1      -8.418   9.175  67.923  1.00  0.00    -0.117 C  
HETATM   18  C   UNL     1      -7.537   9.696  66.787  1.00  0.00    -0.098 C  
BRANCH  13  19
HETATM   19  C   UNL     1     -10.572  10.512  67.383  1.00  0.00    -0.263 C  
BRANCH  19  20
HETATM   20  C   UNL     1     -11.695  11.384  67.981  1.00  0.00    -0.254 C  
BRANCH  20  21
HETATM   21  O   UNL     1     -12.065  12.502  67.180  1.00  0.00    -0.504 OA 
BRANCH  21  22
HETATM   22  C   UNL     1     -11.858  13.762  67.873  1.00  0.00    -0.378 C  
BRANCH  22  23
HETATM   23  C   UNL     1     -10.516  14.415  67.529  1.00  0.00    -0.252 C  
BRANCH  23  24
HETATM   24  C   UNL     1     -10.554  15.840  66.948  1.00  0.00    -0.317 C  
HETATM   25  C   UNL     1      -9.429  15.953  65.881  1.00  0.00    -0.372 C  
HETATM   26  C   UNL     1      -8.203  16.773  66.304  1.00  0.00    -0.359 C  
HETATM   27  C   UNL     1      -8.526  17.737  67.447  1.00  0.00    -0.230 C  
HETATM   28  C   UNL     1      -8.978  16.910  68.686  1.00  0.00    -0.266 C  
HETATM   29  C   UNL     1     -10.390  16.946  68.023  1.00  0.00    -0.334 C  
HETATM   30  C   UNL     1      -9.967  18.396  67.487  1.00  0.00    -0.349 C  
HETATM   31  C   UNL     1     -10.597  18.898  66.185  1.00  0.00    -0.476 C  
HETATM   32  C   UNL     1     -10.052  19.569  68.491  1.00  0.00    -0.543 C  
ENDBRANCH  23  24
ENDBRANCH  22  23
ENDBRANCH  21  22
ENDBRANCH  20  21
ENDBRANCH  19  20
ENDBRANCH  13  19
ENDBRANCH  12  13
ENDBRANCH   7  12
ENDBRANCH   2   3
TORSDOF 10
ENDMDL
MODEL      133
REMARK 921   NORMALIZED FREE ENERGY PREDICTED BY IDOCK:   -4.44 KCAL/MOL
REMARK 922        TOTAL FREE ENERGY PREDICTED BY IDOCK:   -8.31 KCAL/MOL
REMARK 923 INTER-LIGAND FREE ENERGY PREDICTED BY IDOCK:   -7.71 KCAL/MOL
REMARK 924 INTRA-LIGAND FREE ENERGY PREDICTED BY IDOCK:   -0.61 KCAL/MOL
REMARK 927      BINDING AFFINITY PREDICTED BY RF-SCORE:    0.00 PKD
ROOT
HETATM    1  C   UNL     1      -8.122   3.491  70.969  1.00  0.00    -0.065 C  
HETATM    2  O   UNL     1      -7.828   4.440  71.984  1.00  0.00    -0.085 OA 
ENDROOT
BRANCH   2   3
HETATM    3  C   UNL     1      -8.086   5.758  71.732  1.00  0.00    -0.118 A  
HETATM    4  C   UNL     1      -9.257   6.480  72.001  1.00  0.00    -0.147 A  
HETATM    5  C   UNL     1      -7.040   6.393  71.054  1.00  0.00    -0.070 A  
HETATM    6  C   UNL     1      -9.354   7.809  71.565  1.00  0.00    -0.165 A  
HETATM    7  C   UNL     1      -8.363   8.408  70.755  1.00  0.00    -0.139 A  
HETATM    8 BR   UNL     1      -5.623   8.461  69.772  1.00  0.00    -0.029 Br 
HETATM    9  C   UNL     1      -7.160   7.705  70.592  1.00  0.00    -0.054 A  
BRANCH   4  10
HETATM   10  O   UNL     1     -10.270   5.886  72.698  1.00  0.00    -0.177 OA 
HETATM   11  C   UNL     1     -11.585   6.095  72.180  1.00  0.00    -0.317 C  
ENDBRANCH   4  10
BRANCH   7  12
HETATM   12  C   UNL     1      -8.694   9.684  69.996  1.00  0.00    -0.231 C  
BRANCH  12  13
HETATM   13  N   UNL     1      -9.651   9.475  68.747  1.00  0.00    -0.155 N  
HETATM   14  O   UNL     1      -9.623   8.606  65.910  1.00  0.00    -0.220 OA 
HETATM   15  C   UNL     1      -9.186  10.369  67.551  1.00  0.00    -0.145 C  
HETATM   16  C   UNL     1      -9.899   9.967  66.244  1.00  0.00    -0.245 C  
HETATM   17  C   UNL     1      -9.459   8.002  68.271  1.00  0.00    -0.141 C  
HETATM   18  C   UNL     1     -10.105   7.713  66.915  1.00  0.00    -0.278 C  
BRANCH  13  19
HETATM   19  C   UNL     1     -11.141   9.780  69.124  1.00  0.00    -0.123 C  
BRANCH  19  20
HETATM   20  C   UNL     1     -11.308  11.231  69.620  1.00  0.00    -0.287 C  
BRANCH  20  21
HETATM   21  O   UNL     1     -11.943  12.104  68.692  1.00  0.00    -0.318 OA 
BRANCH  21  22
HETATM   22  C   UNL     1     -11.934  13.485  69.146  1.00  0.00    -0.333 C  
BRANCH  22  23
HETATM   23  C   UNL     1     -11.621  14.477  68.023  1.00  0.00    -0.364 C  
BRANCH  23  24
HETATM   24  C   UNL     1     -11.027  13.905  66.722  1.00  0.00    -0.301 C  
HETATM   25  C   UNL     1     -10.385  15.079  65.931  1.00  0.00    -0.329 C  
HETATM   26  C   UNL     1     -11.168  15.542  64.694  1.00  0.00    -0.381 C  
HETATM   27  C   UNL     1     -12.119  14.460  64.182  1.00  0.00    -0.405 C  
HETATM   28  C   UNL     1     -13.160  14.139  65.294  1.00  0.00    -0.123 C  
HETATM   29  C   UNL     1     -12.070  13.168  65.843  1.00  0.00    -0.501 C  
HETATM   30  C   UNL     1     -11.669  12.945  64.306  1.00  0.00    -0.445 C  
HETATM   31  C   UNL     1     -10.221  12.566  63.985  1.00  0.00    -0.390 C  
HETATM   32  C   UNL     1     -12.562  11.993  63.478  1.00  0.00    -0.625 C  
ENDBRANCH  23  24
ENDBRANCH  22  23
ENDBRANCH  21  22
ENDBRANCH  20  21
ENDBRANCH  19  20
ENDBRANCH  13  19
ENDBRANCH  12  13
ENDBRANCH   7  12
ENDBRANCH   2   3
TORSDOF 10
ENDMDL
MODEL      134
REMARK 921   NORMALIZED FREE ENERGY PREDICTED BY IDOCK:   -4.44 KCAL/MOL
REMARK 922        TOTAL FREE ENERGY PREDICTED BY IDOCK:   -8.31 KCAL/MOL
REMARK 923 INTER-LIGAND FREE ENERGY PREDICTED BY IDOCK:   -8.01 KCAL/MOL
REMARK 924 INTRA-LIGAND FREE ENERGY PREDICTED BY IDOCK:   -0.29 KCAL/MOL
REMARK 927      BINDING AFFINITY PREDICTED BY RF-SCORE:    0.00 PKD
ROOT
HETATM    1  C   UNL     1     -12.186  15.863  73.122  1.00  0.00    -0.516 C  
HETATM    2  O   UNL     1     -12.588  16.214  71.806  1.00  0.00    -0.418 OA 
ENDROOT
BRANCH   2   3
HETATM    3  C   UNL     1     -12.115  15.468  70.763  1.00  0.00    -0.390 A  
HETATM    4  C   UNL     1     -12.446  14.151  70.418  1.00  0.00    -0.357 A  
HETATM    5  C   UNL     1     -11.125  16.132  70.030  1.00  0.00    -0.363 A  
HETATM    6  C   UNL     1     -11.763  13.531  69.362  1.00  0.00    -0.381 A  
HETATM    7  C   UNL     1     -10.666  14.143  68.715  1.00  0.00    -0.265 A  
HETATM    8 BR   UNL     1      -9.177  16.552  68.041  1.00  0.00    -0.217 Br 
HETATM    9  C   UNL     1     -10.425  15.493  69.005  1.00  0.00    -0.231 A  
BRANCH   4  10
HETATM   10  O   UNL     1     -13.440  13.505  71.097  1.00  0.00    -0.159 OA 
HETATM   11  C   UNL     1     -13.040  12.339  71.818  1.00  0.00    -0.344 C  
ENDBRANCH   4  10
BRANCH   7  12
HETATM   12  C   UNL     1      -9.731  13.290  67.871  1.00  0.00    -0.224 C  
BRANCH  12  13
HETATM   13  N   UNL     1     -10.326  12.858  66.464  1.00  0.00    -0.260 N  
HETATM   14  O   UNL     1     -12.289  13.702  64.406  1.00  0.00    -0.527 OA 
HETATM   15  C   UNL     1     -11.870  12.639  66.571  1.00  0.00    -0.396 C  
HETATM   16  C   UNL     1     -12.515  12.520  65.175  1.00  0.00    -0.379 C  
HETATM   17  C   UNL     1     -10.137  14.071  65.501  1.00  0.00    -0.320 C  
HETATM   18  C   UNL     1     -10.896  13.923  64.182  1.00  0.00     0.000 C  
BRANCH  13  19
HETATM   19  C   UNL     1      -9.616  11.568  65.927  1.00  0.00    -0.230 C  
BRANCH  19  20
HETATM   20  C   UNL     1     -10.134  10.304  66.642  1.00  0.00    -0.223 C  
BRANCH  20  21
HETATM   21  O   UNL     1      -9.167   9.646  67.454  1.00  0.00    -0.130 OA 
BRANCH  21  22
HETATM   22  C   UNL     1      -9.752   9.102  68.668  1.00  0.00    -0.155 C  
BRANCH  22  23
HETATM   23  C   UNL     1      -8.903   7.989  69.288  1.00  0.00    -0.141 C  
BRANCH  23  24
HETATM   24  C   UNL     1      -9.524   7.194  70.452  1.00  0.00    -0.162 C  
HETATM   25  C   UNL     1      -8.736   7.544  71.746  1.00  0.00    -0.128 C  
HETATM   26  C   UNL     1      -7.791   6.446  72.255  1.00  0.00    -0.102 C  
HETATM   27  C   UNL     1      -8.180   5.066  71.725  1.00  0.00    -0.116 C  
HETATM   28  C   UNL     1      -8.077   5.079  70.171  1.00  0.00    -0.081 C  
HETATM   29  C   UNL     1      -9.524   5.661  70.218  1.00  0.00    -0.202 C  
HETATM   30  C   UNL     1      -9.719   4.746  71.520  1.00  0.00    -0.235 C  
HETATM   31  C   UNL     1     -10.725   5.204  72.580  1.00  0.00    -0.286 C  
HETATM   32  C   UNL     1      -9.984   3.241  71.289  1.00  0.00    -0.071 C  
ENDBRANCH  23  24
ENDBRANCH  22  23
ENDBRANCH  21  22
ENDBRANCH  20  21
ENDBRANCH  19  20
ENDBRANCH  13  19
ENDBRANCH  12  13
ENDBRANCH   7  12
ENDBRANCH   2   3
TORSDOF 10
ENDMDL
MODEL      135
REMARK 921   NORMALIZED FREE ENERGY PREDICTED BY IDOCK:   -4.40 KCAL/MOL
REMARK 922        TOTAL FREE ENERGY PREDICTED BY IDOCK:   -8.25 KCAL/MOL
REMARK 923 INTER-LIGAND FREE ENERGY PREDICTED BY IDOCK:   -7.66 KCAL/MOL
REMARK 924 INTRA-LIGAND FREE ENERGY PREDICTED BY IDOCK:   -0.59 KCAL/MOL
REMARK 927      BINDING AFFINITY PREDICTED BY RF-SCORE:    0.00 PKD
ROOT
HETATM    1  C   UNL     1     -12.791  14.523  72.363  1.00  0.00    -0.360 C  
HETATM    2  O   UNL     1     -13.122  13.144  72.427  1.00  0.00    -0.402 OA 
ENDROOT
BRANCH   2   3
HETATM    3  C   UNL     1     -12.864  12.364  71.334  1.00  0.00    -0.260 A  
HETATM    4  C   UNL     1     -12.931  10.968  71.228  1.00  0.00    -0.372 A  
HETATM    5  C   UNL     1     -12.408  13.106  70.238  1.00  0.00    -0.319 A  
HETATM    6  C   UNL     1     -12.522  10.355  70.035  1.00  0.00    -0.186 A  
HETATM    7  C   UNL     1     -11.926  11.084  68.981  1.00  0.00    -0.364 A  
HETATM    8 BR   UNL     1     -11.467  13.624  67.635  1.00  0.00    -0.381 Br 
HETATM    9  C   UNL     1     -11.968  12.483  69.068  1.00  0.00    -0.233 A  
BRANCH   4  10
HETATM   10  O   UNL     1     -13.413  10.235  72.274  1.00  0.00    -0.377 OA 
HETATM   11  C   UNL     1     -13.601   8.842  72.021  1.00  0.00    -0.441 C  
ENDBRANCH   4  10
BRANCH   7  12
HETATM   12  C   UNL     1     -11.155  10.336  67.904  1.00  0.00    -0.276 C  
BRANCH  12  13
HETATM   13  N   UNL     1      -9.694   9.887  68.334  1.00  0.00    -0.147 N  
HETATM   14  O   UNL     1      -8.270   8.038  70.166  1.00  0.00    -0.116 OA 
HETATM   15  C   UNL     1      -9.473  10.148  69.860  1.00  0.00    -0.107 C  
HETATM   16  C   UNL     1      -8.194   9.450  70.365  1.00  0.00    -0.188 C  
HETATM   17  C   UNL     1      -9.626   8.339  68.157  1.00  0.00    -0.150 C  
HETATM   18  C   UNL     1      -8.379   7.710  68.781  1.00  0.00    -0.129 C  
BRANCH  13  19
HETATM   19  C   UNL     1      -8.606  10.623  67.479  1.00  0.00    -0.122 C  
BRANCH  19  20
HETATM   20  C   UNL     1      -8.303  12.026  68.045  1.00  0.00    -0.162 C  
BRANCH  20  21
HETATM   21  O   UNL     1      -7.998  13.007  67.059  1.00  0.00    -0.122 OA 
BRANCH  21  22
HETATM   22  C   UNL     1      -7.547  14.255  67.652  1.00  0.00    -0.176 C  
BRANCH  22  23
HETATM   23  C   UNL     1      -7.723  15.453  66.716  1.00  0.00    -0.045 C  
BRANCH  23  24
HETATM   24  C   UNL     1      -8.147  16.789  67.353  1.00  0.00    -0.190 C  
HETATM   25  C   UNL     1      -8.447  17.795  66.206  1.00  0.00    -0.225 C  
HETATM   26  C   UNL     1      -7.388  18.887  65.998  1.00  0.00    -0.289 C  
HETATM   27  C   UNL     1      -6.535  19.101  67.249  1.00  0.00    -0.195 C  
HETATM   28  C   UNL     1      -5.778  17.780  67.571  1.00  0.00    -0.151 C  
HETATM   29  C   UNL     1      -7.085  17.374  68.319  1.00  0.00    -0.203 C  
HETATM   30  C   UNL     1      -7.225  18.933  68.666  1.00  0.00    -0.333 C  
HETATM   31  C   UNL     1      -8.630  19.500  68.886  1.00  0.00    -0.292 C  
HETATM   32  C   UNL     1      -6.350  19.479  69.818  1.00  0.00    -0.345 C  
ENDBRANCH  23  24
ENDBRANCH  22  23
ENDBRANCH  21  22
ENDBRANCH  20  21
ENDBRANCH  19  20
ENDBRANCH  13  19
ENDBRANCH  12  13
ENDBRANCH   7  12
ENDBRANCH   2   3
TORSDOF 10
ENDMDL
MODEL      136
REMARK 921   NORMALIZED FREE ENERGY PREDICTED BY IDOCK:   -4.40 KCAL/MOL
REMARK 922        TOTAL FREE ENERGY PREDICTED BY IDOCK:   -8.25 KCAL/MOL
REMARK 923 INTER-LIGAND FREE ENERGY PREDICTED BY IDOCK:   -7.39 KCAL/MOL
REMARK 924 INTRA-LIGAND FREE ENERGY PREDICTED BY IDOCK:   -0.86 KCAL/MOL
REMARK 927      BINDING AFFINITY PREDICTED BY RF-SCORE:    0.00 PKD
ROOT
HETATM    1  C   UNL     1     -12.062  15.755  71.219  1.00  0.00    -0.437 C  
HETATM    2  O   UNL     1     -12.397  14.407  71.518  1.00  0.00    -0.336 OA 
ENDROOT
BRANCH   2   3
HETATM    3  C   UNL     1     -12.300  13.479  70.519  1.00  0.00    -0.342 A  
HETATM    4  C   UNL     1     -12.433  12.087  70.612  1.00  0.00    -0.247 A  
HETATM    5  C   UNL     1     -11.952  14.045  69.288  1.00  0.00    -0.396 A  
HETATM    6  C   UNL     1     -12.192  11.302  69.475  1.00  0.00    -0.325 A  
HETATM    7  C   UNL     1     -11.699  11.854  68.271  1.00  0.00    -0.385 A  
HETATM    8 BR   UNL     1     -11.308  14.169  66.549  1.00  0.00    -0.364 Br 
HETATM    9  C   UNL     1     -11.678  13.252  68.171  1.00  0.00    -0.362 A  
BRANCH   4  10
HETATM   10  O   UNL     1     -12.814  11.524  71.796  1.00  0.00    -0.399 OA 
HETATM   11  C   UNL     1     -13.015  10.110  71.773  1.00  0.00    -0.462 C  
ENDBRANCH   4  10
BRANCH   7  12
HETATM   12  C   UNL     1     -11.090  10.932  67.225  1.00  0.00    -0.283 C  
BRANCH  12  13
HETATM   13  N   UNL     1      -9.543  10.637  67.431  1.00  0.00    -0.157 N  
HETATM   14  O   UNL     1      -6.910  11.996  67.559  1.00  0.00    -0.102 OA 
HETATM   15  C   UNL     1      -8.730  11.112  66.182  1.00  0.00    -0.186 C  
HETATM   16  C   UNL     1      -7.216  11.120  66.474  1.00  0.00    -0.124 C  
HETATM   17  C   UNL     1      -9.065  11.535  68.613  1.00  0.00    -0.120 C  
HETATM   18  C   UNL     1      -7.543  11.575  68.768  1.00  0.00    -0.129 C  
BRANCH  13  19
HETATM   19  C   UNL     1      -9.295   9.116  67.712  1.00  0.00    -0.136 C  
BRANCH  19  20
HETATM   20  C   UNL     1     -10.427   8.513  68.570  1.00  0.00    -0.167 C  
BRANCH  20  21
HETATM   21  O   UNL     1     -10.016   8.062  69.857  1.00  0.00    -0.185 OA 
BRANCH  21  22
HETATM   22  C   UNL     1     -10.426   6.691  70.112  1.00  0.00    -0.210 C  
BRANCH  22  23
HETATM   23  C   UNL     1     -10.975   5.995  68.864  1.00  0.00    -0.395 C  
BRANCH  23  24
HETATM   24  C   UNL     1     -10.244   4.729  68.382  1.00  0.00    -0.052 C  
HETATM   25  C   UNL     1      -8.796   4.766  68.947  1.00  0.00    -0.120 C  
HETATM   26  C   UNL     1      -7.701   5.095  67.923  1.00  0.00    -0.087 C  
HETATM   27  C   UNL     1      -8.153   4.809  66.491  1.00  0.00    -0.107 C  
HETATM   28  C   UNL     1      -9.378   5.711  66.162  1.00  0.00    -0.167 C  
HETATM   29  C   UNL     1     -10.217   4.584  66.839  1.00  0.00    -0.148 C  
HETATM   30  C   UNL     1      -9.121   3.578  66.241  1.00  0.00    -0.161 C  
HETATM   31  C   UNL     1      -8.866   2.264  66.983  1.00  0.00    -0.150 C  
HETATM   32  C   UNL     1      -9.242   3.216  64.743  1.00  0.00    -0.145 C  
ENDBRANCH  23  24
ENDBRANCH  22  23
ENDBRANCH  21  22
ENDBRANCH  20  21
ENDBRANCH  19  20
ENDBRANCH  13  19
ENDBRANCH  12  13
ENDBRANCH   7  12
ENDBRANCH   2   3
TORSDOF 10
ENDMDL
MODEL      137
REMARK 921   NORMALIZED FREE ENERGY PREDICTED BY IDOCK:   -4.38 KCAL/MOL
REMARK 922        TOTAL FREE ENERGY PREDICTED BY IDOCK:   -8.22 KCAL/MOL
REMARK 923 INTER-LIGAND FREE ENERGY PREDICTED BY IDOCK:   -7.29 KCAL/MOL
REMARK 924 INTRA-LIGAND FREE ENERGY PREDICTED BY IDOCK:   -0.93 KCAL/MOL
REMARK 927      BINDING AFFINITY PREDICTED BY RF-SCORE:    0.00 PKD
ROOT
HETATM    1  C   UNL     1     -12.904   7.182  71.301  1.00  0.00    -0.349 C  
HETATM    2  O   UNL     1     -11.729   6.531  71.760  1.00  0.00    -0.296 OA 
ENDROOT
BRANCH   2   3
HETATM    3  C   UNL     1     -10.596   6.628  71.001  1.00  0.00    -0.226 A  
HETATM    4  C   UNL     1      -9.576   7.586  71.082  1.00  0.00    -0.158 A  
HETATM    5  C   UNL     1     -10.543   5.667  69.985  1.00  0.00    -0.388 A  
HETATM    6  C   UNL     1      -8.546   7.566  70.132  1.00  0.00    -0.141 A  
HETATM    7  C   UNL     1      -8.563   6.692  69.022  1.00  0.00    -0.130 A  
HETATM    8 BR   UNL     1      -9.541   4.256  67.764  1.00  0.00    -0.188 Br 
HETATM    9  C   UNL     1      -9.531   5.678  69.023  1.00  0.00    -0.126 A  
BRANCH   4  10
HETATM   10  O   UNL     1      -9.593   8.504  72.093  1.00  0.00    -0.262 OA 
HETATM   11  C   UNL     1      -9.032   8.071  73.332  1.00  0.00    -0.274 C  
ENDBRANCH   4  10
BRANCH   7  12
HETATM   12  C   UNL     1      -7.652   6.976  67.838  1.00  0.00    -0.111 C  
BRANCH  12  13
HETATM   13  N   UNL     1      -8.285   7.927  66.735  1.00  0.00    -0.113 N  
HETATM   14  O   UNL     1      -7.546   9.598  64.398  1.00  0.00    -0.117 OA 
HETATM   15  C   UNL     1      -7.664   9.359  66.831  1.00  0.00    -0.091 C  
HETATM   16  C   UNL     1      -8.028  10.208  65.596  1.00  0.00    -0.147 C  
HETATM   17  C   UNL     1      -7.843   7.368  65.347  1.00  0.00    -0.118 C  
HETATM   18  C   UNL     1      -8.142   8.318  64.186  1.00  0.00    -0.136 C  
BRANCH  13  19
HETATM   19  C   UNL     1      -9.845   7.986  66.873  1.00  0.00    -0.248 C  
BRANCH  19  20
HETATM   20  C   UNL     1     -10.316   9.384  67.324  1.00  0.00    -0.260 C  
BRANCH  20  21
HETATM   21  O   UNL     1     -11.037   9.397  68.552  1.00  0.00    -0.084 OA 
BRANCH  21  22
HETATM   22  C   UNL     1     -11.049  10.715  69.164  1.00  0.00    -0.255 C  
BRANCH  22  23
HETATM   23  C   UNL     1     -10.037  11.672  68.530  1.00  0.00    -0.210 C  
BRANCH  23  24
HETATM   24  C   UNL     1     -10.425  13.160  68.455  1.00  0.00    -0.262 C  
HETATM   25  C   UNL     1     -11.940  13.246  68.117  1.00  0.00    -0.340 C  
HETATM   26  C   UNL     1     -12.268  13.678  66.681  1.00  0.00    -0.437 C  
HETATM   27  C   UNL     1     -11.107  14.432  66.032  1.00  0.00    -0.324 C  
HETATM   28  C   UNL     1      -9.873  13.486  65.958  1.00  0.00    -0.277 C  
HETATM   29  C   UNL     1      -9.595  13.960  67.418  1.00  0.00    -0.235 C  
HETATM   30  C   UNL     1     -10.211  15.364  66.949  1.00  0.00    -0.273 C  
HETATM   31  C   UNL     1     -10.884  16.246  68.004  1.00  0.00    -0.339 C  
HETATM   32  C   UNL     1      -9.292  16.295  66.126  1.00  0.00    -0.374 C  
ENDBRANCH  23  24
ENDBRANCH  22  23
ENDBRANCH  21  22
ENDBRANCH  20  21
ENDBRANCH  19  20
ENDBRANCH  13  19
ENDBRANCH  12  13
ENDBRANCH   7  12
ENDBRANCH   2   3
TORSDOF 10
ENDMDL
MODEL      138
REMARK 921   NORMALIZED FREE ENERGY PREDICTED BY IDOCK:   -4.36 KCAL/MOL
REMARK 922        TOTAL FREE ENERGY PREDICTED BY IDOCK:   -8.18 KCAL/MOL
REMARK 923 INTER-LIGAND FREE ENERGY PREDICTED BY IDOCK:   -8.09 KCAL/MOL
REMARK 924 INTRA-LIGAND FREE ENERGY PREDICTED BY IDOCK:   -0.09 KCAL/MOL
REMARK 927      BINDING AFFINITY PREDICTED BY RF-SCORE:    0.00 PKD
ROOT
HETATM    1  C   UNL     1     -12.102  15.862  73.361  1.00  0.00    -0.482 C  
HETATM    2  O   UNL     1     -12.610  16.254  72.094  1.00  0.00    -0.409 OA 
ENDROOT
BRANCH   2   3
HETATM    3  C   UNL     1     -12.218  15.547  70.992  1.00  0.00    -0.396 A  
HETATM    4  C   UNL     1     -12.563  14.237  70.633  1.00  0.00    -0.355 A  
HETATM    5  C   UNL     1     -11.300  16.246  70.200  1.00  0.00    -0.292 A  
HETATM    6  C   UNL     1     -11.964  13.659  69.505  1.00  0.00    -0.397 A  
HETATM    7  C   UNL     1     -10.931  14.305  68.788  1.00  0.00    -0.271 A  
HETATM    8 BR   UNL     1      -9.530  16.753  68.070  1.00  0.00    -0.238 Br 
HETATM    9  C   UNL     1     -10.681  15.649  69.100  1.00  0.00    -0.243 A  
BRANCH   4  10
HETATM   10  O   UNL     1     -13.489  13.557  71.372  1.00  0.00    -0.273 OA 
HETATM   11  C   UNL     1     -13.002  12.413  72.074  1.00  0.00    -0.271 C  
ENDBRANCH   4  10
BRANCH   7  12
HETATM   12  C   UNL     1     -10.061  13.491  67.843  1.00  0.00    -0.248 C  
BRANCH  12  13
HETATM   13  N   UNL     1     -10.658  13.321  66.381  1.00  0.00    -0.281 N  
HETATM   14  O   UNL     1     -12.756  14.402  64.583  1.00  0.00    -0.655 OA 
HETATM   15  C   UNL     1     -12.172  12.936  66.454  1.00  0.00    -0.231 C  
HETATM   16  C   UNL     1     -12.847  13.064  65.074  1.00  0.00    -0.295 C  
HETATM   17  C   UNL     1     -10.613  14.729  65.709  1.00  0.00    -0.327 C  
HETATM   18  C   UNL     1     -11.397  14.800  64.397  1.00  0.00    -0.213 C  
BRANCH  13  19
HETATM   19  C   UNL     1      -9.850  12.256  65.565  1.00  0.00    -0.206 C  
BRANCH  19  20
HETATM   20  C   UNL     1     -10.205  10.822  66.009  1.00  0.00    -0.251 C  
BRANCH  20  21
HETATM   21  O   UNL     1      -9.130   9.892  65.920  1.00  0.00    -0.148 OA 
BRANCH  21  22
HETATM   22  C   UNL     1      -9.490   8.589  66.454  1.00  0.00    -0.232 C  
BRANCH  22  23
HETATM   23  C   UNL     1      -8.737   7.442  65.775  1.00  0.00    -0.132 C  
BRANCH  23  24
HETATM   24  C   UNL     1      -9.106   6.008  66.197  1.00  0.00    -0.159 C  
HETATM   25  C   UNL     1     -10.370   6.083  67.099  1.00  0.00    -0.284 C  
HETATM   26  C   UNL     1     -10.122   5.848  68.595  1.00  0.00    -0.213 C  
HETATM   27  C   UNL     1      -8.822   5.084  68.846  1.00  0.00    -0.111 C  
HETATM   28  C   UNL     1      -7.631   5.932  68.310  1.00  0.00    -0.090 C  
HETATM   29  C   UNL     1      -7.959   5.271  66.935  1.00  0.00    -0.101 C  
HETATM   30  C   UNL     1      -8.382   3.984  67.793  1.00  0.00    -0.097 C  
HETATM   31  C   UNL     1      -9.439   3.042  67.210  1.00  0.00    -0.138 C  
HETATM   32  C   UNL     1      -7.241   3.084  68.320  1.00  0.00    -0.049 C  
ENDBRANCH  23  24
ENDBRANCH  22  23
ENDBRANCH  21  22
ENDBRANCH  20  21
ENDBRANCH  19  20
ENDBRANCH  13  19
ENDBRANCH  12  13
ENDBRANCH   7  12
ENDBRANCH   2   3
TORSDOF 10
ENDMDL
MODEL      139
REMARK 921   NORMALIZED FREE ENERGY PREDICTED BY IDOCK:   -4.35 KCAL/MOL
REMARK 922        TOTAL FREE ENERGY PREDICTED BY IDOCK:   -8.17 KCAL/MOL
REMARK 923 INTER-LIGAND FREE ENERGY PREDICTED BY IDOCK:   -7.70 KCAL/MOL
REMARK 924 INTRA-LIGAND FREE ENERGY PREDICTED BY IDOCK:   -0.47 KCAL/MOL
REMARK 927      BINDING AFFINITY PREDICTED BY RF-SCORE:    0.00 PKD
ROOT
HETATM    1  C   UNL     1     -13.414   9.675  71.978  1.00  0.00    -0.428 C  
HETATM    2  O   UNL     1     -13.301  11.076  72.187  1.00  0.00    -0.451 OA 
ENDROOT
BRANCH   2   3
HETATM    3  C   UNL     1     -12.771  11.839  71.185  1.00  0.00    -0.305 A  
HETATM    4  C   UNL     1     -12.645  13.234  71.129  1.00  0.00    -0.325 A  
HETATM    5  C   UNL     1     -12.392  11.080  70.072  1.00  0.00    -0.377 A  
HETATM    6  C   UNL     1     -12.163  13.828  69.955  1.00  0.00    -0.383 A  
HETATM    7  C   UNL     1     -11.917  13.082  68.781  1.00  0.00    -0.302 A  
HETATM    8 BR   UNL     1     -11.382  10.521  67.503  1.00  0.00     0.000 Br 
HETATM    9  C   UNL     1     -11.948  11.685  68.894  1.00  0.00    -0.292 A  
BRANCH   4  10
HETATM   10  O   UNL     1     -12.971  13.984  72.223  1.00  0.00    -0.365 OA 
HETATM   11  C   UNL     1     -13.917  15.030  71.997  1.00  0.00    -0.503 C  
ENDBRANCH   4  10
BRANCH   7  12
HETATM   12  C   UNL     1     -11.783  13.810  67.452  1.00  0.00    -0.382 C  
BRANCH  12  13
HETATM   13  N   UNL     1     -10.376  14.510  67.224  1.00  0.00    -0.259 N  
HETATM   14  O   UNL     1      -8.347  16.167  68.617  1.00  0.00    -0.187 OA 
HETATM   15  C   UNL     1     -10.495  16.053  67.448  1.00  0.00    -0.308 C  
HETATM   16  C   UNL     1      -9.103  16.712  67.535  1.00  0.00    -0.202 C  
HETATM   17  C   UNL     1      -9.427  13.992  68.349  1.00  0.00    -0.213 C  
HETATM   18  C   UNL     1      -8.112  14.769  68.440  1.00  0.00    -0.144 C  
BRANCH  13  19
HETATM   19  C   UNL     1      -9.817  14.195  65.795  1.00  0.00    -0.271 C  
BRANCH  19  20
HETATM   20  C   UNL     1     -10.575  13.020  65.143  1.00  0.00    -0.312 C  
BRANCH  20  21
HETATM   21  O   UNL     1      -9.808  12.267  64.209  1.00  0.00    -0.224 OA 
BRANCH  21  22
HETATM   22  C   UNL     1      -9.929  10.836  64.431  1.00  0.00    -0.338 C  
BRANCH  22  23
HETATM   23  C   UNL     1      -8.608  10.187  64.850  1.00  0.00    -0.188 C  
BRANCH  23  24
HETATM   24  C   UNL     1      -8.200  10.308  66.330  1.00  0.00    -0.131 C  
HETATM   25  C   UNL     1      -6.654  10.463  66.391  1.00  0.00    -0.099 C  
HETATM   26  C   UNL     1      -5.889   9.223  66.875  1.00  0.00    -0.051 C  
HETATM   27  C   UNL     1      -6.781   8.282  67.685  1.00  0.00    -0.062 C  
HETATM   28  C   UNL     1      -7.940   7.782  66.774  1.00  0.00    -0.107 C  
HETATM   29  C   UNL     1      -8.656   9.104  67.193  1.00  0.00    -0.122 C  
HETATM   30  C   UNL     1      -7.909   8.918  68.600  1.00  0.00    -0.102 C  
HETATM   31  C   UNL     1      -7.589  10.172  69.419  1.00  0.00    -0.133 C  
HETATM   32  C   UNL     1      -8.515   7.895  69.588  1.00  0.00    -0.132 C  
ENDBRANCH  23  24
ENDBRANCH  22  23
ENDBRANCH  21  22
ENDBRANCH  20  21
ENDBRANCH  19  20
ENDBRANCH  13  19
ENDBRANCH  12  13
ENDBRANCH   7  12
ENDBRANCH   2   3
TORSDOF 10
ENDMDL
MODEL      140
REMARK 921   NORMALIZED FREE ENERGY PREDICTED BY IDOCK:   -4.35 KCAL/MOL
REMARK 922        TOTAL FREE ENERGY PREDICTED BY IDOCK:   -8.16 KCAL/MOL
REMARK 923 INTER-LIGAND FREE ENERGY PREDICTED BY IDOCK:   -7.78 KCAL/MOL
REMARK 924 INTRA-LIGAND FREE ENERGY PREDICTED BY IDOCK:   -0.38 KCAL/MOL
REMARK 927      BINDING AFFINITY PREDICTED BY RF-SCORE:    0.00 PKD
ROOT
HETATM    1  C   UNL     1     -13.387  12.498  72.068  1.00  0.00    -0.426 C  
HETATM    2  O   UNL     1     -13.254  11.086  72.126  1.00  0.00    -0.481 OA 
ENDROOT
BRANCH   2   3
HETATM    3  C   UNL     1     -12.515  10.465  71.158  1.00  0.00    -0.404 A  
HETATM    4  C   UNL     1     -11.964   9.176  71.179  1.00  0.00    -0.308 A  
HETATM    5  C   UNL     1     -12.247  11.298  70.066  1.00  0.00    -0.389 A  
HETATM    6  C   UNL     1     -11.146   8.768  70.117  1.00  0.00    -0.214 A  
HETATM    7  C   UNL     1     -10.754   9.651  69.086  1.00  0.00    -0.237 A  
HETATM    8 BR   UNL     1     -11.208  12.098  67.574  1.00  0.00    -0.386 Br 
HETATM    9  C   UNL     1     -11.401  10.895  69.031  1.00  0.00    -0.281 A  
BRANCH   4  10
HETATM   10  O   UNL     1     -12.251   8.337  72.218  1.00  0.00    -0.344 OA 
HETATM   11  C   UNL     1     -11.135   7.649  72.784  1.00  0.00    -0.383 C  
ENDBRANCH   4  10
BRANCH   7  12
HETATM   12  C   UNL     1      -9.575   9.283  68.199  1.00  0.00    -0.143 C  
BRANCH  12  13
HETATM   13  N   UNL     1      -8.195   9.131  68.969  1.00  0.00    -0.112 N  
HETATM   14  O   UNL     1      -6.920   7.631  71.189  1.00  0.00    -0.049 OA 
HETATM   15  C   UNL     1      -8.380   9.466  70.486  1.00  0.00    -0.197 C  
HETATM   16  C   UNL     1      -7.147   9.037  71.305  1.00  0.00    -0.079 C  
HETATM   17  C   UNL     1      -7.811   7.620  68.915  1.00  0.00    -0.123 C  
HETATM   18  C   UNL     1      -6.648   7.255  69.839  1.00  0.00    -0.040 C  
BRANCH  13  19
HETATM   19  C   UNL     1      -7.091  10.040  68.328  1.00  0.00    -0.072 C  
BRANCH  19  20
HETATM   20  C   UNL     1      -7.058  11.433  68.990  1.00  0.00    -0.117 C  
BRANCH  20  21
HETATM   21  O   UNL     1      -7.507  12.495  68.154  1.00  0.00    -0.097 OA 
BRANCH  21  22
HETATM   22  C   UNL     1      -6.553  13.589  68.101  1.00  0.00    -0.121 C  
BRANCH  22  23
HETATM   23  C   UNL     1      -7.083  14.801  67.331  1.00  0.00    -0.173 C  
BRANCH  23  24
HETATM   24  C   UNL     1      -8.410  15.416  67.810  1.00  0.00    -0.156 C  
HETATM   25  C   UNL     1      -9.518  15.022  66.793  1.00  0.00    -0.263 C  
HETATM   26  C   UNL     1      -9.990  16.152  65.867  1.00  0.00    -0.384 C  
HETATM   27  C   UNL     1      -9.684  17.533  66.448  1.00  0.00    -0.299 C  
HETATM   28  C   UNL     1      -8.142  17.679  66.605  1.00  0.00    -0.286 C  
HETATM   29  C   UNL     1      -8.351  16.957  67.972  1.00  0.00    -0.204 C  
HETATM   30  C   UNL     1      -9.760  17.719  68.020  1.00  0.00    -0.304 C  
HETATM   31  C   UNL     1     -10.908  17.067  68.796  1.00  0.00    -0.258 C  
HETATM   32  C   UNL     1      -9.742  19.207  68.440  1.00  0.00    -0.451 C  
ENDBRANCH  23  24
ENDBRANCH  22  23
ENDBRANCH  21  22
ENDBRANCH  20  21
ENDBRANCH  19  20
ENDBRANCH  13  19
ENDBRANCH  12  13
ENDBRANCH   7  12
ENDBRANCH   2   3
TORSDOF 10
ENDMDL
MODEL      141
REMARK 921   NORMALIZED FREE ENERGY PREDICTED BY IDOCK:   -4.34 KCAL/MOL
REMARK 922        TOTAL FREE ENERGY PREDICTED BY IDOCK:   -8.16 KCAL/MOL
REMARK 923 INTER-LIGAND FREE ENERGY PREDICTED BY IDOCK:   -7.39 KCAL/MOL
REMARK 924 INTRA-LIGAND FREE ENERGY PREDICTED BY IDOCK:   -0.77 KCAL/MOL
REMARK 927      BINDING AFFINITY PREDICTED BY RF-SCORE:    0.00 PKD
ROOT
HETATM    1  C   UNL     1     -10.308   7.313  66.713  1.00  0.00    -0.241 C  
HETATM    2  O   UNL     1      -9.657   8.459  66.182  1.00  0.00    -0.221 OA 
ENDROOT
BRANCH   2   3
HETATM    3  C   UNL     1     -10.290   9.666  66.279  1.00  0.00    -0.160 A  
HETATM    4  C   UNL     1     -10.410  10.665  65.303  1.00  0.00    -0.251 A  
HETATM    5  C   UNL     1     -10.798   9.908  67.561  1.00  0.00    -0.307 A  
HETATM    6  C   UNL     1     -11.016  11.882  65.644  1.00  0.00    -0.353 A  
HETATM    7  C   UNL     1     -11.398  12.186  66.970  1.00  0.00    -0.398 A  
HETATM    8 BR   UNL     1     -12.093  11.282  69.649  1.00  0.00    -0.377 Br 
HETATM    9  C   UNL     1     -11.366  11.137  67.900  1.00  0.00    -0.309 A  
BRANCH   4  10
HETATM   10  O   UNL     1      -9.957  10.427  64.037  1.00  0.00    -0.323 OA 
HETATM   11  C   UNL     1     -10.103  11.507  63.114  1.00  0.00    -0.359 C  
ENDBRANCH   4  10
BRANCH   7  12
HETATM   12  C   UNL     1     -11.674  13.633  67.351  1.00  0.00    -0.381 C  
BRANCH  12  13
HETATM   13  N   UNL     1     -10.383  14.554  67.412  1.00  0.00    -0.251 N  
HETATM   14  O   UNL     1      -9.531  17.334  68.002  1.00  0.00    -0.259 OA 
HETATM   15  C   UNL     1     -10.524  15.754  66.419  1.00  0.00    -0.303 C  
HETATM   16  C   UNL     1      -9.439  16.819  66.673  1.00  0.00    -0.257 C  
HETATM   17  C   UNL     1     -10.347  15.189  68.837  1.00  0.00    -0.243 C  
HETATM   18  C   UNL     1      -9.317  16.312  68.976  1.00  0.00    -0.254 C  
BRANCH  13  19
HETATM   19  C   UNL     1      -9.088  13.727  67.106  1.00  0.00    -0.239 C  
BRANCH  19  20
HETATM   20  C   UNL     1      -8.587  12.985  68.363  1.00  0.00    -0.116 C  
BRANCH  20  21
HETATM   21  O   UNL     1      -7.802  11.828  68.093  1.00  0.00    -0.119 OA 
BRANCH  21  22
HETATM   22  C   UNL     1      -7.637  10.993  69.270  1.00  0.00    -0.089 C  
BRANCH  22  23
HETATM   23  C   UNL     1      -7.931   9.516  68.995  1.00  0.00    -0.092 C  
BRANCH  23  24
HETATM   24  C   UNL     1      -7.483   8.497  70.059  1.00  0.00    -0.060 C  
HETATM   25  C   UNL     1      -8.012   7.098  69.638  1.00  0.00    -0.124 C  
HETATM   26  C   UNL     1      -9.198   6.571  70.457  1.00  0.00    -0.156 C  
HETATM   27  C   UNL     1      -9.294   7.249  71.824  1.00  0.00    -0.161 C  
HETATM   28  C   UNL     1      -9.522   8.774  71.612  1.00  0.00    -0.358 C  
HETATM   29  C   UNL     1      -7.968   8.849  71.489  1.00  0.00    -0.119 C  
HETATM   30  C   UNL     1      -7.949   7.654  72.558  1.00  0.00    -0.131 C  
HETATM   31  C   UNL     1      -6.764   6.685  72.536  1.00  0.00    -0.063 C  
HETATM   32  C   UNL     1      -8.174   8.032  74.040  1.00  0.00    -0.316 C  
ENDBRANCH  23  24
ENDBRANCH  22  23
ENDBRANCH  21  22
ENDBRANCH  20  21
ENDBRANCH  19  20
ENDBRANCH  13  19
ENDBRANCH  12  13
ENDBRANCH   7  12
ENDBRANCH   2   3
TORSDOF 10
ENDMDL
MODEL      142
REMARK 921   NORMALIZED FREE ENERGY PREDICTED BY IDOCK:   -4.34 KCAL/MOL
REMARK 922        TOTAL FREE ENERGY PREDICTED BY IDOCK:   -8.15 KCAL/MOL
REMARK 923 INTER-LIGAND FREE ENERGY PREDICTED BY IDOCK:   -7.38 KCAL/MOL
REMARK 924 INTRA-LIGAND FREE ENERGY PREDICTED BY IDOCK:   -0.77 KCAL/MOL
REMARK 927      BINDING AFFINITY PREDICTED BY RF-SCORE:    0.00 PKD
ROOT
HETATM    1  C   UNL     1      -9.196  16.996  66.784  1.00  0.00    -0.252 C  
HETATM    2  O   UNL     1     -10.536  16.763  67.195  1.00  0.00    -0.317 OA 
ENDROOT
BRANCH   2   3
HETATM    3  C   UNL     1     -10.907  15.484  67.498  1.00  0.00    -0.306 A  
HETATM    4  C   UNL     1     -10.825  14.825  68.733  1.00  0.00    -0.255 A  
HETATM    5  C   UNL     1     -11.349  14.770  66.378  1.00  0.00    -0.339 A  
HETATM    6  C   UNL     1     -11.166  13.467  68.805  1.00  0.00    -0.311 A  
HETATM    7  C   UNL     1     -11.472  12.706  67.654  1.00  0.00    -0.390 A  
HETATM    8 BR   UNL     1     -12.325  12.600  64.873  1.00  0.00    -0.547 Br 
HETATM    9  C   UNL     1     -11.651  13.408  66.454  1.00  0.00    -0.346 A  
BRANCH   4  10
HETATM   10  O   UNL     1     -10.436  15.520  69.842  1.00  0.00    -0.279 OA 
HETATM   11  C   UNL     1     -11.478  15.852  70.761  1.00  0.00    -0.407 C  
ENDBRANCH   4  10
BRANCH   7  12
HETATM   12  C   UNL     1     -11.444  11.188  67.738  1.00  0.00    -0.272 C  
BRANCH  12  13
HETATM   13  N   UNL     1     -10.039  10.536  67.387  1.00  0.00    -0.188 N  
HETATM   14  O   UNL     1      -7.870  10.625  65.365  1.00  0.00    -0.143 OA 
HETATM   15  C   UNL     1     -10.100   9.833  65.992  1.00  0.00    -0.251 C  
HETATM   16  C   UNL     1      -8.689   9.462  65.493  1.00  0.00    -0.163 C  
HETATM   17  C   UNL     1      -9.024  11.710  67.224  1.00  0.00    -0.169 C  
HETATM   18  C   UNL     1      -7.686  11.277  66.622  1.00  0.00    -0.148 C  
BRANCH  13  19
HETATM   19  C   UNL     1      -9.595   9.527  68.501  1.00  0.00    -0.142 C  
BRANCH  19  20
HETATM   20  C   UNL     1      -8.925  10.257  69.684  1.00  0.00    -0.118 C  
BRANCH  20  21
HETATM   21  O   UNL     1      -7.820   9.565  70.256  1.00  0.00    -0.136 OA 
BRANCH  21  22
HETATM   22  C   UNL     1      -7.334   8.502  69.392  1.00  0.00    -0.069 C  
BRANCH  22  23
HETATM   23  C   UNL     1      -7.133   7.180  70.136  1.00  0.00    -0.066 C  
BRANCH  23  24
HETATM   24  C   UNL     1      -8.104   6.862  71.287  1.00  0.00    -0.110 C  
HETATM   25  C   UNL     1      -7.679   5.504  71.913  1.00  0.00    -0.104 C  
HETATM   26  C   UNL     1      -8.591   4.315  71.579  1.00  0.00    -0.129 C  
HETATM   27  C   UNL     1      -9.987   4.767  71.152  1.00  0.00    -0.273 C  
HETATM   28  C   UNL     1      -9.862   5.629  69.862  1.00  0.00    -0.250 C  
HETATM   29  C   UNL     1      -9.588   6.811  70.842  1.00  0.00    -0.173 C  
HETATM   30  C   UNL     1     -10.599   6.060  71.835  1.00  0.00    -0.272 C  
HETATM   31  C   UNL     1     -10.419   6.267  73.341  1.00  0.00    -0.273 C  
HETATM   32  C   UNL     1     -12.111   6.219  71.551  1.00  0.00    -0.185 C  
ENDBRANCH  23  24
ENDBRANCH  22  23
ENDBRANCH  21  22
ENDBRANCH  20  21
ENDBRANCH  19  20
ENDBRANCH  13  19
ENDBRANCH  12  13
ENDBRANCH   7  12
ENDBRANCH   2   3
TORSDOF 10
ENDMDL
MODEL      143
REMARK 921   NORMALIZED FREE ENERGY PREDICTED BY IDOCK:   -4.32 KCAL/MOL
REMARK 922        TOTAL FREE ENERGY PREDICTED BY IDOCK:   -8.12 KCAL/MOL
REMARK 923 INTER-LIGAND FREE ENERGY PREDICTED BY IDOCK:   -7.33 KCAL/MOL
REMARK 924 INTRA-LIGAND FREE ENERGY PREDICTED BY IDOCK:   -0.79 KCAL/MOL
REMARK 927      BINDING AFFINITY PREDICTED BY RF-SCORE:    0.00 PKD
ROOT
HETATM    1  C   UNL     1      -9.362   2.710  67.938  1.00  0.00    -0.194 C  
HETATM    2  O   UNL     1      -9.712   3.765  68.822  1.00  0.00    -0.143 OA 
ENDROOT
BRANCH   2   3
HETATM    3  C   UNL     1      -9.708   5.043  68.339  1.00  0.00    -0.152 A  
HETATM    4  C   UNL     1     -10.437   6.148  68.800  1.00  0.00    -0.243 A  
HETATM    5  C   UNL     1      -8.914   5.186  67.195  1.00  0.00    -0.112 A  
HETATM    6  C   UNL     1     -10.365   7.355  68.091  1.00  0.00    -0.235 A  
HETATM    7  C   UNL     1      -9.683   7.465  66.858  1.00  0.00    -0.265 A  
HETATM    8 BR   UNL     1      -7.684   6.451  65.001  1.00  0.00    -0.105 Br 
HETATM    9  C   UNL     1      -8.879   6.382  66.476  1.00  0.00    -0.136 A  
BRANCH   4  10
HETATM   10  O   UNL     1     -11.183   6.036  69.938  1.00  0.00    -0.386 OA 
HETATM   11  C   UNL     1     -10.526   6.411  71.149  1.00  0.00    -0.221 C  
ENDBRANCH   4  10
BRANCH   7  12
HETATM   12  C   UNL     1      -9.965   8.656  65.956  1.00  0.00    -0.020 C  
BRANCH  12  13
HETATM   13  N   UNL     1      -9.304  10.017  66.439  1.00  0.00    -0.162 N  
HETATM   14  O   UNL     1      -7.988  11.262  68.788  1.00  0.00    -0.141 OA 
HETATM   15  C   UNL     1     -10.063  10.577  67.686  1.00  0.00    -0.179 C  
HETATM   16  C   UNL     1      -9.270  11.717  68.355  1.00  0.00    -0.175 C  
HETATM   17  C   UNL     1      -7.868   9.669  66.940  1.00  0.00    -0.102 C  
HETATM   18  C   UNL     1      -7.191  10.819  67.688  1.00  0.00    -0.092 C  
BRANCH  13  19
HETATM   19  C   UNL     1      -9.282  11.072  65.280  1.00  0.00    -0.207 C  
BRANCH  19  20
HETATM   20  C   UNL     1     -10.680  11.243  64.651  1.00  0.00    -0.303 C  
BRANCH  20  21
HETATM   21  O   UNL     1     -11.427  12.342  65.161  1.00  0.00    -0.313 OA 
BRANCH  21  22
HETATM   22  C   UNL     1     -10.826  13.619  64.815  1.00  0.00    -0.394 C  
BRANCH  22  23
HETATM   23  C   UNL     1     -10.698  14.559  66.017  1.00  0.00    -0.306 C  
BRANCH  23  24
HETATM   24  C   UNL     1      -9.514  15.543  66.020  1.00  0.00    -0.387 C  
HETATM   25  C   UNL     1      -8.534  15.113  67.148  1.00  0.00    -0.238 C  
HETATM   26  C   UNL     1      -8.539  16.007  68.396  1.00  0.00    -0.185 C  
HETATM   27  C   UNL     1      -9.089  17.402  68.098  1.00  0.00    -0.267 C  
HETATM   28  C   UNL     1     -10.565  17.267  67.622  1.00  0.00    -0.350 C  
HETATM   29  C   UNL     1      -9.943  17.020  66.212  1.00  0.00    -0.324 C  
HETATM   30  C   UNL     1      -8.794  18.038  66.676  1.00  0.00    -0.280 C  
HETATM   31  C   UNL     1      -7.401  17.881  66.061  1.00  0.00    -0.306 C  
HETATM   32  C   UNL     1      -9.126  19.546  66.623  1.00  0.00    -0.406 C  
ENDBRANCH  23  24
ENDBRANCH  22  23
ENDBRANCH  21  22
ENDBRANCH  20  21
ENDBRANCH  19  20
ENDBRANCH  13  19
ENDBRANCH  12  13
ENDBRANCH   7  12
ENDBRANCH   2   3
TORSDOF 10
ENDMDL
MODEL      144
REMARK 921   NORMALIZED FREE ENERGY PREDICTED BY IDOCK:   -4.32 KCAL/MOL
REMARK 922        TOTAL FREE ENERGY PREDICTED BY IDOCK:   -8.11 KCAL/MOL
REMARK 923 INTER-LIGAND FREE ENERGY PREDICTED BY IDOCK:   -7.65 KCAL/MOL
REMARK 924 INTRA-LIGAND FREE ENERGY PREDICTED BY IDOCK:   -0.46 KCAL/MOL
REMARK 927      BINDING AFFINITY PREDICTED BY RF-SCORE:    0.00 PKD
ROOT
HETATM    1  C   UNL     1      -5.361  17.916  69.903  1.00  0.00    -0.223 C  
HETATM    2  O   UNL     1      -5.856  18.471  68.693  1.00  0.00    -0.187 OA 
ENDROOT
BRANCH   2   3
HETATM    3  C   UNL     1      -6.649  17.690  67.900  1.00  0.00    -0.187 A  
HETATM    4  C   UNL     1      -7.677  18.092  67.036  1.00  0.00    -0.220 A  
HETATM    5  C   UNL     1      -6.406  16.323  68.072  1.00  0.00    -0.144 A  
HETATM    6  C   UNL     1      -8.443  17.114  66.387  1.00  0.00    -0.307 A  
HETATM    7  C   UNL     1      -8.298  15.737  66.667  1.00  0.00    -0.319 A  
HETATM    8 BR   UNL     1      -6.687  13.545  67.705  1.00  0.00    -0.183 Br 
HETATM    9  C   UNL     1      -7.198  15.357  67.449  1.00  0.00    -0.209 A  
BRANCH   4  10
HETATM   10  O   UNL     1      -7.899  19.423  66.826  1.00  0.00    -0.249 OA 
HETATM   11  C   UNL     1      -7.285  19.977  65.662  1.00  0.00    -0.308 C  
ENDBRANCH   4  10
BRANCH   7  12
HETATM   12  C   UNL     1      -9.396  14.772  66.245  1.00  0.00    -0.278 C  
BRANCH  12  13
HETATM   13  N   UNL     1     -10.604  14.662  67.271  1.00  0.00    -0.280 N  
HETATM   14  O   UNL     1     -11.457  15.554  69.968  1.00  0.00    -0.276 OA 
HETATM   15  C   UNL     1     -10.121  14.017  68.611  1.00  0.00    -0.217 C  
HETATM   16  C   UNL     1     -11.181  14.175  69.719  1.00  0.00    -0.152 C  
HETATM   17  C   UNL     1     -11.024  16.120  67.632  1.00  0.00    -0.268 C  
HETATM   18  C   UNL     1     -11.994  16.198  68.812  1.00  0.00     0.018 C  
BRANCH  13  19
HETATM   19  C   UNL     1     -11.790  13.845  66.655  1.00  0.00    -0.420 C  
BRANCH  19  20
HETATM   20  C   UNL     1     -11.582  12.328  66.838  1.00  0.00    -0.361 C  
BRANCH  20  21
HETATM   21  O   UNL     1     -10.713  11.731  65.881  1.00  0.00    -0.264 OA 
BRANCH  21  22
HETATM   22  C   UNL     1     -10.120  10.500  66.376  1.00  0.00    -0.228 C  
BRANCH  22  23
HETATM   23  C   UNL     1      -9.989  10.475  67.901  1.00  0.00    -0.193 C  
BRANCH  23  24
HETATM   24  C   UNL     1     -10.649   9.300  68.646  1.00  0.00    -0.219 C  
HETATM   25  C   UNL     1     -10.768   9.690  70.147  1.00  0.00    -0.321 C  
HETATM   26  C   UNL     1      -9.780   8.984  71.087  1.00  0.00    -0.369 C  
HETATM   27  C   UNL     1      -9.244   7.686  70.483  1.00  0.00    -0.159 C  
HETATM   28  C   UNL     1      -8.473   8.023  69.174  1.00  0.00    -0.136 C  
HETATM   29  C   UNL     1      -9.877   7.965  68.495  1.00  0.00    -0.186 C  
HETATM   30  C   UNL     1     -10.214   6.825  69.571  1.00  0.00    -0.202 C  
HETATM   31  C   UNL     1     -11.674   6.643  69.995  1.00  0.00    -0.378 C  
HETATM   32  C   UNL     1      -9.662   5.409  69.292  1.00  0.00    -0.224 C  
ENDBRANCH  23  24
ENDBRANCH  22  23
ENDBRANCH  21  22
ENDBRANCH  20  21
ENDBRANCH  19  20
ENDBRANCH  13  19
ENDBRANCH  12  13
ENDBRANCH   7  12
ENDBRANCH   2   3
TORSDOF 10
ENDMDL
MODEL      145
REMARK 921   NORMALIZED FREE ENERGY PREDICTED BY IDOCK:   -4.31 KCAL/MOL
REMARK 922        TOTAL FREE ENERGY PREDICTED BY IDOCK:   -8.11 KCAL/MOL
REMARK 923 INTER-LIGAND FREE ENERGY PREDICTED BY IDOCK:   -7.03 KCAL/MOL
REMARK 924 INTRA-LIGAND FREE ENERGY PREDICTED BY IDOCK:   -1.08 KCAL/MOL
REMARK 927      BINDING AFFINITY PREDICTED BY RF-SCORE:    0.00 PKD
ROOT
HETATM    1  C   UNL     1      -8.557   7.519  73.464  1.00  0.00    -0.181 C  
HETATM    2  O   UNL     1      -9.315   6.468  72.882  1.00  0.00    -0.137 OA 
ENDROOT
BRANCH   2   3
HETATM    3  C   UNL     1      -9.769   6.628  71.603  1.00  0.00    -0.162 A  
HETATM    4  C   UNL     1      -9.759   5.698  70.555  1.00  0.00    -0.180 A  
HETATM    5  C   UNL     1     -10.221   7.929  71.350  1.00  0.00    -0.226 A  
HETATM    6  C   UNL     1     -10.182   6.102  69.281  1.00  0.00    -0.251 A  
HETATM    7  C   UNL     1     -10.500   7.447  68.986  1.00  0.00    -0.217 A  
HETATM    8 BR   UNL     1     -11.281  10.098  69.901  1.00  0.00    -0.368 Br 
HETATM    9  C   UNL     1     -10.605   8.331  70.069  1.00  0.00    -0.235 A  
BRANCH   4  10
HETATM   10  O   UNL     1      -9.361   4.414  70.797  1.00  0.00    -0.130 OA 
HETATM   11  C   UNL     1      -8.116   4.031  70.212  1.00  0.00    -0.054 C  
ENDBRANCH   4  10
BRANCH   7  12
HETATM   12  C   UNL     1     -10.564   7.894  67.533  1.00  0.00    -0.242 C  
BRANCH  12  13
HETATM   13  N   UNL     1      -9.164   8.319  66.914  1.00  0.00    -0.150 N  
HETATM   14  O   UNL     1      -6.253   7.814  67.175  1.00  0.00    -0.050 OA 
HETATM   15  C   UNL     1      -8.252   8.948  68.017  1.00  0.00    -0.110 C  
HETATM   16  C   UNL     1      -6.797   9.087  67.524  1.00  0.00    -0.077 C  
HETATM   17  C   UNL     1      -8.448   7.005  66.473  1.00  0.00    -0.125 C  
HETATM   18  C   UNL     1      -6.978   7.210  66.103  1.00  0.00    -0.065 C  
BRANCH  13  19
HETATM   19  C   UNL     1      -9.358   9.312  65.717  1.00  0.00    -0.244 C  
BRANCH  19  20
HETATM   20  C   UNL     1     -10.226  10.520  66.126  1.00  0.00    -0.236 C  
BRANCH  20  21
HETATM   21  O   UNL     1     -10.971  11.100  65.061  1.00  0.00    -0.218 OA 
BRANCH  21  22
HETATM   22  C   UNL     1     -10.412  12.370  64.631  1.00  0.00    -0.309 C  
BRANCH  22  23
HETATM   23  C   UNL     1     -11.353  13.550  64.889  1.00  0.00    -0.347 C  
BRANCH  23  24
HETATM   24  C   UNL     1     -10.891  14.611  65.904  1.00  0.00    -0.312 C  
HETATM   25  C   UNL     1      -9.401  14.330  66.249  1.00  0.00    -0.236 C  
HETATM   26  C   UNL     1      -9.153  13.721  67.636  1.00  0.00    -0.196 C  
HETATM   27  C   UNL     1     -10.314  13.989  68.594  1.00  0.00    -0.238 C  
HETATM   28  C   UNL     1     -11.599  13.322  68.022  1.00  0.00    -0.371 C  
HETATM   29  C   UNL     1     -11.748  14.638  67.196  1.00  0.00    -0.392 C  
HETATM   30  C   UNL     1     -11.092  15.364  68.466  1.00  0.00    -0.295 C  
HETATM   31  C   UNL     1     -10.299  16.652  68.231  1.00  0.00    -0.304 C  
HETATM   32  C   UNL     1     -12.015  15.636  69.676  1.00  0.00    -0.367 C  
ENDBRANCH  23  24
ENDBRANCH  22  23
ENDBRANCH  21  22
ENDBRANCH  20  21
ENDBRANCH  19  20
ENDBRANCH  13  19
ENDBRANCH  12  13
ENDBRANCH   7  12
ENDBRANCH   2   3
TORSDOF 10
ENDMDL
MODEL      146
REMARK 921   NORMALIZED FREE ENERGY PREDICTED BY IDOCK:   -4.31 KCAL/MOL
REMARK 922        TOTAL FREE ENERGY PREDICTED BY IDOCK:   -8.10 KCAL/MOL
REMARK 923 INTER-LIGAND FREE ENERGY PREDICTED BY IDOCK:   -7.45 KCAL/MOL
REMARK 924 INTRA-LIGAND FREE ENERGY PREDICTED BY IDOCK:   -0.65 KCAL/MOL
REMARK 927      BINDING AFFINITY PREDICTED BY RF-SCORE:    0.00 PKD
ROOT
HETATM    1  C   UNL     1     -12.784  13.192  63.211  1.00  0.00     0.188 C  
HETATM    2  O   UNL     1     -12.793  12.762  64.565  1.00  0.00    -0.701 OA 
ENDROOT
BRANCH   2   3
HETATM    3  C   UNL     1     -11.695  12.103  65.042  1.00  0.00    -0.314 A  
HETATM    4  C   UNL     1     -11.252  11.999  66.368  1.00  0.00    -0.337 A  
HETATM    5  C   UNL     1     -10.915  11.545  64.022  1.00  0.00    -0.454 A  
HETATM    6  C   UNL     1     -10.034  11.358  66.631  1.00  0.00    -0.239 A  
HETATM    7  C   UNL     1      -9.174  10.922  65.597  1.00  0.00    -0.227 A  
HETATM    8 BR   UNL     1      -8.787  10.149  62.817  1.00  0.00    -0.272 Br 
HETATM    9  C   UNL     1      -9.685  10.941  64.292  1.00  0.00    -0.294 A  
BRANCH   4  10
HETATM   10  O   UNL     1     -12.023  12.501  67.376  1.00  0.00    -0.456 OA 
HETATM   11  C   UNL     1     -11.855  13.893  67.650  1.00  0.00    -0.386 C  
ENDBRANCH   4  10
BRANCH   7  12
HETATM   12  C   UNL     1      -7.722  10.605  65.922  1.00  0.00    -0.146 C  
BRANCH  12  13
HETATM   13  N   UNL     1      -7.479   9.138  66.480  1.00  0.00    -0.092 N  
HETATM   14  O   UNL     1      -5.626   7.574  68.189  1.00  0.00    -0.025 OA 
HETATM   15  C   UNL     1      -6.084   8.605  66.017  1.00  0.00    -0.048 C  
HETATM   16  C   UNL     1      -5.694   7.326  66.784  1.00  0.00    -0.023 C  
HETATM   17  C   UNL     1      -7.392   9.255  68.033  1.00  0.00    -0.080 C  
HETATM   18  C   UNL     1      -6.893   7.977  68.711  1.00  0.00    -0.062 C  
BRANCH  13  19
HETATM   19  C   UNL     1      -8.625   8.169  66.029  1.00  0.00    -0.147 C  
BRANCH  19  20
HETATM   20  C   UNL     1      -9.631   7.919  67.171  1.00  0.00    -0.171 C  
BRANCH  20  21
HETATM   21  O   UNL     1     -10.742   7.105  66.813  1.00  0.00    -0.307 OA 
BRANCH  21  22
HETATM   22  C   UNL     1     -10.973   6.041  67.776  1.00  0.00    -0.234 C  
BRANCH  22  23
HETATM   23  C   UNL     1     -10.074   6.153  69.010  1.00  0.00    -0.213 C  
BRANCH  23  24
HETATM   24  C   UNL     1     -10.674   5.723  70.361  1.00  0.00    -0.372 C  
HETATM   25  C   UNL     1     -11.795   6.735  70.733  1.00  0.00    -0.446 C  
HETATM   26  C   UNL     1     -11.441   7.722  71.854  1.00  0.00    -0.320 C  
HETATM   27  C   UNL     1     -10.299   7.207  72.731  1.00  0.00    -0.261 C  
HETATM   28  C   UNL     1      -9.028   7.036  71.848  1.00  0.00    -0.137 C  
HETATM   29  C   UNL     1      -9.626   5.638  71.500  1.00  0.00    -0.184 C  
HETATM   30  C   UNL     1     -10.202   5.647  72.996  1.00  0.00    -0.213 C  
HETATM   31  C   UNL     1     -11.481   4.856  73.282  1.00  0.00    -0.359 C  
HETATM   32  C   UNL     1      -9.213   5.302  74.133  1.00  0.00    -0.118 C  
ENDBRANCH  23  24
ENDBRANCH  22  23
ENDBRANCH  21  22
ENDBRANCH  20  21
ENDBRANCH  19  20
ENDBRANCH  13  19
ENDBRANCH  12  13
ENDBRANCH   7  12
ENDBRANCH   2   3
TORSDOF 10
ENDMDL
MODEL      147
REMARK 921   NORMALIZED FREE ENERGY PREDICTED BY IDOCK:   -4.30 KCAL/MOL
REMARK 922        TOTAL FREE ENERGY PREDICTED BY IDOCK:   -8.09 KCAL/MOL
REMARK 923 INTER-LIGAND FREE ENERGY PREDICTED BY IDOCK:   -7.75 KCAL/MOL
REMARK 924 INTRA-LIGAND FREE ENERGY PREDICTED BY IDOCK:   -0.34 KCAL/MOL
REMARK 927      BINDING AFFINITY PREDICTED BY RF-SCORE:    0.00 PKD
ROOT
HETATM    1  C   UNL     1      -8.963   5.483  67.907  1.00  0.00    -0.108 C  
HETATM    2  O   UNL     1      -8.145   6.607  67.614  1.00  0.00    -0.116 OA 
ENDROOT
BRANCH   2   3
HETATM    3  C   UNL     1      -8.715   7.849  67.649  1.00  0.00    -0.126 A  
HETATM    4  C   UNL     1      -9.128   8.583  68.770  1.00  0.00    -0.143 A  
HETATM    5  C   UNL     1      -8.958   8.368  66.372  1.00  0.00    -0.207 A  
HETATM    6  C   UNL     1      -9.790   9.804  68.578  1.00  0.00    -0.169 A  
HETATM    7  C   UNL     1     -10.166  10.262  67.296  1.00  0.00    -0.267 A  
HETATM    8 BR   UNL     1      -9.822  10.188  64.405  1.00  0.00    -0.192 Br 
HETATM    9  C   UNL     1      -9.651   9.567  66.192  1.00  0.00    -0.239 A  
BRANCH   4  10
HETATM   10  O   UNL     1      -8.860   8.110  70.022  1.00  0.00    -0.137 OA 
HETATM   11  C   UNL     1      -8.367   9.071  70.955  1.00  0.00    -0.189 C  
ENDBRANCH   4  10
BRANCH   7  12
HETATM   12  C   UNL     1     -11.207  11.365  67.176  1.00  0.00    -0.296 C  
BRANCH  12  13
HETATM   13  N   UNL     1     -10.604  12.833  67.105  1.00  0.00    -0.236 N  
HETATM   14  O   UNL     1     -11.096  15.497  65.896  1.00  0.00    -0.301 OA 
HETATM   15  C   UNL     1     -10.267  13.210  65.625  1.00  0.00    -0.286 C  
HETATM   16  C   UNL     1      -9.972  14.717  65.488  1.00  0.00    -0.352 C  
HETATM   17  C   UNL     1     -11.739  13.810  67.541  1.00  0.00    -0.375 C  
HETATM   18  C   UNL     1     -11.412  15.280  67.272  1.00  0.00    -0.224 C  
BRANCH  13  19
HETATM   19  C   UNL     1      -9.336  12.963  68.016  1.00  0.00    -0.213 C  
BRANCH  19  20
HETATM   20  C   UNL     1      -8.043  12.681  67.222  1.00  0.00    -0.178 C  
BRANCH  20  21
HETATM   21  O   UNL     1      -7.120  13.764  67.193  1.00  0.00    -0.080 OA 
BRANCH  21  22
HETATM   22  C   UNL     1      -7.414  14.761  68.209  1.00  0.00    -0.115 C  
BRANCH  22  23
HETATM   23  C   UNL     1      -7.005  16.175  67.789  1.00  0.00    -0.161 C  
BRANCH  23  24
HETATM   24  C   UNL     1      -8.096  17.071  67.175  1.00  0.00    -0.216 C  
HETATM   25  C   UNL     1      -7.458  17.870  66.003  1.00  0.00    -0.279 C  
HETATM   26  C   UNL     1      -7.201  19.356  66.287  1.00  0.00    -0.265 C  
HETATM   27  C   UNL     1      -8.073  19.880  67.428  1.00  0.00    -0.348 C  
HETATM   28  C   UNL     1      -7.724  19.096  68.726  1.00  0.00    -0.390 C  
HETATM   29  C   UNL     1      -8.743  18.040  68.198  1.00  0.00    -0.277 C  
HETATM   30  C   UNL     1      -9.536  19.291  67.585  1.00  0.00    -0.392 C  
HETATM   31  C   UNL     1     -10.390  19.063  66.335  1.00  0.00    -0.520 C  
HETATM   32  C   UNL     1     -10.405  20.119  68.560  1.00  0.00    -0.352 C  
ENDBRANCH  23  24
ENDBRANCH  22  23
ENDBRANCH  21  22
ENDBRANCH  20  21
ENDBRANCH  19  20
ENDBRANCH  13  19
ENDBRANCH  12  13
ENDBRANCH   7  12
ENDBRANCH   2   3
TORSDOF 10
ENDMDL
MODEL      148
REMARK 921   NORMALIZED FREE ENERGY PREDICTED BY IDOCK:   -4.30 KCAL/MOL
REMARK 922        TOTAL FREE ENERGY PREDICTED BY IDOCK:   -8.09 KCAL/MOL
REMARK 923 INTER-LIGAND FREE ENERGY PREDICTED BY IDOCK:   -7.59 KCAL/MOL
REMARK 924 INTRA-LIGAND FREE ENERGY PREDICTED BY IDOCK:   -0.50 KCAL/MOL
REMARK 927      BINDING AFFINITY PREDICTED BY RF-SCORE:    0.00 PKD
ROOT
HETATM    1  C   UNL     1     -13.520   7.527  71.398  1.00  0.00    -0.317 C  
HETATM    2  O   UNL     1     -12.267   7.925  71.934  1.00  0.00    -0.292 OA 
ENDROOT
BRANCH   2   3
HETATM    3  C   UNL     1     -11.135   7.617  71.232  1.00  0.00    -0.246 A  
HETATM    4  C   UNL     1     -10.294   8.481  70.517  1.00  0.00    -0.200 A  
HETATM    5  C   UNL     1     -10.879   6.241  71.199  1.00  0.00    -0.320 A  
HETATM    6  C   UNL     1      -9.235   7.940  69.775  1.00  0.00    -0.150 A  
HETATM    7  C   UNL     1      -9.059   6.547  69.620  1.00  0.00    -0.141 A  
HETATM    8 BR   UNL     1      -9.562   3.837  70.557  1.00  0.00    -0.239 Br 
HETATM    9  C   UNL     1      -9.843   5.711  70.427  1.00  0.00    -0.194 A  
BRANCH   4  10
HETATM   10  O   UNL     1     -10.507   9.828  70.574  1.00  0.00    -0.278 OA 
HETATM   11  C   UNL     1     -10.812  10.460  69.330  1.00  0.00    -0.241 C  
ENDBRANCH   4  10
BRANCH   7  12
HETATM   12  C   UNL     1      -8.158   6.031  68.508  1.00  0.00    -0.107 C  
BRANCH  12  13
HETATM   13  N   UNL     1      -8.865   5.913  67.091  1.00  0.00    -0.108 N  
HETATM   14  O   UNL     1      -9.078   4.122  64.735  1.00  0.00    -0.131 OA 
HETATM   15  C   UNL     1      -7.794   5.811  65.956  1.00  0.00    -0.101 C  
HETATM   16  C   UNL     1      -8.438   5.393  64.619  1.00  0.00    -0.126 C  
HETATM   17  C   UNL     1      -9.625   4.550  67.077  1.00  0.00    -0.190 C  
HETATM   18  C   UNL     1     -10.139   4.156  65.691  1.00  0.00    -0.176 C  
BRANCH  13  19
HETATM   19  C   UNL     1      -9.828   7.124  66.842  1.00  0.00    -0.208 C  
BRANCH  19  20
HETATM   20  C   UNL     1      -9.148   8.215  65.989  1.00  0.00    -0.167 C  
BRANCH  20  21
HETATM   21  O   UNL     1      -9.743   9.504  66.095  1.00  0.00    -0.216 OA 
BRANCH  21  22
HETATM   22  C   UNL     1      -9.211  10.433  65.112  1.00  0.00    -0.208 C  
BRANCH  22  23
HETATM   23  C   UNL     1     -10.095  11.668  64.925  1.00  0.00    -0.303 C  
BRANCH  23  24
HETATM   24  C   UNL     1     -10.419  12.501  66.179  1.00  0.00    -0.272 C  
HETATM   25  C   UNL     1     -11.966  12.598  66.305  1.00  0.00    -0.439 C  
HETATM   26  C   UNL     1     -12.568  13.963  65.944  1.00  0.00    -0.498 C  
HETATM   27  C   UNL     1     -11.535  15.087  66.040  1.00  0.00    -0.221 C  
HETATM   28  C   UNL     1     -10.392  14.804  65.023  1.00  0.00    -0.420 C  
HETATM   29  C   UNL     1      -9.789  13.917  66.156  1.00  0.00    -0.316 C  
HETATM   30  C   UNL     1     -10.423  14.990  67.165  1.00  0.00    -0.277 C  
HETATM   31  C   UNL     1     -10.816  14.519  68.567  1.00  0.00    -0.256 C  
HETATM   32  C   UNL     1      -9.655  16.319  67.352  1.00  0.00    -0.230 C  
ENDBRANCH  23  24
ENDBRANCH  22  23
ENDBRANCH  21  22
ENDBRANCH  20  21
ENDBRANCH  19  20
ENDBRANCH  13  19
ENDBRANCH  12  13
ENDBRANCH   7  12
ENDBRANCH   2   3
TORSDOF 10
ENDMDL
MODEL      149
REMARK 921   NORMALIZED FREE ENERGY PREDICTED BY IDOCK:   -4.30 KCAL/MOL
REMARK 922        TOTAL FREE ENERGY PREDICTED BY IDOCK:   -8.09 KCAL/MOL
REMARK 923 INTER-LIGAND FREE ENERGY PREDICTED BY IDOCK:   -7.25 KCAL/MOL
REMARK 924 INTRA-LIGAND FREE ENERGY PREDICTED BY IDOCK:   -0.84 KCAL/MOL
REMARK 927      BINDING AFFINITY PREDICTED BY RF-SCORE:    0.00 PKD
ROOT
HETATM    1  C   UNL     1      -7.879   6.618  64.184  1.00  0.00    -0.108 C  
HETATM    2  O   UNL     1      -7.637   6.249  65.534  1.00  0.00    -0.080 OA 
ENDROOT
BRANCH   2   3
HETATM    3  C   UNL     1      -8.423   6.799  66.507  1.00  0.00    -0.124 A  
HETATM    4  C   UNL     1      -9.573   6.261  67.101  1.00  0.00    -0.132 A  
HETATM    5  C   UNL     1      -8.021   8.093  66.858  1.00  0.00    -0.104 A  
HETATM    6  C   UNL     1     -10.296   7.041  68.014  1.00  0.00    -0.234 A  
HETATM    7  C   UNL     1      -9.979   8.396  68.263  1.00  0.00    -0.214 A  
HETATM    8 BR   UNL     1      -8.048  10.573  68.191  1.00  0.00    -0.116 Br 
HETATM    9  C   UNL     1      -8.769   8.874  67.740  1.00  0.00    -0.125 A  
BRANCH   4  10
HETATM   10  O   UNL     1      -9.953   4.985  66.800  1.00  0.00    -0.172 OA 
HETATM   11  C   UNL     1     -10.760   4.839  65.630  1.00  0.00    -0.141 C  
ENDBRANCH   4  10
BRANCH   7  12
HETATM   12  C   UNL     1     -11.009   9.288  68.939  1.00  0.00    -0.017 C  
BRANCH  12  13
HETATM   13  N   UNL     1     -11.119   9.091  70.510  1.00  0.00    -0.248 N  
HETATM   14  O   UNL     1     -10.540   7.129  72.658  1.00  0.00    -0.223 OA 
HETATM   15  C   UNL     1     -12.012   7.851  70.841  1.00  0.00    -0.196 C  
HETATM   16  C   UNL     1     -11.890   7.457  72.327  1.00  0.00    -0.268 C  
HETATM   17  C   UNL     1      -9.690   8.731  71.022  1.00  0.00    -0.230 C  
HETATM   18  C   UNL     1      -9.669   8.245  72.472  1.00  0.00    -0.298 C  
BRANCH  13  19
HETATM   19  C   UNL     1     -11.680  10.382  71.200  1.00  0.00    -0.296 C  
BRANCH  19  20
HETATM   20  C   UNL     1     -12.010  11.474  70.161  1.00  0.00    -0.369 C  
BRANCH  20  21
HETATM   21  O   UNL     1     -11.978  12.803  70.671  1.00  0.00    -0.300 OA 
BRANCH  21  22
HETATM   22  C   UNL     1     -12.046  13.796  69.611  1.00  0.00    -0.336 C  
BRANCH  22  23
HETATM   23  C   UNL     1     -10.846  13.736  68.664  1.00  0.00    -0.280 C  
BRANCH  23  24
HETATM   24  C   UNL     1     -10.760  14.810  67.564  1.00  0.00    -0.269 C  
HETATM   25  C   UNL     1      -9.505  14.511  66.697  1.00  0.00    -0.301 C  
HETATM   26  C   UNL     1      -8.317  15.458  66.916  1.00  0.00    -0.290 C  
HETATM   27  C   UNL     1      -8.752  16.790  67.528  1.00  0.00    -0.206 C  
HETATM   28  C   UNL     1      -9.387  16.517  68.922  1.00  0.00    -0.256 C  
HETATM   29  C   UNL     1     -10.700  16.256  68.121  1.00  0.00    -0.322 C  
HETATM   30  C   UNL     1     -10.163  17.381  67.113  1.00  0.00    -0.323 C  
HETATM   31  C   UNL     1     -10.603  17.308  65.649  1.00  0.00    -0.173 C  
HETATM   32  C   UNL     1     -10.337  18.854  67.547  1.00  0.00    -0.496 C  
ENDBRANCH  23  24
ENDBRANCH  22  23
ENDBRANCH  21  22
ENDBRANCH  20  21
ENDBRANCH  19  20
ENDBRANCH  13  19
ENDBRANCH  12  13
ENDBRANCH   7  12
ENDBRANCH   2   3
TORSDOF 10
ENDMDL
MODEL      150
REMARK 921   NORMALIZED FREE ENERGY PREDICTED BY IDOCK:   -4.29 KCAL/MOL
REMARK 922        TOTAL FREE ENERGY PREDICTED BY IDOCK:   -8.08 KCAL/MOL
REMARK 923 INTER-LIGAND FREE ENERGY PREDICTED BY IDOCK:   -7.06 KCAL/MOL
REMARK 924 INTRA-LIGAND FREE ENERGY PREDICTED BY IDOCK:   -1.02 KCAL/MOL
REMARK 927      BINDING AFFINITY PREDICTED BY RF-SCORE:    0.00 PKD
ROOT
HETATM    1  C   UNL     1      -6.061   7.488  73.858  1.00  0.00    -0.071 C  
HETATM    2  O   UNL     1      -7.423   7.284  73.510  1.00  0.00    -0.086 OA 
ENDROOT
BRANCH   2   3
HETATM    3  C   UNL     1      -7.949   8.029  72.492  1.00  0.00    -0.131 A  
HETATM    4  C   UNL     1      -9.296   8.186  72.137  1.00  0.00    -0.206 A  
HETATM    5  C   UNL     1      -6.965   8.626  71.695  1.00  0.00    -0.093 A  
HETATM    6  C   UNL     1      -9.616   8.917  70.985  1.00  0.00    -0.321 A  
HETATM    7  C   UNL     1      -8.626   9.398  70.100  1.00  0.00    -0.233 A  
HETATM    8 BR   UNL     1      -5.858  10.154  69.605  1.00  0.00    -0.045 Br 
HETATM    9  C   UNL     1      -7.294   9.322  70.530  1.00  0.00    -0.116 A  
BRANCH   4  10
HETATM   10  O   UNL     1     -10.268   7.644  72.928  1.00  0.00    -0.241 OA 
HETATM   11  C   UNL     1     -11.577   7.600  72.359  1.00  0.00    -0.336 C  
ENDBRANCH   4  10
BRANCH   7  12
HETATM   12  C   UNL     1      -9.028   9.825  68.696  1.00  0.00    -0.130 C  
BRANCH  12  13
HETATM   13  N   UNL     1      -9.222   8.626  67.674  1.00  0.00    -0.134 N  
HETATM   14  O   UNL     1      -9.757   5.709  67.581  1.00  0.00    -0.115 OA 
HETATM   15  C   UNL     1      -8.146   7.519  67.925  1.00  0.00    -0.119 C  
HETATM   16  C   UNL     1      -8.492   6.223  67.164  1.00  0.00    -0.108 C  
HETATM   17  C   UNL     1     -10.594   7.963  68.011  1.00  0.00    -0.132 C  
HETATM   18  C   UNL     1     -10.814   6.628  67.299  1.00  0.00    -0.385 C  
BRANCH  13  19
HETATM   19  C   UNL     1      -9.165   9.135  66.194  1.00  0.00    -0.205 C  
BRANCH  19  20
HETATM   20  C   UNL     1      -9.852  10.508  66.046  1.00  0.00    -0.222 C  
BRANCH  20  21
HETATM   21  O   UNL     1      -9.988  10.960  64.702  1.00  0.00    -0.258 OA 
BRANCH  21  22
HETATM   22  C   UNL     1     -11.020  11.974  64.568  1.00  0.00    -0.318 C  
BRANCH  22  23
HETATM   23  C   UNL     1     -11.759  12.244  65.881  1.00  0.00    -0.451 C  
BRANCH  23  24
HETATM   24  C   UNL     1     -11.589  13.638  66.512  1.00  0.00    -0.392 C  
HETATM   25  C   UNL     1     -10.116  14.087  66.294  1.00  0.00    -0.307 C  
HETATM   26  C   UNL     1      -9.225  14.042  67.543  1.00  0.00    -0.197 C  
HETATM   27  C   UNL     1     -10.046  14.076  68.833  1.00  0.00    -0.133 C  
HETATM   28  C   UNL     1     -10.964  12.820  68.875  1.00  0.00    -0.275 C  
HETATM   29  C   UNL     1     -11.947  13.678  68.020  1.00  0.00    -0.385 C  
HETATM   30  C   UNL     1     -11.382  14.928  68.850  1.00  0.00    -0.301 C  
HETATM   31  C   UNL     1     -11.400  16.305  68.181  1.00  0.00    -0.248 C  
HETATM   32  C   UNL     1     -11.935  15.132  70.279  1.00  0.00    -0.361 C  
ENDBRANCH  23  24
ENDBRANCH  22  23
ENDBRANCH  21  22
ENDBRANCH  20  21
ENDBRANCH  19  20
ENDBRANCH  13  19
ENDBRANCH  12  13
ENDBRANCH   7  12
ENDBRANCH   2   3
TORSDOF 10
ENDMDL
MODEL      151
REMARK 921   NORMALIZED FREE ENERGY PREDICTED BY IDOCK:   -4.29 KCAL/MOL
REMARK 922        TOTAL FREE ENERGY PREDICTED BY IDOCK:   -8.07 KCAL/MOL
REMARK 923 INTER-LIGAND FREE ENERGY PREDICTED BY IDOCK:   -8.02 KCAL/MOL
REMARK 924 INTRA-LIGAND FREE ENERGY PREDICTED BY IDOCK:   -0.05 KCAL/MOL
REMARK 927      BINDING AFFINITY PREDICTED BY RF-SCORE:    0.00 PKD
ROOT
HETATM    1  C   UNL     1      -7.747   6.885  69.914  1.00  0.00    -0.109 C  
HETATM    2  O   UNL     1      -8.206   6.606  68.599  1.00  0.00    -0.117 OA 
ENDROOT
BRANCH   2   3
HETATM    3  C   UNL     1      -8.716   7.635  67.859  1.00  0.00    -0.124 A  
HETATM    4  C   UNL     1      -9.994   7.750  67.296  1.00  0.00    -0.212 A  
HETATM    5  C   UNL     1      -7.771   8.636  67.605  1.00  0.00    -0.102 A  
HETATM    6  C   UNL     1     -10.282   8.852  66.479  1.00  0.00    -0.319 A  
HETATM    7  C   UNL     1      -9.293   9.787  66.101  1.00  0.00    -0.243 A  
HETATM    8 BR   UNL     1      -6.707  11.035  66.584  1.00  0.00    -0.137 Br 
HETATM    9  C   UNL     1      -8.057   9.710  66.759  1.00  0.00    -0.113 A  
BRANCH   4  10
HETATM   10  O   UNL     1     -10.938   6.803  67.570  1.00  0.00    -0.294 OA 
HETATM   11  C   UNL     1     -11.318   6.685  68.942  1.00  0.00    -0.128 C  
ENDBRANCH   4  10
BRANCH   7  12
HETATM   12  C   UNL     1      -9.555  10.712  64.922  1.00  0.00    -0.269 C  
BRANCH  12  13
HETATM   13  N   UNL     1     -10.247  12.088  65.307  1.00  0.00    -0.264 N  
HETATM   14  O   UNL     1     -12.560  13.809  64.607  1.00  0.00    -0.609 OA 
HETATM   15  C   UNL     1     -10.302  13.035  64.064  1.00  0.00    -0.249 C  
HETATM   16  C   UNL     1     -11.229  14.240  64.323  1.00  0.00    -0.132 C  
HETATM   17  C   UNL     1     -11.732  11.764  65.658  1.00  0.00    -0.026 C  
HETATM   18  C   UNL     1     -12.610  13.010  65.791  1.00  0.00    -0.201 C  
BRANCH  13  19
HETATM   19  C   UNL     1      -9.500  12.776  66.500  1.00  0.00    -0.253 C  
BRANCH  19  20
HETATM   20  C   UNL     1     -10.320  12.685  67.803  1.00  0.00    -0.220 C  
BRANCH  20  21
HETATM   21  O   UNL     1      -9.918  13.596  68.821  1.00  0.00    -0.191 OA 
BRANCH  21  22
HETATM   22  C   UNL     1     -10.908  14.635  69.046  1.00  0.00    -0.245 C  
BRANCH  22  23
HETATM   23  C   UNL     1     -10.284  16.024  69.210  1.00  0.00    -0.249 C  
BRANCH  23  24
HETATM   24  C   UNL     1     -10.449  17.013  68.042  1.00  0.00    -0.353 C  
HETATM   25  C   UNL     1      -9.786  16.385  66.783  1.00  0.00    -0.263 C  
HETATM   26  C   UNL     1      -8.445  17.008  66.370  1.00  0.00    -0.318 C  
HETATM   27  C   UNL     1      -8.275  18.422  66.926  1.00  0.00    -0.258 C  
HETATM   28  C   UNL     1      -8.292  18.354  68.481  1.00  0.00    -0.344 C  
HETATM   29  C   UNL     1      -9.844  18.411  68.330  1.00  0.00    -0.396 C  
HETATM   30  C   UNL     1      -9.562  19.338  67.053  1.00  0.00    -0.394 C  
HETATM   31  C   UNL     1     -10.594  19.340  65.921  1.00  0.00    -0.521 C  
HETATM   32  C   UNL     1      -9.210  20.819  67.323  1.00  0.00    -0.370 C  
ENDBRANCH  23  24
ENDBRANCH  22  23
ENDBRANCH  21  22
ENDBRANCH  20  21
ENDBRANCH  19  20
ENDBRANCH  13  19
ENDBRANCH  12  13
ENDBRANCH   7  12
ENDBRANCH   2   3
TORSDOF 10
ENDMDL
MODEL      152
REMARK 921   NORMALIZED FREE ENERGY PREDICTED BY IDOCK:   -4.29 KCAL/MOL
REMARK 922        TOTAL FREE ENERGY PREDICTED BY IDOCK:   -8.07 KCAL/MOL
REMARK 923 INTER-LIGAND FREE ENERGY PREDICTED BY IDOCK:   -6.98 KCAL/MOL
REMARK 924 INTRA-LIGAND FREE ENERGY PREDICTED BY IDOCK:   -1.09 KCAL/MOL
REMARK 927      BINDING AFFINITY PREDICTED BY RF-SCORE:    0.00 PKD
ROOT
HETATM    1  C   UNL     1     -12.335  13.894  70.747  1.00  0.00    -0.378 C  
HETATM    2  O   UNL     1     -12.159  12.988  69.668  1.00  0.00    -0.297 OA 
ENDROOT
BRANCH   2   3
HETATM    3  C   UNL     1     -11.778  11.707  69.953  1.00  0.00    -0.337 A  
HETATM    4  C   UNL     1     -10.674  10.999  69.458  1.00  0.00    -0.183 A  
HETATM    5  C   UNL     1     -12.684  11.048  70.791  1.00  0.00    -0.414 A  
HETATM    6  C   UNL     1     -10.521   9.649  69.801  1.00  0.00    -0.263 A  
HETATM    7  C   UNL     1     -11.505   8.941  70.525  1.00  0.00    -0.231 A  
HETATM    8 BR   UNL     1     -13.797   8.962  72.320  1.00  0.00    -0.535 Br 
HETATM    9  C   UNL     1     -12.542   9.693  71.096  1.00  0.00    -0.322 A  
BRANCH   4  10
HETATM   10  O   UNL     1      -9.759  11.641  68.673  1.00  0.00    -0.192 OA 
HETATM   11  C   UNL     1      -9.948  11.505  67.264  1.00  0.00    -0.191 C  
ENDBRANCH   4  10
BRANCH   7  12
HETATM   12  C   UNL     1     -11.478   7.420  70.525  1.00  0.00    -0.255 C  
BRANCH  12  13
HETATM   13  N   UNL     1     -10.541   6.779  71.635  1.00  0.00    -0.213 N  
HETATM   14  O   UNL     1     -10.377   6.315  74.560  1.00  0.00    -0.316 OA 
HETATM   15  C   UNL     1     -10.119   7.862  72.681  1.00  0.00    -0.279 C  
HETATM   16  C   UNL     1      -9.471   7.215  73.921  1.00  0.00    -0.257 C  
HETATM   17  C   UNL     1     -11.410   5.749  72.421  1.00  0.00    -0.294 C  
HETATM   18  C   UNL     1     -10.740   5.237  73.697  1.00  0.00    -0.294 C  
BRANCH  13  19
HETATM   19  C   UNL     1      -9.282   6.108  70.987  1.00  0.00    -0.157 C  
BRANCH  19  20
HETATM   20  C   UNL     1      -9.582   5.616  69.556  1.00  0.00    -0.147 C  
BRANCH  20  21
HETATM   21  O   UNL     1      -8.689   6.108  68.562  1.00  0.00    -0.113 OA 
BRANCH  21  22
HETATM   22  C   UNL     1      -7.552   5.224  68.364  1.00  0.00    -0.080 C  
BRANCH  22  23
HETATM   23  C   UNL     1      -7.967   3.799  67.993  1.00  0.00    -0.076 C  
BRANCH  23  24
HETATM   24  C   UNL     1      -7.880   3.403  66.508  1.00  0.00    -0.081 C  
HETATM   25  C   UNL     1      -7.099   4.519  65.758  1.00  0.00    -0.067 C  
HETATM   26  C   UNL     1      -7.954   5.436  64.873  1.00  0.00    -0.108 C  
HETATM   27  C   UNL     1      -9.280   4.781  64.484  1.00  0.00    -0.061 C  
HETATM   28  C   UNL     1     -10.097   4.498  65.778  1.00  0.00    -0.274 C  
HETATM   29  C   UNL     1      -9.266   3.179  65.849  1.00  0.00    -0.137 C  
HETATM   30  C   UNL     1      -9.302   3.214  64.247  1.00  0.00    -0.137 C  
HETATM   31  C   UNL     1      -8.150   2.557  63.484  1.00  0.00    -0.081 C  
HETATM   32  C   UNL     1     -10.605   2.739  63.563  1.00  0.00    -0.213 C  
ENDBRANCH  23  24
ENDBRANCH  22  23
ENDBRANCH  21  22
ENDBRANCH  20  21
ENDBRANCH  19  20
ENDBRANCH  13  19
ENDBRANCH  12  13
ENDBRANCH   7  12
ENDBRANCH   2   3
TORSDOF 10
ENDMDL
MODEL      153
REMARK 921   NORMALIZED FREE ENERGY PREDICTED BY IDOCK:   -4.28 KCAL/MOL
REMARK 922        TOTAL FREE ENERGY PREDICTED BY IDOCK:   -8.06 KCAL/MOL
REMARK 923 INTER-LIGAND FREE ENERGY PREDICTED BY IDOCK:   -6.58 KCAL/MOL
REMARK 924 INTRA-LIGAND FREE ENERGY PREDICTED BY IDOCK:   -1.49 KCAL/MOL
REMARK 927      BINDING AFFINITY PREDICTED BY RF-SCORE:    0.00 PKD
ROOT
HETATM    1  C   UNL     1     -11.357   7.272  70.018  1.00  0.00    -0.166 C  
HETATM    2  O   UNL     1     -11.073   8.337  70.914  1.00  0.00    -0.251 OA 
ENDROOT
BRANCH   2   3
HETATM    3  C   UNL     1     -10.810   9.572  70.390  1.00  0.00    -0.282 A  
HETATM    4  C   UNL     1     -11.670  10.674  70.291  1.00  0.00    -0.344 A  
HETATM    5  C   UNL     1      -9.529   9.660  69.833  1.00  0.00    -0.260 A  
HETATM    6  C   UNL     1     -11.231  11.823  69.620  1.00  0.00    -0.225 A  
HETATM    7  C   UNL     1      -9.998  11.866  68.931  1.00  0.00    -0.024 A  
HETATM    8 BR   UNL     1      -7.319  10.804  68.516  1.00  0.00    -0.102 Br 
HETATM    9  C   UNL     1      -9.115  10.796  69.135  1.00  0.00    -0.095 A  
BRANCH   4  10
HETATM   10  O   UNL     1     -12.907  10.617  70.867  1.00  0.00    -0.363 OA 
HETATM   11  C   UNL     1     -13.212  11.667  71.786  1.00  0.00    -0.333 C  
ENDBRANCH   4  10
BRANCH   7  12
HETATM   12  C   UNL     1      -9.754  12.968  67.911  1.00  0.00    -0.218 C  
BRANCH  12  13
HETATM   13  N   UNL     1     -10.704  12.908  66.639  1.00  0.00    -0.263 N  
HETATM   14  O   UNL     1     -12.203  14.654  64.767  1.00  0.00    -0.423 OA 
HETATM   15  C   UNL     1     -12.083  13.572  66.960  1.00  0.00    -0.354 C  
HETATM   16  C   UNL     1     -12.903  13.801  65.674  1.00  0.00    -0.408 C  
HETATM   17  C   UNL     1     -10.049  13.803  65.543  1.00  0.00    -0.284 C  
HETATM   18  C   UNL     1     -10.967  14.072  64.350  1.00  0.00    -0.265 C  
BRANCH  13  19
HETATM   19  C   UNL     1     -10.896  11.431  66.152  1.00  0.00    -0.255 C  
BRANCH  19  20
HETATM   20  C   UNL     1      -9.671  10.940  65.354  1.00  0.00    -0.238 C  
BRANCH  20  21
HETATM   21  O   UNL     1      -9.725   9.569  64.972  1.00  0.00    -0.248 OA 
BRANCH  21  22
HETATM   22  C   UNL     1      -9.685   8.679  66.120  1.00  0.00    -0.222 C  
BRANCH  22  23
HETATM   23  C   UNL     1      -8.623   7.586  65.986  1.00  0.00    -0.164 C  
BRANCH  23  24
HETATM   24  C   UNL     1      -7.760   7.285  67.224  1.00  0.00    -0.109 C  
HETATM   25  C   UNL     1      -6.576   6.381  66.777  1.00  0.00    -0.051 C  
HETATM   26  C   UNL     1      -6.679   4.909  67.201  1.00  0.00    -0.055 C  
HETATM   27  C   UNL     1      -7.619   4.722  68.392  1.00  0.00    -0.077 C  
HETATM   28  C   UNL     1      -9.047   5.184  67.982  1.00  0.00    -0.123 C  
HETATM   29  C   UNL     1      -8.550   6.610  68.375  1.00  0.00    -0.124 C  
HETATM   30  C   UNL     1      -7.675   5.862  69.491  1.00  0.00    -0.097 C  
HETATM   31  C   UNL     1      -6.372   6.524  69.950  1.00  0.00    -0.039 C  
HETATM   32  C   UNL     1      -8.409   5.411  70.775  1.00  0.00    -0.116 C  
ENDBRANCH  23  24
ENDBRANCH  22  23
ENDBRANCH  21  22
ENDBRANCH  20  21
ENDBRANCH  19  20
ENDBRANCH  13  19
ENDBRANCH  12  13
ENDBRANCH   7  12
ENDBRANCH   2   3
TORSDOF 10
ENDMDL
MODEL      154
REMARK 921   NORMALIZED FREE ENERGY PREDICTED BY IDOCK:   -4.28 KCAL/MOL
REMARK 922        TOTAL FREE ENERGY PREDICTED BY IDOCK:   -8.06 KCAL/MOL
REMARK 923 INTER-LIGAND FREE ENERGY PREDICTED BY IDOCK:   -7.14 KCAL/MOL
REMARK 924 INTRA-LIGAND FREE ENERGY PREDICTED BY IDOCK:   -0.93 KCAL/MOL
REMARK 927      BINDING AFFINITY PREDICTED BY RF-SCORE:    0.00 PKD
ROOT
HETATM    1  C   UNL     1      -8.362   9.671  64.788  1.00  0.00    -0.151 C  
HETATM    2  O   UNL     1      -9.300   9.842  65.841  1.00  0.00    -0.165 OA 
ENDROOT
BRANCH   2   3
HETATM    3  C   UNL     1      -9.555  11.111  66.280  1.00  0.00    -0.206 A  
HETATM    4  C   UNL     1      -9.227  11.684  67.517  1.00  0.00    -0.172 A  
HETATM    5  C   UNL     1     -10.304  11.859  65.365  1.00  0.00    -0.306 A  
HETATM    6  C   UNL     1      -9.676  12.980  67.808  1.00  0.00    -0.218 A  
HETATM    7  C   UNL     1     -10.552  13.683  66.951  1.00  0.00    -0.271 A  
HETATM    8 BR   UNL     1     -11.701  14.061  64.302  1.00  0.00    -0.356 Br 
HETATM    9  C   UNL     1     -10.778  13.135  65.680  1.00  0.00    -0.280 A  
BRANCH   4  10
HETATM   10  O   UNL     1      -8.461  10.982  68.402  1.00  0.00    -0.130 OA 
HETATM   11  C   UNL     1      -7.111  11.427  68.542  1.00  0.00    -0.085 C  
ENDBRANCH   4  10
BRANCH   7  12
HETATM   12  C   UNL     1     -11.308  14.889  67.487  1.00  0.00    -0.342 C  
BRANCH  12  13
HETATM   13  N   UNL     1     -10.391  15.989  68.171  1.00  0.00    -0.253 N  
HETATM   14  O   UNL     1      -8.756  18.382  67.535  1.00  0.00    -0.255 OA 
HETATM   15  C   UNL     1      -8.947  15.942  67.571  1.00  0.00    -0.194 C  
HETATM   16  C   UNL     1      -8.130  17.181  67.988  1.00  0.00    -0.210 C  
HETATM   17  C   UNL     1     -10.971  17.379  67.764  1.00  0.00    -0.142 C  
HETATM   18  C   UNL     1     -10.050  18.548  68.115  1.00  0.00    -0.375 C  
BRANCH  13  19
HETATM   19  C   UNL     1     -10.354  15.802  69.726  1.00  0.00    -0.306 C  
BRANCH  19  20
HETATM   20  C   UNL     1     -11.778  15.695  70.311  1.00  0.00    -0.357 C  
BRANCH  20  21
HETATM   21  O   UNL     1     -11.948  14.651  71.264  1.00  0.00    -0.326 OA 
BRANCH  21  22
HETATM   22  C   UNL     1     -13.345  14.284  71.429  1.00  0.00    -0.340 C  
BRANCH  22  23
HETATM   23  C   UNL     1     -13.525  12.863  71.969  1.00  0.00    -0.568 C  
BRANCH  23  24
HETATM   24  C   UNL     1     -12.391  11.857  71.700  1.00  0.00     0.096 C  
HETATM   25  C   UNL     1     -12.015  11.949  70.194  1.00  0.00    -0.413 C  
HETATM   26  C   UNL     1     -12.489  10.775  69.326  1.00  0.00     0.116 C  
HETATM   27  C   UNL     1     -12.765   9.524  70.160  1.00  0.00     0.545 C  
HETATM   28  C   UNL     1     -13.905   9.838  71.173  1.00  0.00    -0.038 C  
HETATM   29  C   UNL     1     -12.761  10.399  72.075  1.00  0.00    -0.365 C  
HETATM   30  C   UNL     1     -11.852   9.248  71.426  1.00  0.00    -0.428 C  
HETATM   31  C   UNL     1     -10.344   9.490  71.328  1.00  0.00    -0.287 C  
HETATM   32  C   UNL     1     -12.028   7.816  71.982  1.00  0.00    -0.350 C  
ENDBRANCH  23  24
ENDBRANCH  22  23
ENDBRANCH  21  22
ENDBRANCH  20  21
ENDBRANCH  19  20
ENDBRANCH  13  19
ENDBRANCH  12  13
ENDBRANCH   7  12
ENDBRANCH   2   3
TORSDOF 10
ENDMDL
MODEL      155
REMARK 921   NORMALIZED FREE ENERGY PREDICTED BY IDOCK:   -4.28 KCAL/MOL
REMARK 922        TOTAL FREE ENERGY PREDICTED BY IDOCK:   -8.06 KCAL/MOL
REMARK 923 INTER-LIGAND FREE ENERGY PREDICTED BY IDOCK:   -7.21 KCAL/MOL
REMARK 924 INTRA-LIGAND FREE ENERGY PREDICTED BY IDOCK:   -0.84 KCAL/MOL
REMARK 927      BINDING AFFINITY PREDICTED BY RF-SCORE:    0.00 PKD
ROOT
HETATM    1  C   UNL     1     -11.021   2.013  73.400  1.00  0.00    -0.174 C  
HETATM    2  O   UNL     1     -10.344   2.117  72.156  1.00  0.00    -0.156 OA 
ENDROOT
BRANCH   2   3
HETATM    3  C   UNL     1      -9.877   3.343  71.773  1.00  0.00    -0.159 A  
HETATM    4  C   UNL     1      -8.981   3.646  70.739  1.00  0.00    -0.092 A  
HETATM    5  C   UNL     1     -10.327   4.376  72.604  1.00  0.00    -0.248 A  
HETATM    6  C   UNL     1      -8.548   4.970  70.579  1.00  0.00    -0.121 A  
HETATM    7  C   UNL     1      -8.884   5.988  71.500  1.00  0.00    -0.139 A  
HETATM    8 BR   UNL     1     -10.634   6.991  73.599  1.00  0.00    -0.297 Br 
HETATM    9  C   UNL     1      -9.861   5.684  72.459  1.00  0.00    -0.163 A  
BRANCH   4  10
HETATM   10  O   UNL     1      -8.566   2.657  69.895  1.00  0.00    -0.052 OA 
HETATM   11  C   UNL     1      -9.219   2.610  68.625  1.00  0.00    -0.179 C  
ENDBRANCH   4  10
BRANCH   7  12
HETATM   12  C   UNL     1      -8.084   7.281  71.504  1.00  0.00    -0.101 C  
BRANCH  12  13
HETATM   13  N   UNL     1      -8.396   8.251  70.285  1.00  0.00    -0.120 N  
HETATM   14  O   UNL     1      -7.052   9.902  68.219  1.00  0.00    -0.075 OA 
HETATM   15  C   UNL     1      -7.779   9.664  70.544  1.00  0.00    -0.128 C  
HETATM   16  C   UNL     1      -7.799  10.524  69.265  1.00  0.00    -0.144 C  
HETATM   17  C   UNL     1      -7.637   7.680  69.047  1.00  0.00    -0.104 C  
HETATM   18  C   UNL     1      -7.611   8.639  67.856  1.00  0.00    -0.098 C  
BRANCH  13  19
HETATM   19  C   UNL     1      -9.938   8.354  70.031  1.00  0.00    -0.188 C  
BRANCH  19  20
HETATM   20  C   UNL     1     -10.606   9.329  71.023  1.00  0.00    -0.316 C  
BRANCH  20  21
HETATM   21  O   UNL     1     -11.290  10.418  70.411  1.00  0.00    -0.297 OA 
BRANCH  21  22
HETATM   22  C   UNL     1     -11.396  10.256  68.971  1.00  0.00    -0.180 C  
BRANCH  22  23
HETATM   23  C   UNL     1     -11.436  11.592  68.225  1.00  0.00    -0.368 C  
BRANCH  23  24
HETATM   24  C   UNL     1     -10.873  11.617  66.793  1.00  0.00    -0.322 C  
HETATM   25  C   UNL     1      -9.532  12.405  66.817  1.00  0.00    -0.228 C  
HETATM   26  C   UNL     1      -9.588  13.812  66.208  1.00  0.00    -0.265 C  
HETATM   27  C   UNL     1     -10.764  13.972  65.244  1.00  0.00    -0.367 C  
HETATM   28  C   UNL     1     -12.089  13.759  66.033  1.00  0.00    -0.470 C  
HETATM   29  C   UNL     1     -11.846  12.242  65.760  1.00  0.00    -0.417 C  
HETATM   30  C   UNL     1     -11.198  12.720  64.374  1.00  0.00    -0.390 C  
HETATM   31  C   UNL     1     -10.117  11.840  63.741  1.00  0.00    -0.421 C  
HETATM   32  C   UNL     1     -12.172  13.101  63.236  1.00  0.00    -0.438 C  
ENDBRANCH  23  24
ENDBRANCH  22  23
ENDBRANCH  21  22
ENDBRANCH  20  21
ENDBRANCH  19  20
ENDBRANCH  13  19
ENDBRANCH  12  13
ENDBRANCH   7  12
ENDBRANCH   2   3
TORSDOF 10
ENDMDL
MODEL      156
REMARK 921   NORMALIZED FREE ENERGY PREDICTED BY IDOCK:   -4.24 KCAL/MOL
REMARK 922        TOTAL FREE ENERGY PREDICTED BY IDOCK:   -7.99 KCAL/MOL
REMARK 923 INTER-LIGAND FREE ENERGY PREDICTED BY IDOCK:   -6.31 KCAL/MOL
REMARK 924 INTRA-LIGAND FREE ENERGY PREDICTED BY IDOCK:   -1.68 KCAL/MOL
REMARK 927      BINDING AFFINITY PREDICTED BY RF-SCORE:    0.00 PKD
ROOT
HETATM    1  C   UNL     1     -13.468   9.578  71.940  1.00  0.00    -0.424 C  
HETATM    2  O   UNL     1     -13.089  10.562  70.989  1.00  0.00    -0.377 OA 
ENDROOT
BRANCH   2   3
HETATM    3  C   UNL     1     -11.843  10.479  70.432  1.00  0.00    -0.340 A  
HETATM    4  C   UNL     1     -11.403  10.999  69.207  1.00  0.00    -0.282 A  
HETATM    5  C   UNL     1     -10.963   9.702  71.193  1.00  0.00    -0.430 A  
HETATM    6  C   UNL     1     -10.102  10.709  68.772  1.00  0.00    -0.203 A  
HETATM    7  C   UNL     1      -9.261   9.808  69.463  1.00  0.00    -0.226 A  
HETATM    8 BR   UNL     1      -8.572   8.403  71.918  1.00  0.00    -0.258 Br 
HETATM    9  C   UNL     1      -9.682   9.388  70.733  1.00  0.00    -0.264 A  
BRANCH   4  10
HETATM   10  O   UNL     1     -12.236  11.793  68.474  1.00  0.00    -0.430 OA 
HETATM   11  C   UNL     1     -11.796  13.138  68.276  1.00  0.00    -0.349 C  
ENDBRANCH   4  10
BRANCH   7  12
HETATM   12  C   UNL     1      -8.044   9.234  68.755  1.00  0.00    -0.104 C  
BRANCH  12  13
HETATM   13  N   UNL     1      -6.830  10.247  68.607  1.00  0.00    -0.057 N  
HETATM   14  O   UNL     1      -6.209  13.148  68.572  1.00  0.00    -0.070 OA 
HETATM   15  C   UNL     1      -7.053  11.186  67.376  1.00  0.00    -0.102 C  
HETATM   16  C   UNL     1      -6.059  12.365  67.387  1.00  0.00    -0.158 C  
HETATM   17  C   UNL     1      -6.864  11.178  69.859  1.00  0.00    -0.057 C  
HETATM   18  C   UNL     1      -5.928  12.383  69.744  1.00  0.00    -0.136 C  
BRANCH  13  19
HETATM   19  C   UNL     1      -5.470   9.480  68.484  1.00  0.00    -0.040 C  
BRANCH  19  20
HETATM   20  C   UNL     1      -5.559   8.346  67.441  1.00  0.00    -0.039 C  
BRANCH  20  21
HETATM   21  O   UNL     1      -5.135   7.072  67.915  1.00  0.00    -0.013 OA 
BRANCH  21  22
HETATM   22  C   UNL     1      -5.502   6.858  69.305  1.00  0.00    -0.014 C  
BRANCH  22  23
HETATM   23  C   UNL     1      -6.336   5.591  69.510  1.00  0.00    -0.033 C  
BRANCH  23  24
HETATM   24  C   UNL     1      -7.864   5.758  69.592  1.00  0.00    -0.096 C  
HETATM   25  C   UNL     1      -8.448   4.502  70.299  1.00  0.00    -0.092 C  
HETATM   26  C   UNL     1      -9.179   3.513  69.380  1.00  0.00    -0.227 C  
HETATM   27  C   UNL     1      -9.648   4.176  68.084  1.00  0.00    -0.195 C  
HETATM   28  C   UNL     1      -8.402   4.693  67.307  1.00  0.00    -0.105 C  
HETATM   29  C   UNL     1      -8.535   5.959  68.209  1.00  0.00    -0.114 C  
HETATM   30  C   UNL     1     -10.114   5.690  68.142  1.00  0.00    -0.212 C  
HETATM   31  C   UNL     1     -10.977   6.163  69.314  1.00  0.00    -0.450 C  
HETATM   32  C   UNL     1     -10.849   6.131  66.855  1.00  0.00    -0.411 C  
ENDBRANCH  23  24
ENDBRANCH  22  23
ENDBRANCH  21  22
ENDBRANCH  20  21
ENDBRANCH  19  20
ENDBRANCH  13  19
ENDBRANCH  12  13
ENDBRANCH   7  12
ENDBRANCH   2   3
TORSDOF 10
ENDMDL
MODEL      157
REMARK 921   NORMALIZED FREE ENERGY PREDICTED BY IDOCK:   -4.19 KCAL/MOL
REMARK 922        TOTAL FREE ENERGY PREDICTED BY IDOCK:   -7.91 KCAL/MOL
REMARK 923 INTER-LIGAND FREE ENERGY PREDICTED BY IDOCK:   -7.60 KCAL/MOL
REMARK 924 INTRA-LIGAND FREE ENERGY PREDICTED BY IDOCK:   -0.32 KCAL/MOL
REMARK 927      BINDING AFFINITY PREDICTED BY RF-SCORE:    0.00 PKD
ROOT
HETATM    1  C   UNL     1     -12.714   8.224  72.061  1.00  0.00    -0.342 C  
HETATM    2  O   UNL     1     -11.497   7.891  72.713  1.00  0.00    -0.390 OA 
ENDROOT
BRANCH   2   3
HETATM    3  C   UNL     1     -10.463   7.420  71.954  1.00  0.00    -0.201 A  
HETATM    4  C   UNL     1      -9.580   8.147  71.144  1.00  0.00    -0.160 A  
HETATM    5  C   UNL     1     -10.372   6.024  71.972  1.00  0.00    -0.241 A  
HETATM    6  C   UNL     1      -8.647   7.453  70.360  1.00  0.00    -0.144 A  
HETATM    7  C   UNL     1      -8.646   6.044  70.263  1.00  0.00    -0.143 A  
HETATM    8 BR   UNL     1      -9.396   3.454  71.362  1.00  0.00    -0.219 Br 
HETATM    9  C   UNL     1      -9.464   5.341  71.160  1.00  0.00    -0.158 A  
BRANCH   4  10
HETATM   10  O   UNL     1      -9.628   9.511  71.148  1.00  0.00    -0.213 OA 
HETATM   11  C   UNL     1     -10.170  10.116  69.974  1.00  0.00    -0.220 C  
ENDBRANCH   4  10
BRANCH   7  12
HETATM   12  C   UNL     1      -7.895   5.377  69.120  1.00  0.00    -0.090 C  
BRANCH  12  13
HETATM   13  N   UNL     1      -8.592   5.524  67.701  1.00  0.00    -0.109 N  
HETATM   14  O   UNL     1      -8.854   4.155  65.082  1.00  0.00    -0.122 OA 
HETATM   15  C   UNL     1      -7.515   5.566  66.568  1.00  0.00    -0.087 C  
HETATM   16  C   UNL     1      -8.161   5.400  65.178  1.00  0.00    -0.138 C  
HETATM   17  C   UNL     1      -9.407   4.215  67.460  1.00  0.00    -0.171 C  
HETATM   18  C   UNL     1      -9.922   4.076  66.027  1.00  0.00    -0.124 C  
BRANCH  13  19
HETATM   19  C   UNL     1      -9.503   6.798  67.652  1.00  0.00    -0.118 C  
BRANCH  19  20
HETATM   20  C   UNL     1      -8.821   7.945  66.877  1.00  0.00    -0.133 C  
BRANCH  20  21
HETATM   21  O   UNL     1      -9.609   8.500  65.829  1.00  0.00    -0.152 OA 
BRANCH  21  22
HETATM   22  C   UNL     1      -8.915   9.569  65.131  1.00  0.00    -0.209 C  
BRANCH  22  23
HETATM   23  C   UNL     1      -9.870  10.525  64.412  1.00  0.00    -0.405 C  
BRANCH  23  24
HETATM   24  C   UNL     1      -9.921  11.980  64.912  1.00  0.00    -0.253 C  
HETATM   25  C   UNL     1     -10.202  11.953  66.441  1.00  0.00    -0.240 C  
HETATM   26  C   UNL     1     -11.622  12.364  66.854  1.00  0.00    -0.437 C  
HETATM   27  C   UNL     1     -12.309  13.206  65.778  1.00  0.00    -0.496 C  
HETATM   28  C   UNL     1     -12.434  12.355  64.481  1.00  0.00    -0.519 C  
HETATM   29  C   UNL     1     -10.982  12.844  64.184  1.00  0.00    -0.442 C  
HETATM   30  C   UNL     1     -11.419  14.199  64.921  1.00  0.00    -0.366 C  
HETATM   31  C   UNL     1     -10.334  15.024  65.618  1.00  0.00    -0.374 C  
HETATM   32  C   UNL     1     -12.270  15.200  64.105  1.00  0.00    -0.182 C  
ENDBRANCH  23  24
ENDBRANCH  22  23
ENDBRANCH  21  22
ENDBRANCH  20  21
ENDBRANCH  19  20
ENDBRANCH  13  19
ENDBRANCH  12  13
ENDBRANCH   7  12
ENDBRANCH   2   3
TORSDOF 10
ENDMDL
MODEL      158
REMARK 921   NORMALIZED FREE ENERGY PREDICTED BY IDOCK:   -4.18 KCAL/MOL
REMARK 922        TOTAL FREE ENERGY PREDICTED BY IDOCK:   -7.90 KCAL/MOL
REMARK 923 INTER-LIGAND FREE ENERGY PREDICTED BY IDOCK:   -7.22 KCAL/MOL
REMARK 924 INTRA-LIGAND FREE ENERGY PREDICTED BY IDOCK:   -0.68 KCAL/MOL
REMARK 927      BINDING AFFINITY PREDICTED BY RF-SCORE:    0.00 PKD
ROOT
HETATM    1  C   UNL     1     -11.507  12.460  63.314  1.00  0.00    -0.351 C  
HETATM    2  O   UNL     1     -10.927  12.547  64.608  1.00  0.00    -0.285 OA 
ENDROOT
BRANCH   2   3
HETATM    3  C   UNL     1     -10.555  11.388  65.230  1.00  0.00    -0.277 A  
HETATM    4  C   UNL     1     -10.897  10.944  66.515  1.00  0.00    -0.171 A  
HETATM    5  C   UNL     1      -9.663  10.627  64.466  1.00  0.00    -0.367 A  
HETATM    6  C   UNL     1     -10.320   9.764  67.003  1.00  0.00    -0.305 A  
HETATM    7  C   UNL     1      -9.311   9.071  66.297  1.00  0.00    -0.284 A  
HETATM    8 BR   UNL     1      -7.950   8.498  63.788  1.00  0.00    -0.156 Br 
HETATM    9  C   UNL     1      -9.066   9.473  64.976  1.00  0.00    -0.228 A  
BRANCH   4  10
HETATM   10  O   UNL     1     -11.799  11.654  67.255  1.00  0.00    -0.609 OA 
HETATM   11  C   UNL     1     -11.961  11.227  68.608  1.00  0.00    -0.243 C  
ENDBRANCH   4  10
BRANCH   7  12
HETATM   12  C   UNL     1      -8.457   8.049  67.032  1.00  0.00    -0.120 C  
BRANCH  12  13
HETATM   13  N   UNL     1      -9.135   6.623  67.197  1.00  0.00    -0.126 N  
HETATM   14  O   UNL     1      -8.530   3.723  67.035  1.00  0.00    -0.101 OA 
HETATM   15  C   UNL     1      -9.030   5.813  65.864  1.00  0.00    -0.151 C  
HETATM   16  C   UNL     1      -9.400   4.332  66.080  1.00  0.00    -0.164 C  
HETATM   17  C   UNL     1      -8.281   5.834  68.238  1.00  0.00    -0.108 C  
HETATM   18  C   UNL     1      -8.637   4.349  68.315  1.00  0.00    -0.094 C  
BRANCH  13  19
HETATM   19  C   UNL     1     -10.629   6.761  67.649  1.00  0.00    -0.259 C  
BRANCH  19  20
HETATM   20  C   UNL     1     -10.733   7.056  69.160  1.00  0.00    -0.218 C  
BRANCH  20  21
HETATM   21  O   UNL     1     -11.736   6.309  69.840  1.00  0.00    -0.408 OA 
BRANCH  21  22
HETATM   22  C   UNL     1     -12.235   7.007  71.013  1.00  0.00    -0.374 C  
BRANCH  22  23
HETATM   23  C   UNL     1     -11.689   6.432  72.323  1.00  0.00    -0.333 C  
BRANCH  23  24
HETATM   24  C   UNL     1     -10.887   5.120  72.237  1.00  0.00    -0.241 C  
HETATM   25  C   UNL     1     -11.111   4.332  73.558  1.00  0.00    -0.377 C  
HETATM   26  C   UNL     1      -9.922   4.327  74.529  1.00  0.00    -0.221 C  
HETATM   27  C   UNL     1      -8.603   4.631  73.817  1.00  0.00    -0.103 C  
HETATM   28  C   UNL     1      -8.685   6.056  73.196  1.00  0.00    -0.121 C  
HETATM   29  C   UNL     1      -9.372   5.342  71.992  1.00  0.00    -0.159 C  
HETATM   30  C   UNL     1      -8.411   4.105  72.334  1.00  0.00    -0.105 C  
HETATM   31  C   UNL     1      -8.890   2.697  71.972  1.00  0.00    -0.112 C  
HETATM   32  C   UNL     1      -6.944   4.202  71.858  1.00  0.00    -0.045 C  
ENDBRANCH  23  24
ENDBRANCH  22  23
ENDBRANCH  21  22
ENDBRANCH  20  21
ENDBRANCH  19  20
ENDBRANCH  13  19
ENDBRANCH  12  13
ENDBRANCH   7  12
ENDBRANCH   2   3
TORSDOF 10
ENDMDL
MODEL      159
REMARK 921   NORMALIZED FREE ENERGY PREDICTED BY IDOCK:   -4.18 KCAL/MOL
REMARK 922        TOTAL FREE ENERGY PREDICTED BY IDOCK:   -7.89 KCAL/MOL
REMARK 923 INTER-LIGAND FREE ENERGY PREDICTED BY IDOCK:   -7.20 KCAL/MOL
REMARK 924 INTRA-LIGAND FREE ENERGY PREDICTED BY IDOCK:   -0.69 KCAL/MOL
REMARK 927      BINDING AFFINITY PREDICTED BY RF-SCORE:    0.00 PKD
ROOT
HETATM    1  C   UNL     1      -5.596  10.639  70.340  1.00  0.00    -0.083 C  
HETATM    2  O   UNL     1      -5.567  11.854  69.605  1.00  0.00    -0.069 OA 
ENDROOT
BRANCH   2   3
HETATM    3  C   UNL     1      -6.478  12.024  68.600  1.00  0.00    -0.063 A  
HETATM    4  C   UNL     1      -7.299  13.131  68.350  1.00  0.00    -0.116 A  
HETATM    5  C   UNL     1      -6.613  10.886  67.796  1.00  0.00    -0.064 A  
HETATM    6  C   UNL     1      -8.245  13.059  67.318  1.00  0.00    -0.174 A  
HETATM    7  C   UNL     1      -8.486  11.866  66.601  1.00  0.00    -0.143 A  
HETATM    8 BR   UNL     1      -7.583   9.239  65.728  1.00  0.00    -0.099 Br 
HETATM    9  C   UNL     1      -7.583  10.811  66.795  1.00  0.00    -0.129 A  
BRANCH   4  10
HETATM   10  O   UNL     1      -7.150  14.264  69.099  1.00  0.00    -0.117 OA 
HETATM   11  C   UNL     1      -8.179  15.243  68.954  1.00  0.00    -0.186 C  
ENDBRANCH   4  10
BRANCH   7  12
HETATM   12  C   UNL     1      -9.764  11.732  65.788  1.00  0.00    -0.237 C  
BRANCH  12  13
HETATM   13  N   UNL     1     -10.770  12.952  65.938  1.00  0.00    -0.268 N  
HETATM   14  O   UNL     1     -12.551  14.712  64.347  1.00  0.00    -0.662 OA 
HETATM   15  C   UNL     1     -10.281  14.167  65.083  1.00  0.00    -0.384 C  
HETATM   16  C   UNL     1     -11.379  15.243  64.966  1.00  0.00    -0.358 C  
HETATM   17  C   UNL     1     -12.122  12.505  65.301  1.00  0.00    -0.444 C  
HETATM   18  C   UNL     1     -13.117  13.653  65.120  1.00  0.00    -0.067 C  
BRANCH  13  19
HETATM   19  C   UNL     1     -10.936  13.360  67.442  1.00  0.00    -0.272 C  
BRANCH  19  20
HETATM   20  C   UNL     1     -11.977  12.471  68.152  1.00  0.00    -0.219 C  
BRANCH  20  21
HETATM   21  O   UNL     1     -11.825  12.397  69.566  1.00  0.00    -0.298 OA 
BRANCH  21  22
HETATM   22  C   UNL     1     -12.644  11.347  70.149  1.00  0.00    -0.101 C  
BRANCH  22  23
HETATM   23  C   UNL     1     -11.926  10.585  71.265  1.00  0.00    -0.386 C  
BRANCH  23  24
HETATM   24  C   UNL     1     -11.534   9.123  70.982  1.00  0.00    -0.372 C  
HETATM   25  C   UNL     1     -10.586   8.651  72.120  1.00  0.00    -0.411 C  
HETATM   26  C   UNL     1      -9.107   8.522  71.729  1.00  0.00    -0.304 C  
HETATM   27  C   UNL     1      -8.926   8.369  70.219  1.00  0.00    -0.147 C  
HETATM   28  C   UNL     1      -9.479   9.643  69.517  1.00  0.00    -0.211 C  
HETATM   29  C   UNL     1     -10.860   8.923  69.600  1.00  0.00    -0.186 C  
HETATM   30  C   UNL     1     -10.027   7.567  69.408  1.00  0.00    -0.178 C  
HETATM   31  C   UNL     1     -10.601   6.277  70.000  1.00  0.00    -0.307 C  
HETATM   32  C   UNL     1      -9.569   7.221  67.973  1.00  0.00    -0.148 C  
ENDBRANCH  23  24
ENDBRANCH  22  23
ENDBRANCH  21  22
ENDBRANCH  20  21
ENDBRANCH  19  20
ENDBRANCH  13  19
ENDBRANCH  12  13
ENDBRANCH   7  12
ENDBRANCH   2   3
TORSDOF 10
ENDMDL
MODEL      160
REMARK 921   NORMALIZED FREE ENERGY PREDICTED BY IDOCK:   -4.15 KCAL/MOL
REMARK 922        TOTAL FREE ENERGY PREDICTED BY IDOCK:   -7.85 KCAL/MOL
REMARK 923 INTER-LIGAND FREE ENERGY PREDICTED BY IDOCK:   -6.85 KCAL/MOL
REMARK 924 INTRA-LIGAND FREE ENERGY PREDICTED BY IDOCK:   -0.99 KCAL/MOL
REMARK 927      BINDING AFFINITY PREDICTED BY RF-SCORE:    0.00 PKD
ROOT
HETATM    1  C   UNL     1     -13.500  13.391  72.220  1.00  0.00    -0.586 C  
HETATM    2  O   UNL     1     -12.881  12.123  72.059  1.00  0.00    -0.289 OA 
ENDROOT
BRANCH   2   3
HETATM    3  C   UNL     1     -12.455  11.764  70.811  1.00  0.00    -0.312 A  
HETATM    4  C   UNL     1     -12.129  10.485  70.340  1.00  0.00    -0.329 A  
HETATM    5  C   UNL     1     -12.273  12.864  69.965  1.00  0.00    -0.292 A  
HETATM    6  C   UNL     1     -11.610  10.348  69.045  1.00  0.00    -0.220 A  
HETATM    7  C   UNL     1     -11.287  11.465  68.242  1.00  0.00    -0.354 A  
HETATM    8 BR   UNL     1     -11.621  14.291  67.627  1.00  0.00    -0.418 Br 
HETATM    9  C   UNL     1     -11.721  12.720  68.691  1.00  0.00    -0.324 A  
BRANCH   4  10
HETATM   10  O   UNL     1     -12.341   9.398  71.138  1.00  0.00    -0.305 OA 
HETATM   11  C   UNL     1     -11.167   8.767  71.652  1.00  0.00    -0.324 C  
ENDBRANCH   4  10
BRANCH   7  12
HETATM   12  C   UNL     1     -10.379  11.276  67.037  1.00  0.00    -0.227 C  
BRANCH  12  13
HETATM   13  N   UNL     1      -8.827  11.318  67.370  1.00  0.00    -0.143 N  
HETATM   14  O   UNL     1      -6.877  12.563  69.228  1.00  0.00    -0.091 OA 
HETATM   15  C   UNL     1      -8.281  12.778  67.234  1.00  0.00    -0.181 C  
HETATM   16  C   UNL     1      -6.869  12.903  67.841  1.00  0.00    -0.120 C  
HETATM   17  C   UNL     1      -8.679  10.952  68.880  1.00  0.00    -0.140 C  
HETATM   18  C   UNL     1      -7.276  11.207  69.432  1.00  0.00    -0.091 C  
BRANCH  13  19
HETATM   19  C   UNL     1      -8.027  10.336  66.448  1.00  0.00    -0.121 C  
BRANCH  19  20
HETATM   20  C   UNL     1      -8.931   9.740  65.349  1.00  0.00    -0.190 C  
BRANCH  20  21
HETATM   21  O   UNL     1      -9.199   8.349  65.494  1.00  0.00    -0.120 OA 
BRANCH  21  22
HETATM   22  C   UNL     1      -8.587   7.797  66.692  1.00  0.00    -0.136 C  
BRANCH  22  23
HETATM   23  C   UNL     1      -8.575   6.267  66.701  1.00  0.00    -0.119 C  
BRANCH  23  24
HETATM   24  C   UNL     1      -8.017   5.573  67.956  1.00  0.00    -0.096 C  
HETATM   25  C   UNL     1      -8.261   4.044  67.809  1.00  0.00    -0.093 C  
HETATM   26  C   UNL     1      -9.380   3.472  68.690  1.00  0.00    -0.230 C  
HETATM   27  C   UNL     1      -9.678   4.369  69.892  1.00  0.00    -0.291 C  
HETATM   28  C   UNL     1     -10.161   5.755  69.375  1.00  0.00    -0.301 C  
HETATM   29  C   UNL     1      -8.641   6.094  69.276  1.00  0.00    -0.119 C  
HETATM   30  C   UNL     1      -8.472   5.151  70.561  1.00  0.00    -0.113 C  
HETATM   31  C   UNL     1      -7.134   4.435  70.760  1.00  0.00    -0.037 C  
HETATM   32  C   UNL     1      -8.850   5.757  71.932  1.00  0.00    -0.139 C  
ENDBRANCH  23  24
ENDBRANCH  22  23
ENDBRANCH  21  22
ENDBRANCH  20  21
ENDBRANCH  19  20
ENDBRANCH  13  19
ENDBRANCH  12  13
ENDBRANCH   7  12
ENDBRANCH   2   3
TORSDOF 10
ENDMDL
MODEL      161
REMARK 921   NORMALIZED FREE ENERGY PREDICTED BY IDOCK:   -4.15 KCAL/MOL
REMARK 922        TOTAL FREE ENERGY PREDICTED BY IDOCK:   -7.84 KCAL/MOL
REMARK 923 INTER-LIGAND FREE ENERGY PREDICTED BY IDOCK:   -6.94 KCAL/MOL
REMARK 924 INTRA-LIGAND FREE ENERGY PREDICTED BY IDOCK:   -0.91 KCAL/MOL
REMARK 927      BINDING AFFINITY PREDICTED BY RF-SCORE:    0.00 PKD
ROOT
HETATM    1  C   UNL     1     -10.213   6.064  71.765  1.00  0.00    -0.202 C  
HETATM    2  O   UNL     1     -11.157   7.118  71.881  1.00  0.00    -0.229 OA 
ENDROOT
BRANCH   2   3
HETATM    3  C   UNL     1     -10.869   8.313  71.283  1.00  0.00    -0.237 A  
HETATM    4  C   UNL     1     -11.761   9.298  70.838  1.00  0.00    -0.296 A  
HETATM    5  C   UNL     1      -9.500   8.483  71.047  1.00  0.00    -0.234 A  
HETATM    6  C   UNL     1     -11.259  10.412  70.152  1.00  0.00    -0.393 A  
HETATM    7  C   UNL     1      -9.899  10.518  69.783  1.00  0.00    -0.050 A  
HETATM    8 BR   UNL     1      -7.127   9.718  70.170  1.00  0.00    -0.147 Br 
HETATM    9  C   UNL     1      -9.014   9.578  70.330  1.00  0.00    -0.248 A  
BRANCH   4  10
HETATM   10  O   UNL     1     -13.095   9.167  71.099  1.00  0.00    -0.271 OA 
HETATM   11  C   UNL     1     -13.652  10.138  71.985  1.00  0.00    -0.229 C  
ENDBRANCH   4  10
BRANCH   7  12
HETATM   12  C   UNL     1      -9.493  11.528  68.720  1.00  0.00    -0.089 C  
BRANCH  12  13
HETATM   13  N   UNL     1      -9.321  10.916  67.264  1.00  0.00    -0.155 N  
HETATM   14  O   UNL     1      -7.948   8.729  65.805  1.00  0.00    -0.099 OA 
HETATM   15  C   UNL     1      -7.817  10.944  66.838  1.00  0.00    -0.135 C  
HETATM   16  C   UNL     1      -7.580  10.089  65.577  1.00  0.00    -0.136 C  
HETATM   17  C   UNL     1      -9.705   9.407  67.360  1.00  0.00    -0.159 C  
HETATM   18  C   UNL     1      -9.338   8.606  66.110  1.00  0.00    -0.226 C  
BRANCH  13  19
HETATM   19  C   UNL     1     -10.210  11.681  66.225  1.00  0.00    -0.227 C  
BRANCH  19  20
HETATM   20  C   UNL     1     -11.241  12.588  66.929  1.00  0.00    -0.303 C  
BRANCH  20  21
HETATM   21  O   UNL     1     -11.111  13.974  66.629  1.00  0.00    -0.300 OA 
BRANCH  21  22
HETATM   22  C   UNL     1      -9.875  14.266  65.923  1.00  0.00    -0.298 C  
BRANCH  22  23
HETATM   23  C   UNL     1      -9.589  15.767  65.825  1.00  0.00    -0.355 C  
BRANCH  23  24
HETATM   24  C   UNL     1      -8.303  16.285  66.494  1.00  0.00    -0.343 C  
HETATM   25  C   UNL     1      -7.668  15.109  67.289  1.00  0.00    -0.241 C  
HETATM   26  C   UNL     1      -7.813  15.195  68.815  1.00  0.00    -0.147 C  
HETATM   27  C   UNL     1      -8.073  16.627  69.284  1.00  0.00    -0.044 C  
HETATM   28  C   UNL     1      -9.412  17.122  68.664  1.00  0.00    -0.275 C  
HETATM   29  C   UNL     1      -8.541  17.500  67.427  1.00  0.00    -0.225 C  
HETATM   30  C   UNL     1      -7.384  17.814  68.491  1.00  0.00    -0.266 C  
HETATM   31  C   UNL     1      -5.928  17.666  68.039  1.00  0.00    -0.158 C  
HETATM   32  C   UNL     1      -7.470  19.159  69.248  1.00  0.00    -0.219 C  
ENDBRANCH  23  24
ENDBRANCH  22  23
ENDBRANCH  21  22
ENDBRANCH  20  21
ENDBRANCH  19  20
ENDBRANCH  13  19
ENDBRANCH  12  13
ENDBRANCH   7  12
ENDBRANCH   2   3
TORSDOF 10
ENDMDL
MODEL      162
REMARK 921   NORMALIZED FREE ENERGY PREDICTED BY IDOCK:   -4.15 KCAL/MOL
REMARK 922        TOTAL FREE ENERGY PREDICTED BY IDOCK:   -7.84 KCAL/MOL
REMARK 923 INTER-LIGAND FREE ENERGY PREDICTED BY IDOCK:   -7.18 KCAL/MOL
REMARK 924 INTRA-LIGAND FREE ENERGY PREDICTED BY IDOCK:   -0.66 KCAL/MOL
REMARK 927      BINDING AFFINITY PREDICTED BY RF-SCORE:    0.00 PKD
ROOT
HETATM    1  C   UNL     1      -5.467   8.727  64.117  1.00  0.00    -0.056 C  
HETATM    2  O   UNL     1      -5.369   8.969  65.513  1.00  0.00    -0.037 OA 
ENDROOT
BRANCH   2   3
HETATM    3  C   UNL     1      -6.408   9.604  66.135  1.00  0.00    -0.069 A  
HETATM    4  C   UNL     1      -6.448  10.908  66.646  1.00  0.00    -0.120 A  
HETATM    5  C   UNL     1      -7.516   8.769  66.320  1.00  0.00    -0.087 A  
HETATM    6  C   UNL     1      -7.587  11.331  67.345  1.00  0.00    -0.120 A  
HETATM    7  C   UNL     1      -8.646  10.451  67.660  1.00  0.00    -0.118 A  
HETATM    8 BR   UNL     1     -10.093   7.979  67.135  1.00  0.00    -0.362 Br 
HETATM    9  C   UNL     1      -8.631   9.189  67.049  1.00  0.00    -0.123 A  
BRANCH   4  10
HETATM   10  O   UNL     1      -5.391  11.747  66.437  1.00  0.00    -0.303 OA 
HETATM   11  C   UNL     1      -5.142  12.700  67.471  1.00  0.00    -0.075 C  
ENDBRANCH   4  10
BRANCH   7  12
HETATM   12  C   UNL     1      -9.647  10.846  68.736  1.00  0.00    -0.189 C  
BRANCH  12  13
HETATM   13  N   UNL     1     -10.625  12.026  68.322  1.00  0.00    -0.204 N  
HETATM   14  O   UNL     1     -11.076  14.037  66.189  1.00  0.00    -0.297 OA 
HETATM   15  C   UNL     1      -9.831  13.367  68.187  1.00  0.00    -0.234 C  
HETATM   16  C   UNL     1     -10.683  14.451  67.498  1.00  0.00    -0.271 C  
HETATM   17  C   UNL     1     -11.148  11.699  66.889  1.00  0.00    -0.308 C  
HETATM   18  C   UNL     1     -11.889  12.864  66.233  1.00  0.00    -0.416 C  
BRANCH  13  19
HETATM   19  C   UNL     1     -11.795  12.173  69.354  1.00  0.00    -0.309 C  
BRANCH  19  20
HETATM   20  C   UNL     1     -12.399  10.800  69.715  1.00  0.00    -0.236 C  
BRANCH  20  21
HETATM   21  O   UNL     1     -12.127  10.366  71.044  1.00  0.00    -0.326 OA 
BRANCH  21  22
HETATM   22  C   UNL     1     -12.591   9.009  71.280  1.00  0.00    -0.280 C  
BRANCH  22  23
HETATM   23  C   UNL     1     -12.283   8.515  72.696  1.00  0.00    -0.297 C  
BRANCH  23  24
HETATM   24  C   UNL     1     -10.977   7.724  72.898  1.00  0.00    -0.467 C  
HETATM   25  C   UNL     1      -9.863   8.413  72.061  1.00  0.00    -0.354 C  
HETATM   26  C   UNL     1      -9.445   7.667  70.786  1.00  0.00    -0.162 C  
HETATM   27  C   UNL     1      -9.802   6.182  70.850  1.00  0.00    -0.215 C  
HETATM   28  C   UNL     1     -11.347   6.044  70.979  1.00  0.00    -0.299 C  
HETATM   29  C   UNL     1     -11.098   6.229  72.508  1.00  0.00    -0.307 C  
HETATM   30  C   UNL     1      -9.720   5.449  72.253  1.00  0.00    -0.187 C  
HETATM   31  C   UNL     1      -8.541   5.745  73.184  1.00  0.00    -0.116 C  
HETATM   32  C   UNL     1      -9.796   3.911  72.122  1.00  0.00    -0.235 C  
ENDBRANCH  23  24
ENDBRANCH  22  23
ENDBRANCH  21  22
ENDBRANCH  20  21
ENDBRANCH  19  20
ENDBRANCH  13  19
ENDBRANCH  12  13
ENDBRANCH   7  12
ENDBRANCH   2   3
TORSDOF 10
ENDMDL
MODEL      163
REMARK 921   NORMALIZED FREE ENERGY PREDICTED BY IDOCK:   -4.14 KCAL/MOL
REMARK 922        TOTAL FREE ENERGY PREDICTED BY IDOCK:   -7.84 KCAL/MOL
REMARK 923 INTER-LIGAND FREE ENERGY PREDICTED BY IDOCK:   -7.05 KCAL/MOL
REMARK 924 INTRA-LIGAND FREE ENERGY PREDICTED BY IDOCK:   -0.78 KCAL/MOL
REMARK 927      BINDING AFFINITY PREDICTED BY RF-SCORE:    0.00 PKD
ROOT
HETATM    1  C   UNL     1      -8.830  17.006  67.457  1.00  0.00    -0.211 C  
HETATM    2  O   UNL     1     -10.223  16.885  67.709  1.00  0.00    -0.285 OA 
ENDROOT
BRANCH   2   3
HETATM    3  C   UNL     1     -10.732  15.638  67.943  1.00  0.00    -0.294 A  
HETATM    4  C   UNL     1     -10.877  14.976  69.170  1.00  0.00    -0.251 A  
HETATM    5  C   UNL     1     -11.064  14.960  66.765  1.00  0.00    -0.335 A  
HETATM    6  C   UNL     1     -11.331  13.650  69.179  1.00  0.00    -0.335 A  
HETATM    7  C   UNL     1     -11.528  12.914  67.989  1.00  0.00    -0.361 A  
HETATM    8 BR   UNL     1     -11.983  12.873  65.114  1.00  0.00    -0.490 Br 
HETATM    9  C   UNL     1     -11.480  13.627  66.783  1.00  0.00    -0.346 A  
BRANCH   4  10
HETATM   10  O   UNL     1     -10.598  15.639  70.331  1.00  0.00    -0.322 OA 
HETATM   11  C   UNL     1     -11.730  16.051  71.097  1.00  0.00    -0.439 C  
ENDBRANCH   4  10
BRANCH   7  12
HETATM   12  C   UNL     1     -11.631  11.398  68.060  1.00  0.00    -0.286 C  
BRANCH  12  13
HETATM   13  N   UNL     1     -10.250  10.637  67.879  1.00  0.00    -0.171 N  
HETATM   14  O   UNL     1      -7.916  10.446  66.057  1.00  0.00    -0.132 OA 
HETATM   15  C   UNL     1     -10.240   9.842  66.533  1.00  0.00    -0.219 C  
HETATM   16  C   UNL     1      -8.820   9.349  66.187  1.00  0.00    -0.151 C  
HETATM   17  C   UNL     1      -9.146  11.730  67.732  1.00  0.00    -0.178 C  
HETATM   18  C   UNL     1      -7.795  11.172  67.281  1.00  0.00    -0.137 C  
BRANCH  13  19
HETATM   19  C   UNL     1      -9.971   9.684  69.092  1.00  0.00    -0.185 C  
BRANCH  19  20
HETATM   20  C   UNL     1     -10.874   8.433  69.040  1.00  0.00     0.009 C  
BRANCH  20  21
HETATM   21  O   UNL     1     -11.376   8.015  70.305  1.00  0.00    -0.243 OA 
BRANCH  21  22
HETATM   22  C   UNL     1     -11.186   9.027  71.331  1.00  0.00    -0.324 C  
BRANCH  22  23
HETATM   23  C   UNL     1     -10.640   8.450  72.639  1.00  0.00    -0.312 C  
BRANCH  23  24
HETATM   24  C   UNL     1      -9.720   7.219  72.539  1.00  0.00    -0.189 C  
HETATM   25  C   UNL     1      -9.323   6.797  73.981  1.00  0.00    -0.236 C  
HETATM   26  C   UNL     1      -7.881   7.128  74.388  1.00  0.00    -0.153 C  
HETATM   27  C   UNL     1      -6.974   7.320  73.172  1.00  0.00    -0.069 C  
HETATM   28  C   UNL     1      -7.505   8.520  72.335  1.00  0.00    -0.085 C  
HETATM   29  C   UNL     1      -8.453   7.468  71.681  1.00  0.00    -0.119 C  
HETATM   30  C   UNL     1      -7.245   6.434  71.886  1.00  0.00    -0.087 C  
HETATM   31  C   UNL     1      -7.586   4.951  72.057  1.00  0.00    -0.088 C  
HETATM   32  C   UNL     1      -6.084   6.498  70.868  1.00  0.00    -0.031 C  
ENDBRANCH  23  24
ENDBRANCH  22  23
ENDBRANCH  21  22
ENDBRANCH  20  21
ENDBRANCH  19  20
ENDBRANCH  13  19
ENDBRANCH  12  13
ENDBRANCH   7  12
ENDBRANCH   2   3
TORSDOF 10
ENDMDL
MODEL      164
REMARK 921   NORMALIZED FREE ENERGY PREDICTED BY IDOCK:   -4.12 KCAL/MOL
REMARK 922        TOTAL FREE ENERGY PREDICTED BY IDOCK:   -7.80 KCAL/MOL
REMARK 923 INTER-LIGAND FREE ENERGY PREDICTED BY IDOCK:   -6.93 KCAL/MOL
REMARK 924 INTRA-LIGAND FREE ENERGY PREDICTED BY IDOCK:   -0.86 KCAL/MOL
REMARK 927      BINDING AFFINITY PREDICTED BY RF-SCORE:    0.00 PKD
ROOT
HETATM    1  C   UNL     1      -8.667   2.113  71.324  1.00  0.00    -0.064 C  
HETATM    2  O   UNL     1      -8.121   3.000  72.290  1.00  0.00    -0.057 OA 
ENDROOT
BRANCH   2   3
HETATM    3  C   UNL     1      -8.172   4.343  72.037  1.00  0.00    -0.100 A  
HETATM    4  C   UNL     1      -9.015   5.303  72.613  1.00  0.00    -0.132 A  
HETATM    5  C   UNL     1      -7.301   4.733  71.014  1.00  0.00    -0.060 A  
HETATM    6  C   UNL     1      -8.976   6.619  72.134  1.00  0.00    -0.138 A  
HETATM    7  C   UNL     1      -8.206   6.987  71.007  1.00  0.00    -0.117 A  
HETATM    8 BR   UNL     1      -5.994   6.440  69.195  1.00  0.00    -0.022 Br 
HETATM    9  C   UNL     1      -7.296   6.039  70.519  1.00  0.00    -0.085 A  
BRANCH   4  10
HETATM   10  O   UNL     1      -9.840   4.946  73.641  1.00  0.00    -0.141 OA 
HETATM   11  C   UNL     1     -11.230   4.866  73.321  1.00  0.00    -0.345 C  
ENDBRANCH   4  10
BRANCH   7  12
HETATM   12  C   UNL     1      -8.501   8.302  70.303  1.00  0.00    -0.125 C  
BRANCH  12  13
HETATM   13  N   UNL     1      -9.523   8.185  69.093  1.00  0.00    -0.155 N  
HETATM   14  O   UNL     1      -9.895   6.828  66.481  1.00  0.00    -0.169 OA 
HETATM   15  C   UNL     1      -8.838   8.628  67.759  1.00  0.00    -0.136 C  
HETATM   16  C   UNL     1      -9.694   8.240  66.537  1.00  0.00    -0.253 C  
HETATM   17  C   UNL     1      -9.845   6.669  68.918  1.00  0.00    -0.139 C  
HETATM   18  C   UNL     1     -10.603   6.354  67.627  1.00  0.00    -0.274 C  
BRANCH  13  19
HETATM   19  C   UNL     1     -10.813   9.031  69.365  1.00  0.00    -0.138 C  
BRANCH  19  20
HETATM   20  C   UNL     1     -10.764   9.699  70.754  1.00  0.00    -0.331 C  
BRANCH  20  21
HETATM   21  O   UNL     1     -11.605  10.840  70.892  1.00  0.00    -0.306 OA 
BRANCH  21  22
HETATM   22  C   UNL     1     -12.161  11.265  69.619  1.00  0.00    -0.322 C  
BRANCH  22  23
HETATM   23  C   UNL     1     -11.866  12.734  69.304  1.00  0.00    -0.358 C  
BRANCH  23  24
HETATM   24  C   UNL     1     -11.990  13.180  67.836  1.00  0.00    -0.347 C  
HETATM   25  C   UNL     1     -11.517  12.004  66.935  1.00  0.00    -0.402 C  
HETATM   26  C   UNL     1     -10.143  12.192  66.279  1.00  0.00    -0.247 C  
HETATM   27  C   UNL     1      -9.744  13.666  66.201  1.00  0.00    -0.269 C  
HETATM   28  C   UNL     1      -9.646  14.235  67.647  1.00  0.00    -0.219 C  
HETATM   29  C   UNL     1     -11.184  14.464  67.513  1.00  0.00    -0.329 C  
HETATM   30  C   UNL     1     -10.884  14.741  65.963  1.00  0.00    -0.318 C  
HETATM   31  C   UNL     1     -11.992  14.444  64.949  1.00  0.00    -0.430 C  
HETATM   32  C   UNL     1     -10.318  16.132  65.594  1.00  0.00    -0.405 C  
ENDBRANCH  23  24
ENDBRANCH  22  23
ENDBRANCH  21  22
ENDBRANCH  20  21
ENDBRANCH  19  20
ENDBRANCH  13  19
ENDBRANCH  12  13
ENDBRANCH   7  12
ENDBRANCH   2   3
TORSDOF 10
ENDMDL
MODEL      165
REMARK 921   NORMALIZED FREE ENERGY PREDICTED BY IDOCK:   -4.11 KCAL/MOL
REMARK 922        TOTAL FREE ENERGY PREDICTED BY IDOCK:   -7.79 KCAL/MOL
REMARK 923 INTER-LIGAND FREE ENERGY PREDICTED BY IDOCK:   -6.79 KCAL/MOL
REMARK 924 INTRA-LIGAND FREE ENERGY PREDICTED BY IDOCK:   -1.00 KCAL/MOL
REMARK 927      BINDING AFFINITY PREDICTED BY RF-SCORE:    0.00 PKD
ROOT
HETATM    1  C   UNL     1     -11.702   5.638  73.061  1.00  0.00    -0.037 C  
HETATM    2  O   UNL     1     -10.944   6.835  73.163  1.00  0.00    -0.275 OA 
ENDROOT
BRANCH   2   3
HETATM    3  C   UNL     1     -10.064   7.131  72.161  1.00  0.00    -0.180 A  
HETATM    4  C   UNL     1      -8.941   7.969  72.211  1.00  0.00    -0.171 A  
HETATM    5  C   UNL     1     -10.424   6.555  70.937  1.00  0.00    -0.263 A  
HETATM    6  C   UNL     1      -8.225   8.221  71.033  1.00  0.00    -0.123 A  
HETATM    7  C   UNL     1      -8.667   7.761  69.772  1.00  0.00    -0.139 A  
HETATM    8 BR   UNL     1     -10.276   5.913  68.200  1.00  0.00    -0.257 Br 
HETATM    9  C   UNL     1      -9.726   6.842  69.763  1.00  0.00    -0.156 A  
BRANCH   4  10
HETATM   10  O   UNL     1      -8.553   8.504  73.406  1.00  0.00    -0.350 OA 
HETATM   11  C   UNL     1      -7.249   8.133  73.857  1.00  0.00    -0.152 C  
ENDBRANCH   4  10
BRANCH   7  12
HETATM   12  C   UNL     1      -8.089   8.382  68.509  1.00  0.00    -0.123 C  
BRANCH  12  13
HETATM   13  N   UNL     1      -8.173   9.967  68.459  1.00  0.00    -0.105 N  
HETATM   14  O   UNL     1      -6.566  12.364  67.768  1.00  0.00    -0.085 OA 
HETATM   15  C   UNL     1      -7.080  10.598  69.384  1.00  0.00    -0.120 C  
HETATM   16  C   UNL     1      -6.937  12.111  69.124  1.00  0.00    -0.053 C  
HETATM   17  C   UNL     1      -7.794  10.394  67.007  1.00  0.00    -0.112 C  
HETATM   18  C   UNL     1      -7.564  11.899  66.857  1.00  0.00    -0.093 C  
BRANCH  13  19
HETATM   19  C   UNL     1      -9.602  10.466  68.864  1.00  0.00    -0.192 C  
BRANCH  19  20
HETATM   20  C   UNL     1     -10.644  10.118  67.782  1.00  0.00    -0.256 C  
BRANCH  20  21
HETATM   21  O   UNL     1     -11.662  11.098  67.605  1.00  0.00    -0.573 OA 
BRANCH  21  22
HETATM   22  C   UNL     1     -11.891  11.873  68.813  1.00  0.00    -0.313 C  
BRANCH  22  23
HETATM   23  C   UNL     1     -11.889  13.382  68.559  1.00  0.00    -0.401 C  
BRANCH  23  24
HETATM   24  C   UNL     1     -10.575  14.140  68.824  1.00  0.00    -0.258 C  
HETATM   25  C   UNL     1     -10.892  15.336  69.765  1.00  0.00    -0.300 C  
HETATM   26  C   UNL     1     -10.885  16.717  69.095  1.00  0.00    -0.287 C  
HETATM   27  C   UNL     1     -10.076  16.719  67.798  1.00  0.00    -0.281 C  
HETATM   28  C   UNL     1     -10.732  15.724  66.797  1.00  0.00    -0.293 C  
HETATM   29  C   UNL     1      -9.883  14.640  67.530  1.00  0.00    -0.218 C  
HETATM   30  C   UNL     1      -8.789  15.798  67.714  1.00  0.00    -0.173 C  
HETATM   31  C   UNL     1      -7.848  15.716  68.919  1.00  0.00    -0.186 C  
HETATM   32  C   UNL     1      -7.903  16.129  66.492  1.00  0.00    -0.263 C  
ENDBRANCH  23  24
ENDBRANCH  22  23
ENDBRANCH  21  22
ENDBRANCH  20  21
ENDBRANCH  19  20
ENDBRANCH  13  19
ENDBRANCH  12  13
ENDBRANCH   7  12
ENDBRANCH   2   3
TORSDOF 10
ENDMDL
MODEL      166
REMARK 921   NORMALIZED FREE ENERGY PREDICTED BY IDOCK:   -4.10 KCAL/MOL
REMARK 922        TOTAL FREE ENERGY PREDICTED BY IDOCK:   -7.78 KCAL/MOL
REMARK 923 INTER-LIGAND FREE ENERGY PREDICTED BY IDOCK:   -6.93 KCAL/MOL
REMARK 924 INTRA-LIGAND FREE ENERGY PREDICTED BY IDOCK:   -0.85 KCAL/MOL
REMARK 927      BINDING AFFINITY PREDICTED BY RF-SCORE:    0.00 PKD
ROOT
HETATM    1  C   UNL     1     -10.551   2.493  73.434  1.00  0.00    -0.155 C  
HETATM    2  O   UNL     1     -10.176   2.455  72.065  1.00  0.00    -0.157 OA 
ENDROOT
BRANCH   2   3
HETATM    3  C   UNL     1      -9.898   3.637  71.436  1.00  0.00    -0.149 A  
HETATM    4  C   UNL     1      -9.587   3.850  70.086  1.00  0.00    -0.197 A  
HETATM    5  C   UNL     1      -9.862   4.722  72.319  1.00  0.00    -0.221 A  
HETATM    6  C   UNL     1      -9.230   5.138  69.665  1.00  0.00    -0.164 A  
HETATM    7  C   UNL     1      -9.051   6.204  70.574  1.00  0.00    -0.159 A  
HETATM    8 BR   UNL     1      -9.559   7.383  73.187  1.00  0.00    -0.288 Br 
HETATM    9  C   UNL     1      -9.469   5.993  71.896  1.00  0.00    -0.150 A  
BRANCH   4  10
HETATM   10  O   UNL     1      -9.659   2.809  69.206  1.00  0.00    -0.124 OA 
HETATM   11  C   UNL     1      -8.923   2.971  67.993  1.00  0.00    -0.151 C  
ENDBRANCH   4  10
BRANCH   7  12
HETATM   12  C   UNL     1      -8.295   7.446  70.125  1.00  0.00    -0.136 C  
BRANCH  12  13
HETATM   13  N   UNL     1      -9.049   8.316  69.032  1.00  0.00    -0.147 N  
HETATM   14  O   UNL     1      -8.683   9.498  66.336  1.00  0.00    -0.131 OA 
HETATM   15  C   UNL     1      -8.255   9.631  68.742  1.00  0.00    -0.106 C  
HETATM   16  C   UNL     1      -8.793  10.341  67.483  1.00  0.00    -0.128 C  
HETATM   17  C   UNL     1      -9.015   7.501  67.702  1.00  0.00    -0.127 C  
HETATM   18  C   UNL     1      -9.461   8.309  66.483  1.00  0.00    -0.220 C  
BRANCH  13  19
HETATM   19  C   UNL     1     -10.515   8.637  69.485  1.00  0.00    -0.220 C  
BRANCH  19  20
HETATM   20  C   UNL     1     -10.533   9.650  70.648  1.00  0.00    -0.312 C  
BRANCH  20  21
HETATM   21  O   UNL     1     -11.219  10.865  70.364  1.00  0.00    -0.267 OA 
BRANCH  21  22
HETATM   22  C   UNL     1     -11.906  10.817  69.085  1.00  0.00    -0.275 C  
BRANCH  22  23
HETATM   23  C   UNL     1     -12.034  12.194  68.428  1.00  0.00    -0.257 C  
BRANCH  23  24
HETATM   24  C   UNL     1     -10.922  13.218  68.716  1.00  0.00    -0.294 C  
HETATM   25  C   UNL     1     -11.509  14.317  69.646  1.00  0.00    -0.334 C  
HETATM   26  C   UNL     1     -11.788  15.667  68.970  1.00  0.00    -0.379 C  
HETATM   27  C   UNL     1     -10.972  15.845  67.689  1.00  0.00    -0.298 C  
HETATM   28  C   UNL     1     -11.377  14.731  66.679  1.00  0.00    -0.347 C  
HETATM   29  C   UNL     1     -10.328  13.857  67.434  1.00  0.00    -0.252 C  
HETATM   30  C   UNL     1      -9.515  15.224  67.635  1.00  0.00    -0.205 C  
HETATM   31  C   UNL     1      -8.603  15.348  68.859  1.00  0.00    -0.207 C  
HETATM   32  C   UNL     1      -8.697  15.740  66.429  1.00  0.00    -0.372 C  
ENDBRANCH  23  24
ENDBRANCH  22  23
ENDBRANCH  21  22
ENDBRANCH  20  21
ENDBRANCH  19  20
ENDBRANCH  13  19
ENDBRANCH  12  13
ENDBRANCH   7  12
ENDBRANCH   2   3
TORSDOF 10
ENDMDL
MODEL      167
REMARK 921   NORMALIZED FREE ENERGY PREDICTED BY IDOCK:   -4.07 KCAL/MOL
REMARK 922        TOTAL FREE ENERGY PREDICTED BY IDOCK:   -7.73 KCAL/MOL
REMARK 923 INTER-LIGAND FREE ENERGY PREDICTED BY IDOCK:   -6.70 KCAL/MOL
REMARK 924 INTRA-LIGAND FREE ENERGY PREDICTED BY IDOCK:   -1.02 KCAL/MOL
REMARK 927      BINDING AFFINITY PREDICTED BY RF-SCORE:    0.00 PKD
ROOT
HETATM    1  C   UNL     1     -10.085   4.651  69.916  1.00  0.00    -0.187 C  
HETATM    2  O   UNL     1     -10.684   5.787  70.521  1.00  0.00    -0.267 OA 
ENDROOT
BRANCH   2   3
HETATM    3  C   UNL     1     -10.037   6.988  70.427  1.00  0.00    -0.187 A  
HETATM    4  C   UNL     1     -10.581   8.276  70.522  1.00  0.00    -0.219 A  
HETATM    5  C   UNL     1      -8.678   6.847  70.125  1.00  0.00    -0.141 A  
HETATM    6  C   UNL     1      -9.753   9.383  70.291  1.00  0.00    -0.292 A  
HETATM    7  C   UNL     1      -8.419   9.245  69.844  1.00  0.00    -0.170 A  
HETATM    8 BR   UNL     1      -6.028   7.610  69.557  1.00  0.00    -0.030 Br 
HETATM    9  C   UNL     1      -7.871   7.955  69.861  1.00  0.00    -0.103 A  
BRANCH   4  10
HETATM   10  O   UNL     1     -11.895   8.430  70.857  1.00  0.00    -0.283 OA 
HETATM   11  C   UNL     1     -12.202   8.282  72.244  1.00  0.00    -0.370 C  
ENDBRANCH   4  10
BRANCH   7  12
HETATM   12  C   UNL     1      -7.709  10.447  69.239  1.00  0.00    -0.140 C  
BRANCH  12  13
HETATM   13  N   UNL     1      -8.045  10.708  67.709  1.00  0.00    -0.110 N  
HETATM   14  O   UNL     1     -10.019  10.011  65.607  1.00  0.00    -0.272 OA 
HETATM   15  C   UNL     1      -8.059   9.358  66.919  1.00  0.00    -0.109 C  
HETATM   16  C   UNL     1      -8.674   9.540  65.517  1.00  0.00    -0.154 C  
HETATM   17  C   UNL     1      -9.509  11.244  67.653  1.00  0.00    -0.167 C  
HETATM   18  C   UNL     1     -10.084  11.292  66.236  1.00  0.00    -0.230 C  
BRANCH  13  19
HETATM   19  C   UNL     1      -7.027  11.715  67.075  1.00  0.00    -0.144 C  
BRANCH  19  20
HETATM   20  C   UNL     1      -5.870  12.028  68.045  1.00  0.00    -0.055 C  
BRANCH  20  21
HETATM   21  O   UNL     1      -5.543  13.410  68.150  1.00  0.00    -0.087 OA 
BRANCH  21  22
HETATM   22  C   UNL     1      -6.671  14.204  68.609  1.00  0.00    -0.094 C  
BRANCH  22  23
HETATM   23  C   UNL     1      -6.887  15.467  67.772  1.00  0.00    -0.182 C  
BRANCH  23  24
HETATM   24  C   UNL     1      -8.043  15.450  66.755  1.00  0.00    -0.212 C  
HETATM   25  C   UNL     1      -8.261  16.904  66.250  1.00  0.00    -0.344 C  
HETATM   26  C   UNL     1      -9.512  17.606  66.796  1.00  0.00    -0.285 C  
HETATM   27  C   UNL     1     -10.558  16.607  67.292  1.00  0.00    -0.281 C  
HETATM   28  C   UNL     1      -9.946  15.781  68.461  1.00  0.00    -0.208 C  
HETATM   29  C   UNL     1      -9.362  14.875  67.333  1.00  0.00    -0.202 C  
HETATM   30  C   UNL     1     -10.701  15.227  66.526  1.00  0.00    -0.311 C  
HETATM   31  C   UNL     1     -10.647  15.212  64.996  1.00  0.00    -0.439 C  
HETATM   32  C   UNL     1     -11.984  14.461  66.923  1.00  0.00    -0.425 C  
ENDBRANCH  23  24
ENDBRANCH  22  23
ENDBRANCH  21  22
ENDBRANCH  20  21
ENDBRANCH  19  20
ENDBRANCH  13  19
ENDBRANCH  12  13
ENDBRANCH   7  12
ENDBRANCH   2   3
TORSDOF 10
ENDMDL
MODEL      168
REMARK 921   NORMALIZED FREE ENERGY PREDICTED BY IDOCK:   -4.06 KCAL/MOL
REMARK 922        TOTAL FREE ENERGY PREDICTED BY IDOCK:   -7.71 KCAL/MOL
REMARK 923 INTER-LIGAND FREE ENERGY PREDICTED BY IDOCK:   -6.64 KCAL/MOL
REMARK 924 INTRA-LIGAND FREE ENERGY PREDICTED BY IDOCK:   -1.07 KCAL/MOL
REMARK 927      BINDING AFFINITY PREDICTED BY RF-SCORE:    0.00 PKD
ROOT
HETATM    1  C   UNL     1     -10.854   8.084  72.427  1.00  0.00    -0.327 C  
HETATM    2  O   UNL     1      -9.466   8.156  72.136  1.00  0.00    -0.180 OA 
ENDROOT
BRANCH   2   3
HETATM    3  C   UNL     1      -9.078   8.167  70.826  1.00  0.00    -0.146 A  
HETATM    4  C   UNL     1      -8.872   7.075  69.972  1.00  0.00    -0.142 A  
HETATM    5  C   UNL     1      -8.797   9.455  70.357  1.00  0.00    -0.290 A  
HETATM    6  C   UNL     1      -8.371   7.303  68.683  1.00  0.00    -0.125 A  
HETATM    7  C   UNL     1      -7.949   8.581  68.255  1.00  0.00    -0.114 A  
HETATM    8 BR   UNL     1      -8.021  11.476  68.556  1.00  0.00    -0.135 Br 
HETATM    9  C   UNL     1      -8.263   9.668  69.084  1.00  0.00    -0.120 A  
BRANCH   4  10
HETATM   10  O   UNL     1      -9.182   5.816  70.401  1.00  0.00    -0.149 OA 
HETATM   11  C   UNL     1     -10.415   5.282  69.916  1.00  0.00    -0.281 C  
ENDBRANCH   4  10
BRANCH   7  12
HETATM   12  C   UNL     1      -7.064   8.699  67.023  1.00  0.00    -0.075 C  
BRANCH  12  13
HETATM   13  N   UNL     1      -7.802   8.387  65.652  1.00  0.00    -0.101 N  
HETATM   14  O   UNL     1      -7.356   7.139  62.998  1.00  0.00    -0.068 OA 
HETATM   15  C   UNL     1      -7.054   9.076  64.464  1.00  0.00    -0.089 C  
HETATM   16  C   UNL     1      -7.560   8.548  63.107  1.00  0.00    -0.115 C  
HETATM   17  C   UNL     1      -7.667   6.853  65.404  1.00  0.00    -0.107 C  
HETATM   18  C   UNL     1      -8.087   6.426  63.997  1.00  0.00    -0.043 C  
BRANCH  13  19
HETATM   19  C   UNL     1      -9.301   8.842  65.706  1.00  0.00    -0.219 C  
BRANCH  19  20
HETATM   20  C   UNL     1      -9.457  10.312  65.264  1.00  0.00    -0.240 C  
BRANCH  20  21
HETATM   21  O   UNL     1     -10.690  10.607  64.616  1.00  0.00    -0.234 OA 
BRANCH  21  22
HETATM   22  C   UNL     1     -10.953  12.035  64.566  1.00  0.00    -0.318 C  
BRANCH  22  23
HETATM   23  C   UNL     1     -11.568  12.571  65.861  1.00  0.00    -0.454 C  
BRANCH  23  24
HETATM   24  C   UNL     1     -10.630  13.299  66.840  1.00  0.00    -0.264 C  
HETATM   25  C   UNL     1     -11.498  13.905  67.978  1.00  0.00    -0.339 C  
HETATM   26  C   UNL     1     -11.684  15.428  67.920  1.00  0.00    -0.198 C  
HETATM   27  C   UNL     1     -10.587  16.107  67.100  1.00  0.00    -0.294 C  
HETATM   28  C   UNL     1     -10.656  15.579  65.637  1.00  0.00    -0.389 C  
HETATM   29  C   UNL     1      -9.776  14.404  66.166  1.00  0.00    -0.335 C  
HETATM   30  C   UNL     1      -9.126  15.494  67.146  1.00  0.00    -0.233 C  
HETATM   31  C   UNL     1      -8.559  15.014  68.485  1.00  0.00    -0.166 C  
HETATM   32  C   UNL     1      -8.067  16.442  66.540  1.00  0.00    -0.345 C  
ENDBRANCH  23  24
ENDBRANCH  22  23
ENDBRANCH  21  22
ENDBRANCH  20  21
ENDBRANCH  19  20
ENDBRANCH  13  19
ENDBRANCH  12  13
ENDBRANCH   7  12
ENDBRANCH   2   3
TORSDOF 10
ENDMDL
MODEL      169
REMARK 921   NORMALIZED FREE ENERGY PREDICTED BY IDOCK:   -4.05 KCAL/MOL
REMARK 922        TOTAL FREE ENERGY PREDICTED BY IDOCK:   -7.70 KCAL/MOL
REMARK 923 INTER-LIGAND FREE ENERGY PREDICTED BY IDOCK:   -6.30 KCAL/MOL
REMARK 924 INTRA-LIGAND FREE ENERGY PREDICTED BY IDOCK:   -1.39 KCAL/MOL
REMARK 927      BINDING AFFINITY PREDICTED BY RF-SCORE:    0.00 PKD
ROOT
HETATM    1  C   UNL     1      -7.826   9.975  64.560  1.00  0.00    -0.145 C  
HETATM    2  O   UNL     1      -9.169  10.111  64.117  1.00  0.00    -0.228 OA 
ENDROOT
BRANCH   2   3
HETATM    3  C   UNL     1     -10.077  10.676  64.968  1.00  0.00    -0.321 A  
HETATM    4  C   UNL     1     -10.956  11.739  64.720  1.00  0.00    -0.303 A  
HETATM    5  C   UNL     1     -10.023  10.129  66.256  1.00  0.00    -0.304 A  
HETATM    6  C   UNL     1     -11.738  12.236  65.771  1.00  0.00    -0.445 A  
HETATM    7  C   UNL     1     -11.583  11.787  67.102  1.00  0.00    -0.342 A  
HETATM    8 BR   UNL     1     -10.668   9.750  68.970  1.00  0.00    -0.230 Br 
HETATM    9  C   UNL     1     -10.779  10.656  67.304  1.00  0.00    -0.285 A  
BRANCH   4  10
HETATM   10  O   UNL     1     -11.051  12.254  63.459  1.00  0.00    -0.427 OA 
HETATM   11  C   UNL     1     -12.144  13.145  63.234  1.00  0.00    -0.386 C  
ENDBRANCH   4  10
BRANCH   7  12
HETATM   12  C   UNL     1     -12.157  12.618  68.239  1.00  0.00    -0.085 C  
BRANCH  12  13
HETATM   13  N   UNL     1     -11.228  13.816  68.711  1.00  0.00    -0.256 N  
HETATM   14  O   UNL     1     -11.353  16.540  69.880  1.00  0.00    -0.243 OA 
HETATM   15  C   UNL     1     -11.560  15.113  67.902  1.00  0.00    -0.311 C  
HETATM   16  C   UNL     1     -10.899  16.352  68.539  1.00  0.00    -0.339 C  
HETATM   17  C   UNL     1     -11.613  14.132  70.190  1.00  0.00    -0.224 C  
HETATM   18  C   UNL     1     -11.003  15.434  70.712  1.00  0.00    -0.311 C  
BRANCH  13  19
HETATM   19  C   UNL     1      -9.713  13.442  68.567  1.00  0.00    -0.156 C  
BRANCH  19  20
HETATM   20  C   UNL     1      -9.129  13.970  67.241  1.00  0.00    -0.220 C  
BRANCH  20  21
HETATM   21  O   UNL     1      -8.013  13.234  66.752  1.00  0.00     0.061 OA 
BRANCH  21  22
HETATM   22  C   UNL     1      -7.080  12.889  67.811  1.00  0.00    -0.137 C  
BRANCH  22  23
HETATM   23  C   UNL     1      -6.724  11.400  67.826  1.00  0.00    -0.070 C  
BRANCH  23  24
HETATM   24  C   UNL     1      -7.097  10.599  69.087  1.00  0.00    -0.095 C  
HETATM   25  C   UNL     1      -6.392  11.261  70.304  1.00  0.00    -0.073 C  
HETATM   26  C   UNL     1      -5.190  10.489  70.865  1.00  0.00    -0.087 C  
HETATM   27  C   UNL     1      -5.233   9.009  70.484  1.00  0.00    -0.020 C  
HETATM   28  C   UNL     1      -5.174   8.890  68.933  1.00  0.00    -0.037 C  
HETATM   29  C   UNL     1      -6.718   9.098  68.995  1.00  0.00    -0.055 C  
HETATM   30  C   UNL     1      -6.646   8.300  70.384  1.00  0.00    -0.036 C  
HETATM   31  C   UNL     1      -7.710   8.598  71.444  1.00  0.00    -0.150 C  
HETATM   32  C   UNL     1      -6.531   6.760  70.305  1.00  0.00    -0.043 C  
ENDBRANCH  23  24
ENDBRANCH  22  23
ENDBRANCH  21  22
ENDBRANCH  20  21
ENDBRANCH  19  20
ENDBRANCH  13  19
ENDBRANCH  12  13
ENDBRANCH   7  12
ENDBRANCH   2   3
TORSDOF 10
ENDMDL
MODEL      170
REMARK 921   NORMALIZED FREE ENERGY PREDICTED BY IDOCK:   -4.05 KCAL/MOL
REMARK 922        TOTAL FREE ENERGY PREDICTED BY IDOCK:   -7.69 KCAL/MOL
REMARK 923 INTER-LIGAND FREE ENERGY PREDICTED BY IDOCK:   -6.61 KCAL/MOL
REMARK 924 INTRA-LIGAND FREE ENERGY PREDICTED BY IDOCK:   -1.09 KCAL/MOL
REMARK 927      BINDING AFFINITY PREDICTED BY RF-SCORE:    0.00 PKD
ROOT
HETATM    1  C   UNL     1     -11.505   9.318  71.407  1.00  0.00    -0.369 C  
HETATM    2  O   UNL     1     -10.250   8.966  71.972  1.00  0.00    -0.334 OA 
ENDROOT
BRANCH   2   3
HETATM    3  C   UNL     1      -9.381   8.232  71.214  1.00  0.00    -0.173 A  
HETATM    4  C   UNL     1      -8.211   8.661  70.573  1.00  0.00    -0.123 A  
HETATM    5  C   UNL     1      -9.808   6.911  71.032  1.00  0.00    -0.185 A  
HETATM    6  C   UNL     1      -7.515   7.762  69.753  1.00  0.00    -0.089 A  
HETATM    7  C   UNL     1      -8.017   6.477  69.450  1.00  0.00    -0.114 A  
HETATM    8 BR   UNL     1      -9.774   4.251  70.110  1.00  0.00    -0.269 Br 
HETATM    9  C   UNL     1      -9.127   6.036  70.184  1.00  0.00    -0.147 A  
BRANCH   4  10
HETATM   10  O   UNL     1      -7.760   9.933  70.776  1.00  0.00    -0.293 OA 
HETATM   11  C   UNL     1      -6.432  10.200  70.322  1.00  0.00    -0.128 C  
ENDBRANCH   4  10
BRANCH   7  12
HETATM   12  C   UNL     1      -7.439   5.712  68.269  1.00  0.00    -0.077 C  
BRANCH  12  13
HETATM   13  N   UNL     1      -8.285   5.833  66.930  1.00  0.00    -0.102 N  
HETATM   14  O   UNL     1      -8.475   4.720  64.187  1.00  0.00    -0.124 OA 
HETATM   15  C   UNL     1      -7.361   6.250  65.740  1.00  0.00    -0.080 C  
HETATM   16  C   UNL     1      -8.083   6.079  64.388  1.00  0.00    -0.119 C  
HETATM   17  C   UNL     1      -8.794   4.399  66.587  1.00  0.00    -0.114 C  
HETATM   18  C   UNL     1      -9.399   4.289  65.186  1.00  0.00    -0.165 C  
BRANCH  13  19
HETATM   19  C   UNL     1      -9.466   6.849  67.103  1.00  0.00    -0.140 C  
BRANCH  19  20
HETATM   20  C   UNL     1      -9.090   8.242  66.557  1.00  0.00    -0.178 C  
BRANCH  20  21
HETATM   21  O   UNL     1     -10.135   8.900  65.848  1.00  0.00    -0.194 OA 
BRANCH  21  22
HETATM   22  C   UNL     1      -9.624   9.906  64.932  1.00  0.00    -0.288 C  
BRANCH  22  23
HETATM   23  C   UNL     1     -10.504  11.157  64.874  1.00  0.00    -0.372 C  
BRANCH  23  24
HETATM   24  C   UNL     1     -10.161  12.306  65.840  1.00  0.00    -0.274 C  
HETATM   25  C   UNL     1      -8.864  11.920  66.605  1.00  0.00    -0.191 C  
HETATM   26  C   UNL     1      -9.064  11.510  68.071  1.00  0.00    -0.174 C  
HETATM   27  C   UNL     1     -10.376  12.050  68.641  1.00  0.00    -0.211 C  
HETATM   28  C   UNL     1     -11.560  11.449  67.828  1.00  0.00    -0.325 C  
HETATM   29  C   UNL     1     -11.301  12.628  66.840  1.00  0.00    -0.373 C  
HETATM   30  C   UNL     1     -10.885  13.466  68.142  1.00  0.00    -0.273 C  
HETATM   31  C   UNL     1      -9.878  14.607  67.975  1.00  0.00    -0.216 C  
HETATM   32  C   UNL     1     -12.032  14.023  69.016  1.00  0.00    -0.392 C  
ENDBRANCH  23  24
ENDBRANCH  22  23
ENDBRANCH  21  22
ENDBRANCH  20  21
ENDBRANCH  19  20
ENDBRANCH  13  19
ENDBRANCH  12  13
ENDBRANCH   7  12
ENDBRANCH   2   3
TORSDOF 10
ENDMDL
MODEL      171
REMARK 921   NORMALIZED FREE ENERGY PREDICTED BY IDOCK:   -4.00 KCAL/MOL
REMARK 922        TOTAL FREE ENERGY PREDICTED BY IDOCK:   -7.61 KCAL/MOL
REMARK 923 INTER-LIGAND FREE ENERGY PREDICTED BY IDOCK:   -6.99 KCAL/MOL
REMARK 924 INTRA-LIGAND FREE ENERGY PREDICTED BY IDOCK:   -0.62 KCAL/MOL
REMARK 927      BINDING AFFINITY PREDICTED BY RF-SCORE:    0.00 PKD
ROOT
HETATM    1  C   UNL     1     -13.524  15.226  71.348  1.00  0.00    -0.505 C  
HETATM    2  O   UNL     1     -12.378  14.388  71.307  1.00  0.00    -0.324 OA 
ENDROOT
BRANCH   2   3
HETATM    3  C   UNL     1     -12.282  13.471  70.298  1.00  0.00    -0.347 A  
HETATM    4  C   UNL     1     -12.315  12.073  70.390  1.00  0.00    -0.233 A  
HETATM    5  C   UNL     1     -12.048  14.062  69.051  1.00  0.00    -0.358 A  
HETATM    6  C   UNL     1     -12.094  11.309  69.236  1.00  0.00    -0.372 A  
HETATM    7  C   UNL     1     -11.714  11.895  68.007  1.00  0.00    -0.382 A  
HETATM    8 BR   UNL     1     -11.586  14.235  66.279  1.00  0.00    -0.394 Br 
HETATM    9  C   UNL     1     -11.792  13.292  67.915  1.00  0.00    -0.349 A  
BRANCH   4  10
HETATM   10  O   UNL     1     -12.584  11.483  71.592  1.00  0.00    -0.291 OA 
HETATM   11  C   UNL     1     -13.035  10.129  71.530  1.00  0.00    -0.444 C  
ENDBRANCH   4  10
BRANCH   7  12
HETATM   12  C   UNL     1     -11.112  11.019  66.920  1.00  0.00    -0.213 C  
BRANCH  12  13
HETATM   13  N   UNL     1      -9.580  10.660  67.139  1.00  0.00    -0.163 N  
HETATM   14  O   UNL     1      -6.852  11.762  66.761  1.00  0.00    -0.127 OA 
HETATM   15  C   UNL     1      -8.816  10.685  65.775  1.00  0.00    -0.184 C  
HETATM   16  C   UNL     1      -7.290  10.643  65.990  1.00  0.00    -0.132 C  
HETATM   17  C   UNL     1      -8.963  11.812  67.989  1.00  0.00    -0.176 C  
HETATM   18  C   UNL     1      -7.436  11.761  68.064  1.00  0.00    -0.101 C  
BRANCH  13  19
HETATM   19  C   UNL     1      -9.425   9.266  67.839  1.00  0.00    -0.137 C  
BRANCH  19  20
HETATM   20  C   UNL     1     -10.204   8.170  67.084  1.00  0.00    -0.296 C  
BRANCH  20  21
HETATM   21  O   UNL     1      -9.590   6.885  67.109  1.00  0.00    -0.135 OA 
BRANCH  21  22
HETATM   22  C   UNL     1     -10.518   5.843  67.514  1.00  0.00    -0.243 C  
BRANCH  22  23
HETATM   23  C   UNL     1     -10.238   4.502  66.832  1.00  0.00    -0.148 C  
BRANCH  23  24
HETATM   24  C   UNL     1      -9.580   4.541  65.441  1.00  0.00    -0.185 C  
HETATM   25  C   UNL     1     -10.686   4.282  64.379  1.00  0.00    -0.073 C  
HETATM   26  C   UNL     1     -10.653   2.894  63.724  1.00  0.00    -0.164 C  
HETATM   27  C   UNL     1      -9.276   2.240  63.839  1.00  0.00    -0.109 C  
HETATM   28  C   UNL     1      -8.937   2.047  65.345  1.00  0.00    -0.120 C  
HETATM   29  C   UNL     1      -8.426   3.520  65.278  1.00  0.00    -0.106 C  
HETATM   30  C   UNL     1      -7.995   3.172  63.773  1.00  0.00    -0.081 C  
HETATM   31  C   UNL     1      -7.951   4.312  62.753  1.00  0.00    -0.068 C  
HETATM   32  C   UNL     1      -6.689   2.367  63.583  1.00  0.00    -0.031 C  
ENDBRANCH  23  24
ENDBRANCH  22  23
ENDBRANCH  21  22
ENDBRANCH  20  21
ENDBRANCH  19  20
ENDBRANCH  13  19
ENDBRANCH  12  13
ENDBRANCH   7  12
ENDBRANCH   2   3
TORSDOF 10
ENDMDL
MODEL      172
REMARK 921   NORMALIZED FREE ENERGY PREDICTED BY IDOCK:   -3.98 KCAL/MOL
REMARK 922        TOTAL FREE ENERGY PREDICTED BY IDOCK:   -7.59 KCAL/MOL
REMARK 923 INTER-LIGAND FREE ENERGY PREDICTED BY IDOCK:   -6.37 KCAL/MOL
REMARK 924 INTRA-LIGAND FREE ENERGY PREDICTED BY IDOCK:   -1.22 KCAL/MOL
REMARK 927      BINDING AFFINITY PREDICTED BY RF-SCORE:    0.00 PKD
ROOT
HETATM    1  C   UNL     1     -11.493  14.201  69.897  1.00  0.00    -0.226 C  
HETATM    2  O   UNL     1     -11.579  13.155  68.941  1.00  0.00    -0.268 OA 
ENDROOT
BRANCH   2   3
HETATM    3  C   UNL     1     -11.324  11.877  69.354  1.00  0.00    -0.261 A  
HETATM    4  C   UNL     1     -10.324  11.004  68.907  1.00  0.00    -0.205 A  
HETATM    5  C   UNL     1     -12.259  11.415  70.287  1.00  0.00    -0.433 A  
HETATM    6  C   UNL     1     -10.301   9.689  69.392  1.00  0.00    -0.226 A  
HETATM    7  C   UNL     1     -11.324   9.175  70.220  1.00  0.00    -0.217 A  
HETATM    8 BR   UNL     1     -13.523   9.641  72.071  1.00  0.00    -0.495 Br 
HETATM    9  C   UNL     1     -12.250  10.093  70.736  1.00  0.00    -0.338 A  
BRANCH   4  10
HETATM   10  O   UNL     1      -9.380  11.453  68.029  1.00  0.00    -0.159 OA 
HETATM   11  C   UNL     1      -8.044  11.011  68.275  1.00  0.00    -0.128 C  
ENDBRANCH   4  10
BRANCH   7  12
HETATM   12  C   UNL     1     -11.460   7.669  70.387  1.00  0.00    -0.174 C  
BRANCH  12  13
HETATM   13  N   UNL     1     -10.495   7.040  71.480  1.00  0.00    -0.204 N  
HETATM   14  O   UNL     1     -10.223   6.670  74.411  1.00  0.00    -0.360 OA 
HETATM   15  C   UNL     1     -10.002   8.145  72.471  1.00  0.00    -0.302 C  
HETATM   16  C   UNL     1      -9.321   7.523  73.706  1.00  0.00    -0.279 C  
HETATM   17  C   UNL     1     -11.358   6.061  72.336  1.00  0.00    -0.301 C  
HETATM   18  C   UNL     1     -10.650   5.574  73.601  1.00  0.00    -0.282 C  
BRANCH  13  19
HETATM   19  C   UNL     1      -9.281   6.314  70.806  1.00  0.00    -0.154 C  
BRANCH  19  20
HETATM   20  C   UNL     1      -9.744   5.403  69.650  1.00  0.00    -0.177 C  
BRANCH  20  21
HETATM   21  O   UNL     1      -8.817   4.382  69.294  1.00  0.00    -0.084 OA 
BRANCH  21  22
HETATM   22  C   UNL     1      -9.328   3.525  68.237  1.00  0.00    -0.177 C  
BRANCH  22  23
HETATM   23  C   UNL     1      -9.860   4.315  67.039  1.00  0.00    -0.216 C  
BRANCH  23  24
HETATM   24  C   UNL     1      -8.832   4.792  65.996  1.00  0.00    -0.123 C  
HETATM   25  C   UNL     1      -7.417   4.682  66.630  1.00  0.00    -0.086 C  
HETATM   26  C   UNL     1      -6.773   6.016  67.033  1.00  0.00    -0.058 C  
HETATM   27  C   UNL     1      -7.385   7.196  66.278  1.00  0.00    -0.076 C  
HETATM   28  C   UNL     1      -8.898   7.289  66.634  1.00  0.00    -0.151 C  
HETATM   29  C   UNL     1      -9.089   6.237  65.497  1.00  0.00     0.084 C  
HETATM   30  C   UNL     1      -7.854   6.969  64.781  1.00  0.00    -0.126 C  
HETATM   31  C   UNL     1      -6.974   6.144  63.839  1.00  0.00    -0.043 C  
HETATM   32  C   UNL     1      -8.153   8.296  64.047  1.00  0.00    -0.128 C  
ENDBRANCH  23  24
ENDBRANCH  22  23
ENDBRANCH  21  22
ENDBRANCH  20  21
ENDBRANCH  19  20
ENDBRANCH  13  19
ENDBRANCH  12  13
ENDBRANCH   7  12
ENDBRANCH   2   3
TORSDOF 10
ENDMDL
MODEL      173
REMARK 921   NORMALIZED FREE ENERGY PREDICTED BY IDOCK:   -3.98 KCAL/MOL
REMARK 922        TOTAL FREE ENERGY PREDICTED BY IDOCK:   -7.58 KCAL/MOL
REMARK 923 INTER-LIGAND FREE ENERGY PREDICTED BY IDOCK:   -7.04 KCAL/MOL
REMARK 924 INTRA-LIGAND FREE ENERGY PREDICTED BY IDOCK:   -0.54 KCAL/MOL
REMARK 927      BINDING AFFINITY PREDICTED BY RF-SCORE:    0.00 PKD
ROOT
HETATM    1  C   UNL     1      -8.164   7.563  62.892  1.00  0.00    -0.004 C  
HETATM    2  O   UNL     1      -7.560   8.657  63.566  1.00  0.00    -0.112 OA 
ENDROOT
BRANCH   2   3
HETATM    3  C   UNL     1      -8.320   9.374  64.448  1.00  0.00    -0.167 A  
HETATM    4  C   UNL     1      -8.607   9.077  65.787  1.00  0.00    -0.160 A  
HETATM    5  C   UNL     1      -8.918  10.493  63.859  1.00  0.00    -0.232 A  
HETATM    6  C   UNL     1      -9.500   9.898  66.490  1.00  0.00    -0.230 A  
HETATM    7  C   UNL     1     -10.217  10.941  65.862  1.00  0.00    -0.314 A  
HETATM    8 BR   UNL     1     -10.491  12.820  63.655  1.00  0.00    -0.064 Br 
HETATM    9  C   UNL     1      -9.834  11.282  64.557  1.00  0.00    -0.270 A  
BRANCH   4  10
HETATM   10  O   UNL     1      -7.998   8.013  66.388  1.00  0.00    -0.097 OA 
HETATM   11  C   UNL     1      -8.792   6.833  66.510  1.00  0.00    -0.143 C  
ENDBRANCH   4  10
BRANCH   7  12
HETATM   12  C   UNL     1     -11.438  11.526  66.555  1.00  0.00    -0.102 C  
BRANCH  12  13
HETATM   13  N   UNL     1     -11.167  12.056  68.027  1.00  0.00    -0.238 N  
HETATM   14  O   UNL     1     -12.489  12.396  70.661  1.00  0.00    -0.315 OA 
HETATM   15  C   UNL     1     -12.156  13.215  68.378  1.00  0.00    -0.181 C  
HETATM   16  C   UNL     1     -12.123  13.538  69.886  1.00  0.00    -0.341 C  
HETATM   17  C   UNL     1     -11.521  10.889  69.000  1.00  0.00    -0.302 C  
HETATM   18  C   UNL     1     -11.573  11.317  70.468  1.00  0.00    -0.133 C  
BRANCH  13  19
HETATM   19  C   UNL     1      -9.680  12.524  68.190  1.00  0.00    -0.222 C  
BRANCH  19  20
HETATM   20  C   UNL     1      -9.430  13.861  67.461  1.00  0.00    -0.216 C  
BRANCH  20  21
HETATM   21  O   UNL     1      -9.351  14.995  68.317  1.00  0.00    -0.183 OA 
BRANCH  21  22
HETATM   22  C   UNL     1     -10.151  16.105  67.829  1.00  0.00    -0.250 C  
BRANCH  22  23
HETATM   23  C   UNL     1      -9.796  17.434  68.501  1.00  0.00    -0.320 C  
BRANCH  23  24
HETATM   24  C   UNL     1      -9.035  18.471  67.656  1.00  0.00    -0.283 C  
HETATM   25  C   UNL     1      -8.527  17.763  66.368  1.00  0.00    -0.270 C  
HETATM   26  C   UNL     1      -7.020  17.472  66.331  1.00  0.00    -0.315 C  
HETATM   27  C   UNL     1      -6.240  18.375  67.287  1.00  0.00    -0.180 C  
HETATM   28  C   UNL     1      -6.726  18.103  68.741  1.00  0.00    -0.248 C  
HETATM   29  C   UNL     1      -7.852  19.131  68.410  1.00  0.00    -0.370 C  
HETATM   30  C   UNL     1      -6.751  19.860  67.502  1.00  0.00    -0.254 C  
HETATM   31  C   UNL     1      -7.231  20.668  66.294  1.00  0.00    -0.166 C  
HETATM   32  C   UNL     1      -5.711  20.743  68.230  1.00  0.00    -0.361 C  
ENDBRANCH  23  24
ENDBRANCH  22  23
ENDBRANCH  21  22
ENDBRANCH  20  21
ENDBRANCH  19  20
ENDBRANCH  13  19
ENDBRANCH  12  13
ENDBRANCH   7  12
ENDBRANCH   2   3
TORSDOF 10
ENDMDL
MODEL      174
REMARK 921   NORMALIZED FREE ENERGY PREDICTED BY IDOCK:   -3.98 KCAL/MOL
REMARK 922        TOTAL FREE ENERGY PREDICTED BY IDOCK:   -7.57 KCAL/MOL
REMARK 923 INTER-LIGAND FREE ENERGY PREDICTED BY IDOCK:   -6.29 KCAL/MOL
REMARK 924 INTRA-LIGAND FREE ENERGY PREDICTED BY IDOCK:   -1.28 KCAL/MOL
REMARK 927      BINDING AFFINITY PREDICTED BY RF-SCORE:    0.00 PKD
ROOT
HETATM    1  C   UNL     1      -6.378   8.565  73.836  1.00  0.00    -0.114 C  
HETATM    2  O   UNL     1      -5.669   8.922  72.658  1.00  0.00    -0.076 OA 
ENDROOT
BRANCH   2   3
HETATM    3  C   UNL     1      -6.181   8.536  71.451  1.00  0.00    -0.048 A  
HETATM    4  C   UNL     1      -5.989   7.323  70.775  1.00  0.00    -0.031 A  
HETATM    5  C   UNL     1      -6.920   9.549  70.830  1.00  0.00    -0.108 A  
HETATM    6  C   UNL     1      -6.525   7.169  69.489  1.00  0.00    -0.040 A  
HETATM    7  C   UNL     1      -7.145   8.235  68.799  1.00  0.00    -0.071 A  
HETATM    8 BR   UNL     1      -8.478  10.823  68.861  1.00  0.00    -0.132 Br 
HETATM    9  C   UNL     1      -7.418   9.398  69.534  1.00  0.00    -0.083 A  
BRANCH   4  10
HETATM   10  O   UNL     1      -5.307   6.311  71.386  1.00  0.00    -0.021 OA 
HETATM   11  C   UNL     1      -6.092   5.188  71.788  1.00  0.00    -0.029 C  
ENDBRANCH   4  10
BRANCH   7  12
HETATM   12  C   UNL     1      -7.346   8.131  67.295  1.00  0.00    -0.089 C  
BRANCH  12  13
HETATM   13  N   UNL     1      -8.772   7.586  66.858  1.00  0.00    -0.126 N  
HETATM   14  O   UNL     1     -10.598   5.278  67.234  1.00  0.00    -0.209 OA 
HETATM   15  C   UNL     1      -8.627   6.213  66.124  1.00  0.00    -0.141 C  
HETATM   16  C   UNL     1      -9.995   5.520  65.963  1.00  0.00    -0.035 C  
HETATM   17  C   UNL     1      -9.561   7.282  68.170  1.00  0.00    -0.140 C  
HETATM   18  C   UNL     1     -10.852   6.497  67.933  1.00  0.00    -0.304 C  
BRANCH  13  19
HETATM   19  C   UNL     1      -9.518   8.626  65.954  1.00  0.00    -0.173 C  
BRANCH  19  20
HETATM   20  C   UNL     1      -8.610   9.127  64.811  1.00  0.00    -0.184 C  
BRANCH  20  21
HETATM   21  O   UNL     1      -9.307   9.532  63.637  1.00  0.00    -0.138 OA 
BRANCH  21  22
HETATM   22  C   UNL     1      -9.287  10.974  63.460  1.00  0.00    -0.260 C  
BRANCH  22  23
HETATM   23  C   UNL     1     -10.669  11.611  63.625  1.00  0.00    -0.500 C  
BRANCH  23  24
HETATM   24  C   UNL     1     -11.133  11.929  65.058  1.00  0.00    -0.360 C  
HETATM   25  C   UNL     1     -12.588  12.471  64.983  1.00  0.00    -0.424 C  
HETATM   26  C   UNL     1     -12.737  13.982  65.212  1.00  0.00    -0.468 C  
HETATM   27  C   UNL     1     -11.545  14.565  65.972  1.00  0.00    -0.356 C  
HETATM   28  C   UNL     1     -10.258  14.353  65.123  1.00  0.00    -0.420 C  
HETATM   29  C   UNL     1     -10.216  12.943  65.790  1.00  0.00    -0.298 C  
HETATM   30  C   UNL     1     -10.845  13.667  67.075  1.00  0.00    -0.291 C  
HETATM   31  C   UNL     1     -11.713  12.832  68.021  1.00  0.00    -0.405 C  
HETATM   32  C   UNL     1      -9.879  14.476  67.970  1.00  0.00    -0.222 C  
ENDBRANCH  23  24
ENDBRANCH  22  23
ENDBRANCH  21  22
ENDBRANCH  20  21
ENDBRANCH  19  20
ENDBRANCH  13  19
ENDBRANCH  12  13
ENDBRANCH   7  12
ENDBRANCH   2   3
TORSDOF 10
ENDMDL
MODEL      175
REMARK 921   NORMALIZED FREE ENERGY PREDICTED BY IDOCK:   -3.97 KCAL/MOL
REMARK 922        TOTAL FREE ENERGY PREDICTED BY IDOCK:   -7.56 KCAL/MOL
REMARK 923 INTER-LIGAND FREE ENERGY PREDICTED BY IDOCK:   -7.39 KCAL/MOL
REMARK 924 INTRA-LIGAND FREE ENERGY PREDICTED BY IDOCK:   -0.17 KCAL/MOL
REMARK 927      BINDING AFFINITY PREDICTED BY RF-SCORE:    0.00 PKD
ROOT
HETATM    1  C   UNL     1     -14.402  15.158  72.009  1.00  0.00    -0.586 C  
HETATM    2  O   UNL     1     -13.031  14.827  72.177  1.00  0.00    -0.307 OA 
ENDROOT
BRANCH   2   3
HETATM    3  C   UNL     1     -12.461  13.958  71.289  1.00  0.00    -0.359 A  
HETATM    4  C   UNL     1     -11.830  14.249  70.072  1.00  0.00    -0.314 A  
HETATM    5  C   UNL     1     -12.627  12.619  71.663  1.00  0.00    -0.186 A  
HETATM    6  C   UNL     1     -11.402  13.192  69.257  1.00  0.00    -0.312 A  
HETATM    7  C   UNL     1     -11.695  11.843  69.558  1.00  0.00    -0.410 A  
HETATM    8 BR   UNL     1     -12.435   9.814  71.511  1.00  0.00    -0.527 Br 
HETATM    9  C   UNL     1     -12.230  11.574  70.826  1.00  0.00    -0.363 A  
BRANCH   4  10
HETATM   10  O   UNL     1     -11.624  15.550  69.714  1.00  0.00    -0.285 OA 
HETATM   11  C   UNL     1     -11.286  15.770  68.344  1.00  0.00    -0.372 C  
ENDBRANCH   4  10
BRANCH   7  12
HETATM   12  C   UNL     1     -11.561  10.791  68.468  1.00  0.00    -0.255 C  
BRANCH  12  13
HETATM   13  N   UNL     1     -10.069  10.521  67.995  1.00  0.00    -0.161 N  
HETATM   14  O   UNL     1      -7.775  11.840  66.654  1.00  0.00    -0.119 OA 
HETATM   15  C   UNL     1      -9.944  10.724  66.449  1.00  0.00    -0.216 C  
HETATM   16  C   UNL     1      -8.467  10.769  66.011  1.00  0.00    -0.169 C  
HETATM   17  C   UNL     1      -9.182  11.630  68.640  1.00  0.00    -0.108 C  
HETATM   18  C   UNL     1      -7.762  11.678  68.073  1.00  0.00    -0.121 C  
BRANCH  13  19
HETATM   19  C   UNL     1      -9.602   9.083  68.408  1.00  0.00    -0.152 C  
BRANCH  19  20
HETATM   20  C   UNL     1     -10.778   8.246  68.953  1.00  0.00    -0.062 C  
BRANCH  20  21
HETATM   21  O   UNL     1     -10.962   6.993  68.304  1.00  0.00    -0.169 OA 
BRANCH  21  22
HETATM   22  C   UNL     1     -10.706   5.873  69.195  1.00  0.00    -0.324 C  
BRANCH  22  23
HETATM   23  C   UNL     1     -10.915   6.229  70.669  1.00  0.00    -0.370 C  
BRANCH  23  24
HETATM   24  C   UNL     1      -9.724   6.018  71.622  1.00  0.00    -0.180 C  
HETATM   25  C   UNL     1      -8.419   6.071  70.778  1.00  0.00    -0.130 C  
HETATM   26  C   UNL     1      -7.735   4.717  70.544  1.00  0.00    -0.058 C  
HETATM   27  C   UNL     1      -8.148   3.679  71.588  1.00  0.00    -0.066 C  
HETATM   28  C   UNL     1      -9.683   3.445  71.480  1.00  0.00    -0.233 C  
HETATM   29  C   UNL     1      -9.800   4.688  72.415  1.00  0.00    -0.215 C  
HETATM   30  C   UNL     1      -8.429   4.173  73.068  1.00  0.00    -0.093 C  
HETATM   31  C   UNL     1      -7.497   5.210  73.700  1.00  0.00    -0.091 C  
HETATM   32  C   UNL     1      -8.525   3.003  74.073  1.00  0.00    -0.073 C  
ENDBRANCH  23  24
ENDBRANCH  22  23
ENDBRANCH  21  22
ENDBRANCH  20  21
ENDBRANCH  19  20
ENDBRANCH  13  19
ENDBRANCH  12  13
ENDBRANCH   7  12
ENDBRANCH   2   3
TORSDOF 10
ENDMDL
MODEL      176
REMARK 921   NORMALIZED FREE ENERGY PREDICTED BY IDOCK:   -3.96 KCAL/MOL
REMARK 922        TOTAL FREE ENERGY PREDICTED BY IDOCK:   -7.55 KCAL/MOL
REMARK 923 INTER-LIGAND FREE ENERGY PREDICTED BY IDOCK:   -6.19 KCAL/MOL
REMARK 924 INTRA-LIGAND FREE ENERGY PREDICTED BY IDOCK:   -1.36 KCAL/MOL
REMARK 927      BINDING AFFINITY PREDICTED BY RF-SCORE:    0.00 PKD
ROOT
HETATM    1  C   UNL     1      -6.343   8.465  63.019  1.00  0.00    -0.086 C  
HETATM    2  O   UNL     1      -6.284   9.550  63.934  1.00  0.00    -0.090 OA 
ENDROOT
BRANCH   2   3
HETATM    3  C   UNL     1      -7.140   9.544  65.000  1.00  0.00    -0.109 A  
HETATM    4  C   UNL     1      -8.313  10.291  65.176  1.00  0.00    -0.161 A  
HETATM    5  C   UNL     1      -6.694   8.727  66.045  1.00  0.00    -0.068 A  
HETATM    6  C   UNL     1      -8.994  10.212  66.399  1.00  0.00    -0.163 A  
HETATM    7  C   UNL     1      -8.473   9.505  67.505  1.00  0.00    -0.126 A  
HETATM    8 BR   UNL     1      -6.689   7.460  68.560  1.00  0.00    -0.055 Br 
HETATM    9  C   UNL     1      -7.360   8.685  67.272  1.00  0.00    -0.088 A  
BRANCH   4  10
HETATM   10  O   UNL     1      -8.783  11.060  64.150  1.00  0.00    -0.062 OA 
HETATM   11  C   UNL     1      -9.465  10.357  63.111  1.00  0.00    -0.327 C  
ENDBRANCH   4  10
BRANCH   7  12
HETATM   12  C   UNL     1      -9.036   9.775  68.893  1.00  0.00    -0.144 C  
BRANCH  12  13
HETATM   13  N   UNL     1     -10.135   8.734  69.370  1.00  0.00    -0.197 N  
HETATM   14  O   UNL     1     -10.516   5.848  69.947  1.00  0.00    -0.218 OA 
HETATM   15  C   UNL     1     -10.351   7.633  68.280  1.00  0.00    -0.198 C  
HETATM   16  C   UNL     1     -11.175   6.454  68.834  1.00  0.00    -0.307 C  
HETATM   17  C   UNL     1      -9.546   7.990  70.609  1.00  0.00    -0.166 C  
HETATM   18  C   UNL     1     -10.364   6.768  71.029  1.00  0.00    -0.206 C  
BRANCH  13  19
HETATM   19  C   UNL     1     -11.484   9.457  69.707  1.00  0.00     0.039 C  
BRANCH  19  20
HETATM   20  C   UNL     1     -11.570  10.833  69.015  1.00  0.00    -0.299 C  
BRANCH  20  21
HETATM   21  O   UNL     1     -11.451  11.945  69.895  1.00  0.00    -0.265 OA 
BRANCH  21  22
HETATM   22  C   UNL     1     -11.892  13.183  69.274  1.00  0.00    -0.323 C  
BRANCH  22  23
HETATM   23  C   UNL     1     -12.199  13.022  67.783  1.00  0.00    -0.079 C  
BRANCH  23  24
HETATM   24  C   UNL     1     -12.008  14.258  66.886  1.00  0.00    -0.467 C  
HETATM   25  C   UNL     1     -12.463  13.882  65.447  1.00  0.00    -0.528 C  
HETATM   26  C   UNL     1     -11.329  13.681  64.433  1.00  0.00    -0.394 C  
HETATM   27  C   UNL     1     -10.041  14.381  64.868  1.00  0.00    -0.253 C  
HETATM   28  C   UNL     1      -9.568  13.766  66.217  1.00  0.00    -0.265 C  
HETATM   29  C   UNL     1     -10.551  14.787  66.870  1.00  0.00    -0.294 C  
HETATM   30  C   UNL     1     -10.161  15.754  65.652  1.00  0.00    -0.407 C  
HETATM   31  C   UNL     1     -11.192  16.789  65.194  1.00  0.00     0.076 C  
HETATM   32  C   UNL     1      -8.810  16.499  65.750  1.00  0.00     0.034 C  
ENDBRANCH  23  24
ENDBRANCH  22  23
ENDBRANCH  21  22
ENDBRANCH  20  21
ENDBRANCH  19  20
ENDBRANCH  13  19
ENDBRANCH  12  13
ENDBRANCH   7  12
ENDBRANCH   2   3
TORSDOF 10
ENDMDL
MODEL      177
REMARK 921   NORMALIZED FREE ENERGY PREDICTED BY IDOCK:   -3.95 KCAL/MOL
REMARK 922        TOTAL FREE ENERGY PREDICTED BY IDOCK:   -7.54 KCAL/MOL
REMARK 923 INTER-LIGAND FREE ENERGY PREDICTED BY IDOCK:   -6.91 KCAL/MOL
REMARK 924 INTRA-LIGAND FREE ENERGY PREDICTED BY IDOCK:   -0.63 KCAL/MOL
REMARK 927      BINDING AFFINITY PREDICTED BY RF-SCORE:    0.00 PKD
ROOT
HETATM    1  C   UNL     1      -8.439  16.812  66.187  1.00  0.00    -0.263 C  
HETATM    2  O   UNL     1      -9.785  16.626  65.775  1.00  0.00    -0.485 OA 
ENDROOT
BRANCH   2   3
HETATM    3  C   UNL     1     -10.430  15.487  66.167  1.00  0.00    -0.313 A  
HETATM    4  C   UNL     1     -10.672  15.030  67.470  1.00  0.00    -0.284 A  
HETATM    5  C   UNL     1     -10.809  14.681  65.087  1.00  0.00    -0.414 A  
HETATM    6  C   UNL     1     -11.265  13.774  67.653  1.00  0.00    -0.316 A  
HETATM    7  C   UNL     1     -11.515  12.896  66.575  1.00  0.00    -0.390 A  
HETATM    8 BR   UNL     1     -11.912  12.480  63.720  1.00  0.00    -0.651 Br 
HETATM    9  C   UNL     1     -11.365  13.415  65.281  1.00  0.00    -0.296 A  
BRANCH   4  10
HETATM   10  O   UNL     1     -10.346  15.824  68.533  1.00  0.00    -0.220 OA 
HETATM   11  C   UNL     1      -9.357  15.298  69.419  1.00  0.00    -0.228 C  
ENDBRANCH   4  10
BRANCH   7  12
HETATM   12  C   UNL     1     -11.782  11.426  66.859  1.00  0.00     0.151 C  
BRANCH  12  13
HETATM   13  N   UNL     1     -10.482  10.515  66.888  1.00  0.00    -0.242 N  
HETATM   14  O   UNL     1      -7.854  10.164  65.555  1.00  0.00    -0.135 OA 
HETATM   15  C   UNL     1     -10.277   9.816  65.504  1.00  0.00    -0.044 C  
HETATM   16  C   UNL     1      -8.877   9.178  65.404  1.00  0.00    -0.196 C  
HETATM   17  C   UNL     1      -9.263  11.474  67.061  1.00  0.00    -0.176 C  
HETATM   18  C   UNL     1      -7.914  10.787  66.839  1.00  0.00    -0.133 C  
BRANCH  13  19
HETATM   19  C   UNL     1     -10.563   9.457  68.040  1.00  0.00    -0.226 C  
BRANCH  19  20
HETATM   20  C   UNL     1     -10.810  10.132  69.405  1.00  0.00    -0.241 C  
BRANCH  20  21
HETATM   21  O   UNL     1     -10.849   9.235  70.510  1.00  0.00    -0.228 OA 
BRANCH  21  22
HETATM   22  C   UNL     1      -9.525   8.759  70.875  1.00  0.00    -0.216 C  
BRANCH  22  23
HETATM   23  C   UNL     1      -9.467   7.240  71.047  1.00  0.00    -0.158 C  
BRANCH  23  24
HETATM   24  C   UNL     1      -9.912   6.377  69.852  1.00  0.00    -0.198 C  
HETATM   25  C   UNL     1     -10.409   5.011  70.404  1.00  0.00    -0.297 C  
HETATM   26  C   UNL     1      -9.461   3.826  70.172  1.00  0.00    -0.259 C  
HETATM   27  C   UNL     1      -8.491   4.087  69.019  1.00  0.00    -0.099 C  
HETATM   28  C   UNL     1      -7.610   5.320  69.375  1.00  0.00    -0.069 C  
HETATM   29  C   UNL     1      -8.793   6.159  68.801  1.00  0.00    -0.121 C  
HETATM   30  C   UNL     1      -9.005   4.938  67.784  1.00  0.00    -0.118 C  
HETATM   31  C   UNL     1     -10.413   4.689  67.238  1.00  0.00     0.061 C  
HETATM   32  C   UNL     1      -8.048   4.858  66.573  1.00  0.00    -0.107 C  
ENDBRANCH  23  24
ENDBRANCH  22  23
ENDBRANCH  21  22
ENDBRANCH  20  21
ENDBRANCH  19  20
ENDBRANCH  13  19
ENDBRANCH  12  13
ENDBRANCH   7  12
ENDBRANCH   2   3
TORSDOF 10
ENDMDL
MODEL      178
REMARK 921   NORMALIZED FREE ENERGY PREDICTED BY IDOCK:   -3.95 KCAL/MOL
REMARK 922        TOTAL FREE ENERGY PREDICTED BY IDOCK:   -7.53 KCAL/MOL
REMARK 923 INTER-LIGAND FREE ENERGY PREDICTED BY IDOCK:   -6.57 KCAL/MOL
REMARK 924 INTRA-LIGAND FREE ENERGY PREDICTED BY IDOCK:   -0.96 KCAL/MOL
REMARK 927      BINDING AFFINITY PREDICTED BY RF-SCORE:    0.00 PKD
ROOT
HETATM    1  C   UNL     1      -7.256   2.249  68.799  1.00  0.00    -0.044 C  
HETATM    2  O   UNL     1      -8.391   2.675  68.060  1.00  0.00    -0.071 OA 
ENDROOT
BRANCH   2   3
HETATM    3  C   UNL     1      -9.193   3.639  68.604  1.00  0.00    -0.160 A  
HETATM    4  C   UNL     1      -9.714   4.785  67.987  1.00  0.00    -0.147 A  
HETATM    5  C   UNL     1      -9.427   3.440  69.970  1.00  0.00    -0.243 A  
HETATM    6  C   UNL     1     -10.435   5.706  68.760  1.00  0.00    -0.289 A  
HETATM    7  C   UNL     1     -10.550   5.585  70.163  1.00  0.00    -0.367 A  
HETATM    8 BR   UNL     1     -10.433   3.928  72.554  1.00  0.00    -0.122 Br 
HETATM    9  C   UNL     1     -10.115   4.382  70.737  1.00  0.00    -0.129 A  
BRANCH   4  10
HETATM   10  O   UNL     1      -9.530   4.971  66.647  1.00  0.00    -0.130 OA 
HETATM   11  C   UNL     1     -10.651   4.662  65.819  1.00  0.00    -0.223 C  
ENDBRANCH   4  10
BRANCH   7  12
HETATM   12  C   UNL     1     -10.988   6.790  70.980  1.00  0.00    -0.255 C  
BRANCH  12  13
HETATM   13  N   UNL     1      -9.796   7.614  71.627  1.00  0.00    -0.161 N  
HETATM   14  O   UNL     1      -7.375   7.277  73.309  1.00  0.00    -0.072 OA 
HETATM   15  C   UNL     1      -9.812   7.462  73.184  1.00  0.00    -0.254 C  
HETATM   16  C   UNL     1      -8.506   7.991  73.809  1.00  0.00    -0.257 C  
HETATM   17  C   UNL     1      -8.471   6.942  71.152  1.00  0.00    -0.123 C  
HETATM   18  C   UNL     1      -7.233   7.444  71.898  1.00  0.00    -0.067 C  
BRANCH  13  19
HETATM   19  C   UNL     1      -9.868   9.124  71.214  1.00  0.00    -0.293 C  
BRANCH  19  20
HETATM   20  C   UNL     1     -10.438   9.289  69.790  1.00  0.00    -0.222 C  
BRANCH  20  21
HETATM   21  O   UNL     1      -9.479   9.134  68.748  1.00  0.00    -0.145 OA 
BRANCH  21  22
HETATM   22  C   UNL     1     -10.061   9.354  67.435  1.00  0.00    -0.215 C  
BRANCH  22  23
HETATM   23  C   UNL     1     -11.270  10.292  67.471  1.00  0.00    -0.192 C  
BRANCH  23  24
HETATM   24  C   UNL     1     -11.061  11.732  66.967  1.00  0.00    -0.358 C  
HETATM   25  C   UNL     1      -9.534  11.959  66.782  1.00  0.00    -0.207 C  
HETATM   26  C   UNL     1      -8.870  12.845  67.845  1.00  0.00    -0.190 C  
HETATM   27  C   UNL     1      -9.883  13.741  68.557  1.00  0.00    -0.204 C  
HETATM   28  C   UNL     1     -10.921  12.841  69.289  1.00  0.00    -0.126 C  
HETATM   29  C   UNL     1     -11.656  12.806  67.914  1.00  0.00    -0.400 C  
HETATM   30  C   UNL     1     -11.108  14.300  67.721  1.00  0.00    -0.294 C  
HETATM   31  C   UNL     1     -10.873  14.805  66.295  1.00  0.00    -0.322 C  
HETATM   32  C   UNL     1     -11.864  15.427  68.462  1.00  0.00    -0.293 C  
ENDBRANCH  23  24
ENDBRANCH  22  23
ENDBRANCH  21  22
ENDBRANCH  20  21
ENDBRANCH  19  20
ENDBRANCH  13  19
ENDBRANCH  12  13
ENDBRANCH   7  12
ENDBRANCH   2   3
TORSDOF 10
ENDMDL
MODEL      179
REMARK 921   NORMALIZED FREE ENERGY PREDICTED BY IDOCK:   -3.91 KCAL/MOL
REMARK 922        TOTAL FREE ENERGY PREDICTED BY IDOCK:   -7.48 KCAL/MOL
REMARK 923 INTER-LIGAND FREE ENERGY PREDICTED BY IDOCK:   -6.70 KCAL/MOL
REMARK 924 INTRA-LIGAND FREE ENERGY PREDICTED BY IDOCK:   -0.78 KCAL/MOL
REMARK 927      BINDING AFFINITY PREDICTED BY RF-SCORE:    0.00 PKD
ROOT
HETATM    1  C   UNL     1     -11.370   5.232  73.198  1.00  0.00    -0.291 C  
HETATM    2  O   UNL     1     -10.630   6.430  73.014  1.00  0.00    -0.216 OA 
ENDROOT
BRANCH   2   3
HETATM    3  C   UNL     1      -9.728   6.483  71.989  1.00  0.00    -0.149 A  
HETATM    4  C   UNL     1      -8.550   7.238  71.907  1.00  0.00    -0.114 A  
HETATM    5  C   UNL     1     -10.124   5.724  70.881  1.00  0.00    -0.256 A  
HETATM    6  C   UNL     1      -7.815   7.227  70.713  1.00  0.00    -0.094 A  
HETATM    7  C   UNL     1      -8.283   6.581  69.548  1.00  0.00    -0.126 A  
HETATM    8 BR   UNL     1     -10.013   4.596  68.304  1.00  0.00    -0.077 Br 
HETATM    9  C   UNL     1      -9.404   5.749  69.685  1.00  0.00    -0.139 A  
BRANCH   4  10
HETATM   10  O   UNL     1      -8.129   7.950  72.994  1.00  0.00    -0.121 OA 
HETATM   11  C   UNL     1      -7.343   7.227  73.941  1.00  0.00    -0.097 C  
ENDBRANCH   4  10
BRANCH   7  12
HETATM   12  C   UNL     1      -7.660   6.927  68.204  1.00  0.00    -0.108 C  
BRANCH  12  13
HETATM   13  N   UNL     1      -8.022   8.376  67.665  1.00  0.00    -0.109 N  
HETATM   14  O   UNL     1      -7.379  10.275  65.479  1.00  0.00    -0.140 OA 
HETATM   15  C   UNL     1      -6.742   9.274  67.619  1.00  0.00    -0.068 C  
HETATM   16  C   UNL     1      -6.999  10.569  66.824  1.00  0.00    -0.104 C  
HETATM   17  C   UNL     1      -8.471   8.206  66.180  1.00  0.00    -0.136 C  
HETATM   18  C   UNL     1      -8.598   9.533  65.429  1.00  0.00    -0.155 C  
BRANCH  13  19
HETATM   19  C   UNL     1      -9.137   9.039  68.543  1.00  0.00    -0.133 C  
BRANCH  19  20
HETATM   20  C   UNL     1     -10.546   8.682  68.024  1.00  0.00    -0.145 C  
BRANCH  20  21
HETATM   21  O   UNL     1     -11.435   9.789  67.921  1.00  0.00    -0.032 OA 
BRANCH  21  22
HETATM   22  C   UNL     1     -11.129  10.828  68.890  1.00  0.00    -0.253 C  
BRANCH  22  23
HETATM   23  C   UNL     1     -10.940  12.203  68.245  1.00  0.00    -0.273 C  
BRANCH  23  24
HETATM   24  C   UNL     1     -10.521  12.236  66.764  1.00  0.00    -0.242 C  
HETATM   25  C   UNL     1      -9.552  13.435  66.565  1.00  0.00    -0.277 C  
HETATM   26  C   UNL     1     -10.147  14.645  65.830  1.00  0.00    -0.341 C  
HETATM   27  C   UNL     1     -11.366  14.260  64.990  1.00  0.00    -0.365 C  
HETATM   28  C   UNL     1     -12.471  13.705  65.936  1.00  0.00    -0.502 C  
HETATM   29  C   UNL     1     -11.721  12.345  65.788  1.00  0.00    -0.470 C  
HETATM   30  C   UNL     1     -11.381  12.834  64.299  1.00  0.00    -0.416 C  
HETATM   31  C   UNL     1     -10.103  12.308  63.640  1.00  0.00    -0.369 C  
HETATM   32  C   UNL     1     -12.502  12.701  63.243  1.00  0.00    -0.377 C  
ENDBRANCH  23  24
ENDBRANCH  22  23
ENDBRANCH  21  22
ENDBRANCH  20  21
ENDBRANCH  19  20
ENDBRANCH  13  19
ENDBRANCH  12  13
ENDBRANCH   7  12
ENDBRANCH   2   3
TORSDOF 10
ENDMDL
MODEL      180
REMARK 921   NORMALIZED FREE ENERGY PREDICTED BY IDOCK:   -3.91 KCAL/MOL
REMARK 922        TOTAL FREE ENERGY PREDICTED BY IDOCK:   -7.47 KCAL/MOL
REMARK 923 INTER-LIGAND FREE ENERGY PREDICTED BY IDOCK:   -7.01 KCAL/MOL
REMARK 924 INTRA-LIGAND FREE ENERGY PREDICTED BY IDOCK:   -0.46 KCAL/MOL
REMARK 927      BINDING AFFINITY PREDICTED BY RF-SCORE:    0.00 PKD
ROOT
HETATM    1  C   UNL     1     -12.374  13.218  63.094  1.00  0.00    -0.079 C  
HETATM    2  O   UNL     1     -12.320  11.983  63.793  1.00  0.00    -0.484 OA 
ENDROOT
BRANCH   2   3
HETATM    3  C   UNL     1     -11.464  11.876  64.854  1.00  0.00    -0.253 A  
HETATM    4  C   UNL     1     -10.337  11.054  64.980  1.00  0.00    -0.295 A  
HETATM    5  C   UNL     1     -11.860  12.656  65.946  1.00  0.00    -0.499 A  
HETATM    6  C   UNL     1      -9.651  11.021  66.203  1.00  0.00    -0.240 A  
HETATM    7  C   UNL     1     -10.128  11.692  67.351  1.00  0.00    -0.218 A  
HETATM    8 BR   UNL     1     -11.788  13.774  68.530  1.00  0.00    -0.409 Br 
HETATM    9  C   UNL     1     -11.192  12.588  67.171  1.00  0.00    -0.300 A  
BRANCH   4  10
HETATM   10  O   UNL     1      -9.914  10.319  63.910  1.00  0.00    -0.278 OA 
HETATM   11  C   UNL     1      -9.163  11.032  62.927  1.00  0.00    -0.345 C  
ENDBRANCH   4  10
BRANCH   7  12
HETATM   12  C   UNL     1      -9.581  11.309  68.717  1.00  0.00    -0.151 C  
BRANCH  12  13
HETATM   13  N   UNL     1     -10.370  10.134  69.436  1.00  0.00    -0.216 N  
HETATM   14  O   UNL     1     -11.139   9.148  72.126  1.00  0.00    -0.316 OA 
HETATM   15  C   UNL     1      -9.419   9.349  70.397  1.00  0.00    -0.268 C  
HETATM   16  C   UNL     1     -10.215   8.411  71.326  1.00  0.00    -0.212 C  
HETATM   17  C   UNL     1     -11.440  10.802  70.354  1.00  0.00    -0.307 C  
HETATM   18  C   UNL     1     -12.107   9.823  71.321  1.00  0.00    -0.382 C  
BRANCH  13  19
HETATM   19  C   UNL     1     -11.020   9.170  68.385  1.00  0.00     0.051 C  
BRANCH  19  20
HETATM   20  C   UNL     1     -10.105   7.964  68.090  1.00  0.00    -0.191 C  
BRANCH  20  21
HETATM   21  O   UNL     1     -10.754   6.698  68.160  1.00  0.00    -0.215 OA 
BRANCH  21  22
HETATM   22  C   UNL     1      -9.952   5.639  67.570  1.00  0.00    -0.154 C  
BRANCH  22  23
HETATM   23  C   UNL     1     -10.489   5.175  66.214  1.00  0.00    -0.341 C  
BRANCH  23  24
HETATM   24  C   UNL     1      -9.780   3.983  65.545  1.00  0.00    -0.194 C  
HETATM   25  C   UNL     1      -8.823   3.345  66.592  1.00  0.00    -0.143 C  
HETATM   26  C   UNL     1      -7.330   3.621  66.369  1.00  0.00    -0.072 C  
HETATM   27  C   UNL     1      -7.030   4.007  64.920  1.00  0.00    -0.054 C  
HETATM   28  C   UNL     1      -7.797   5.318  64.581  1.00  0.00    -0.098 C  
HETATM   29  C   UNL     1      -8.997   4.372  64.265  1.00  0.00    -0.151 C  
HETATM   30  C   UNL     1      -7.885   3.329  63.770  1.00  0.00    -0.080 C  
HETATM   31  C   UNL     1      -8.207   1.835  63.859  1.00  0.00    -0.076 C  
HETATM   32  C   UNL     1      -7.278   3.561  62.367  1.00  0.00    -0.040 C  
ENDBRANCH  23  24
ENDBRANCH  22  23
ENDBRANCH  21  22
ENDBRANCH  20  21
ENDBRANCH  19  20
ENDBRANCH  13  19
ENDBRANCH  12  13
ENDBRANCH   7  12
ENDBRANCH   2   3
TORSDOF 10
ENDMDL
MODEL      181
REMARK 921   NORMALIZED FREE ENERGY PREDICTED BY IDOCK:   -3.89 KCAL/MOL
REMARK 922        TOTAL FREE ENERGY PREDICTED BY IDOCK:   -7.44 KCAL/MOL
REMARK 923 INTER-LIGAND FREE ENERGY PREDICTED BY IDOCK:   -6.81 KCAL/MOL
REMARK 924 INTRA-LIGAND FREE ENERGY PREDICTED BY IDOCK:   -0.63 KCAL/MOL
REMARK 927      BINDING AFFINITY PREDICTED BY RF-SCORE:    0.00 PKD
ROOT
HETATM    1  C   UNL     1      -9.665   4.053  69.289  1.00  0.00    -0.120 C  
HETATM    2  O   UNL     1      -9.793   5.428  69.618  1.00  0.00    -0.160 OA 
ENDROOT
BRANCH   2   3
HETATM    3  C   UNL     1      -8.833   6.293  69.173  1.00  0.00    -0.128 A  
HETATM    4  C   UNL     1      -7.603   6.607  69.768  1.00  0.00    -0.104 A  
HETATM    5  C   UNL     1      -9.216   6.973  68.011  1.00  0.00    -0.129 A  
HETATM    6  C   UNL     1      -6.804   7.606  69.195  1.00  0.00    -0.053 A  
HETATM    7  C   UNL     1      -7.249   8.395  68.111  1.00  0.00    -0.091 A  
HETATM    8 BR   UNL     1      -9.037   8.759  65.841  1.00  0.00    -0.275 Br 
HETATM    9  C   UNL     1      -8.430   7.992  67.470  1.00  0.00    -0.127 A  
BRANCH   4  10
HETATM   10  O   UNL     1      -7.197   5.922  70.877  1.00  0.00    -0.072 OA 
HETATM   11  C   UNL     1      -6.188   4.934  70.660  1.00  0.00    -0.019 C  
ENDBRANCH   4  10
BRANCH   7  12
HETATM   12  C   UNL     1      -6.529   9.697  67.793  1.00  0.00    -0.058 C  
BRANCH  12  13
HETATM   13  N   UNL     1      -6.878  10.897  68.772  1.00  0.00    -0.065 N  
HETATM   14  O   UNL     1      -5.885  13.551  69.649  1.00  0.00    -0.097 OA 
HETATM   15  C   UNL     1      -5.720  11.114  69.800  1.00  0.00    -0.073 C  
HETATM   16  C   UNL     1      -5.888  12.448  70.555  1.00  0.00    -0.122 C  
HETATM   17  C   UNL     1      -6.918  12.192  67.903  1.00  0.00    -0.099 C  
HETATM   18  C   UNL     1      -6.976  13.477  68.730  1.00  0.00    -0.102 C  
BRANCH  13  19
HETATM   19  C   UNL     1      -8.238  10.643  69.508  1.00  0.00    -0.021 C  
BRANCH  19  20
HETATM   20  C   UNL     1      -9.426  11.209  68.703  1.00  0.00    -0.193 C  
BRANCH  20  21
HETATM   21  O   UNL     1     -10.656  11.256  69.419  1.00  0.00    -0.195 OA 
BRANCH  21  22
HETATM   22  C   UNL     1     -11.554  12.271  68.894  1.00  0.00    -0.316 C  
BRANCH  22  23
HETATM   23  C   UNL     1     -10.829  13.337  68.070  1.00  0.00    -0.261 C  
BRANCH  23  24
HETATM   24  C   UNL     1     -10.507  12.996  66.603  1.00  0.00    -0.271 C  
HETATM   25  C   UNL     1      -9.794  14.223  65.970  1.00  0.00    -0.336 C  
HETATM   26  C   UNL     1     -10.647  15.045  64.993  1.00  0.00    -0.437 C  
HETATM   27  C   UNL     1     -11.816  14.234  64.433  1.00  0.00    -0.444 C  
HETATM   28  C   UNL     1     -12.742  13.812  65.611  1.00  0.00    -0.523 C  
HETATM   29  C   UNL     1     -11.759  12.611  65.773  1.00  0.00    -0.466 C  
HETATM   30  C   UNL     1     -11.601  12.685  64.179  1.00  0.00    -0.458 C  
HETATM   31  C   UNL     1     -10.286  12.203  63.561  1.00  0.00    -0.473 C  
HETATM   32  C   UNL     1     -12.734  12.062  63.331  1.00  0.00    -0.527 C  
ENDBRANCH  23  24
ENDBRANCH  22  23
ENDBRANCH  21  22
ENDBRANCH  20  21
ENDBRANCH  19  20
ENDBRANCH  13  19
ENDBRANCH  12  13
ENDBRANCH   7  12
ENDBRANCH   2   3
TORSDOF 10
ENDMDL
MODEL      182
REMARK 921   NORMALIZED FREE ENERGY PREDICTED BY IDOCK:   -3.87 KCAL/MOL
REMARK 922        TOTAL FREE ENERGY PREDICTED BY IDOCK:   -7.41 KCAL/MOL
REMARK 923 INTER-LIGAND FREE ENERGY PREDICTED BY IDOCK:   -6.72 KCAL/MOL
REMARK 924 INTRA-LIGAND FREE ENERGY PREDICTED BY IDOCK:   -0.69 KCAL/MOL
REMARK 927      BINDING AFFINITY PREDICTED BY RF-SCORE:    0.00 PKD
ROOT
HETATM    1  C   UNL     1      -9.658   3.671  71.195  1.00  0.00    -0.177 C  
HETATM    2  O   UNL     1      -9.008   4.922  71.373  1.00  0.00    -0.130 OA 
ENDROOT
BRANCH   2   3
HETATM    3  C   UNL     1      -9.111   5.852  70.376  1.00  0.00    -0.147 A  
HETATM    4  C   UNL     1      -8.941   7.240  70.464  1.00  0.00    -0.154 A  
HETATM    5  C   UNL     1      -9.510   5.294  69.156  1.00  0.00    -0.184 A  
HETATM    6  C   UNL     1      -9.195   8.030  69.334  1.00  0.00    -0.152 A  
HETATM    7  C   UNL     1      -9.737   7.491  68.146  1.00  0.00    -0.167 A  
HETATM    8 BR   UNL     1     -10.237   5.187  66.438  1.00  0.00    -0.326 Br 
HETATM    9  C   UNL     1      -9.797   6.094  68.048  1.00  0.00    -0.127 A  
BRANCH   4  10
HETATM   10  O   UNL     1      -8.510   7.794  71.635  1.00  0.00    -0.105 OA 
HETATM   11  C   UNL     1      -9.469   8.589  72.334  1.00  0.00    -0.280 C  
ENDBRANCH   4  10
BRANCH   7  12
HETATM   12  C   UNL     1     -10.353   8.428  67.118  1.00  0.00    -0.311 C  
BRANCH  12  13
HETATM   13  N   UNL     1      -9.299   9.272  66.283  1.00  0.00    -0.182 N  
HETATM   14  O   UNL     1      -6.385   9.770  66.036  1.00  0.00    -0.070 OA 
HETATM   15  C   UNL     1      -8.476  10.204  67.231  1.00  0.00    -0.125 C  
HETATM   16  C   UNL     1      -7.255  10.801  66.504  1.00  0.00    -0.139 C  
HETATM   17  C   UNL     1      -8.271   8.257  65.694  1.00  0.00    -0.134 C  
HETATM   18  C   UNL     1      -7.037   8.926  65.087  1.00  0.00    -0.084 C  
BRANCH  13  19
HETATM   19  C   UNL     1     -10.009  10.105  65.161  1.00  0.00    -0.309 C  
BRANCH  19  20
HETATM   20  C   UNL     1     -10.767  11.311  65.754  1.00  0.00    -0.223 C  
BRANCH  20  21
HETATM   21  O   UNL     1     -11.286  12.217  64.785  1.00  0.00    -0.307 OA 
BRANCH  21  22
HETATM   22  C   UNL     1     -10.610  13.503  64.823  1.00  0.00    -0.417 C  
BRANCH  22  23
HETATM   23  C   UNL     1      -9.821  13.720  66.116  1.00  0.00    -0.310 C  
BRANCH  23  24
HETATM   24  C   UNL     1     -10.187  14.949  66.968  1.00  0.00    -0.256 C  
HETATM   25  C   UNL     1     -11.112  15.866  66.117  1.00  0.00    -0.024 C  
HETATM   26  C   UNL     1     -10.454  17.146  65.583  1.00  0.00    -0.208 C  
HETATM   27  C   UNL     1      -9.220  17.537  66.397  1.00  0.00    -0.267 C  
HETATM   28  C   UNL     1      -8.166  16.396  66.287  1.00  0.00    -0.343 C  
HETATM   29  C   UNL     1      -8.952  15.743  67.466  1.00  0.00    -0.201 C  
HETATM   30  C   UNL     1      -9.225  17.245  67.955  1.00  0.00    -0.256 C  
HETATM   31  C   UNL     1     -10.495  17.521  68.764  1.00  0.00    -0.318 C  
HETATM   32  C   UNL     1      -8.073  17.964  68.695  1.00  0.00    -0.283 C  
ENDBRANCH  23  24
ENDBRANCH  22  23
ENDBRANCH  21  22
ENDBRANCH  20  21
ENDBRANCH  19  20
ENDBRANCH  13  19
ENDBRANCH  12  13
ENDBRANCH   7  12
ENDBRANCH   2   3
TORSDOF 10
ENDMDL
MODEL      183
REMARK 921   NORMALIZED FREE ENERGY PREDICTED BY IDOCK:   -3.86 KCAL/MOL
REMARK 922        TOTAL FREE ENERGY PREDICTED BY IDOCK:   -7.38 KCAL/MOL
REMARK 923 INTER-LIGAND FREE ENERGY PREDICTED BY IDOCK:   -7.47 KCAL/MOL
REMARK 924 INTRA-LIGAND FREE ENERGY PREDICTED BY IDOCK:    0.09 KCAL/MOL
REMARK 927      BINDING AFFINITY PREDICTED BY RF-SCORE:    0.00 PKD
ROOT
HETATM    1  C   UNL     1     -12.552  12.234  63.398  1.00  0.00    -0.427 C  
HETATM    2  O   UNL     1     -12.805  12.606  64.745  1.00  0.00    -0.730 OA 
ENDROOT
BRANCH   2   3
HETATM    3  C   UNL     1     -11.823  12.391  65.671  1.00  0.00    -0.409 A  
HETATM    4  C   UNL     1     -10.669  11.605  65.548  1.00  0.00    -0.281 A  
HETATM    5  C   UNL     1     -12.098  13.000  66.901  1.00  0.00    -0.349 A  
HETATM    6  C   UNL     1      -9.837  11.436  66.663  1.00  0.00    -0.233 A  
HETATM    7  C   UNL     1     -10.185  11.926  67.942  1.00  0.00    -0.203 A  
HETATM    8 BR   UNL     1     -11.734  13.761  69.588  1.00  0.00    -0.383 Br 
HETATM    9  C   UNL     1     -11.283  12.794  68.016  1.00  0.00    -0.270 A  
BRANCH   4  10
HETATM   10  O   UNL     1     -10.365  11.040  64.343  1.00  0.00    -0.317 OA 
HETATM   11  C   UNL     1      -9.460   9.936  64.387  1.00  0.00    -0.239 C  
ENDBRANCH   4  10
BRANCH   7  12
HETATM   12  C   UNL     1      -9.464  11.384  69.167  1.00  0.00     0.142 C  
BRANCH  12  13
HETATM   13  N   UNL     1      -9.976   9.963  69.656  1.00  0.00    -0.218 N  
HETATM   14  O   UNL     1     -10.556   8.418  72.121  1.00  0.00    -0.278 OA 
HETATM   15  C   UNL     1      -8.890   9.271  70.543  1.00  0.00    -0.241 C  
HETATM   16  C   UNL     1      -9.469   8.043  71.275  1.00  0.00    -0.157 C  
HETATM   17  C   UNL     1     -11.191  10.220  70.600  1.00  0.00    -0.325 C  
HETATM   18  C   UNL     1     -11.635   8.976  71.371  1.00  0.00    -0.326 C  
BRANCH  13  19
HETATM   19  C   UNL     1     -10.362   9.056  68.438  1.00  0.00    -0.205 C  
BRANCH  19  20
HETATM   20  C   UNL     1      -9.137   8.285  67.903  1.00  0.00    -0.133 C  
BRANCH  20  21
HETATM   21  O   UNL     1      -9.417   7.416  66.811  1.00  0.00    -0.159 OA 
BRANCH  21  22
HETATM   22  C   UNL     1     -10.713   6.770  66.944  1.00  0.00    -0.324 C  
BRANCH  22  23
HETATM   23  C   UNL     1     -10.630   5.415  67.652  1.00  0.00    -0.188 C  
BRANCH  23  24
HETATM   24  C   UNL     1      -9.246   4.745  67.732  1.00  0.00    -0.145 C  
HETATM   25  C   UNL     1      -9.380   3.299  67.174  1.00  0.00    -0.212 C  
HETATM   26  C   UNL     1      -9.347   2.184  68.229  1.00  0.00    -0.260 C  
HETATM   27  C   UNL     1      -8.678   2.643  69.525  1.00  0.00    -0.130 C  
HETATM   28  C   UNL     1      -9.501   3.820  70.124  1.00  0.00    -0.259 C  
HETATM   29  C   UNL     1      -8.658   4.717  69.166  1.00  0.00    -0.094 C  
HETATM   30  C   UNL     1      -7.473   3.669  69.426  1.00  0.00    -0.052 C  
HETATM   31  C   UNL     1      -6.421   3.483  68.329  1.00  0.00    -0.037 C  
HETATM   32  C   UNL     1      -6.697   3.800  70.756  1.00  0.00    -0.032 C  
ENDBRANCH  23  24
ENDBRANCH  22  23
ENDBRANCH  21  22
ENDBRANCH  20  21
ENDBRANCH  19  20
ENDBRANCH  13  19
ENDBRANCH  12  13
ENDBRANCH   7  12
ENDBRANCH   2   3
TORSDOF 10
ENDMDL
MODEL      184
REMARK 921   NORMALIZED FREE ENERGY PREDICTED BY IDOCK:   -3.82 KCAL/MOL
REMARK 922        TOTAL FREE ENERGY PREDICTED BY IDOCK:   -7.34 KCAL/MOL
REMARK 923 INTER-LIGAND FREE ENERGY PREDICTED BY IDOCK:   -6.73 KCAL/MOL
REMARK 924 INTRA-LIGAND FREE ENERGY PREDICTED BY IDOCK:   -0.60 KCAL/MOL
REMARK 927      BINDING AFFINITY PREDICTED BY RF-SCORE:    0.00 PKD
ROOT
HETATM    1  C   UNL     1     -13.663  14.461  72.474  1.00  0.00    -0.488 C  
HETATM    2  O   UNL     1     -13.166  13.145  72.665  1.00  0.00    -0.429 OA 
ENDROOT
BRANCH   2   3
HETATM    3  C   UNL     1     -12.875  12.396  71.560  1.00  0.00    -0.274 A  
HETATM    4  C   UNL     1     -13.135  11.036  71.339  1.00  0.00    -0.341 A  
HETATM    5  C   UNL     1     -12.163  13.115  70.592  1.00  0.00    -0.402 A  
HETATM    6  C   UNL     1     -12.657  10.433  70.167  1.00  0.00    -0.197 A  
HETATM    7  C   UNL     1     -11.817  11.114  69.259  1.00  0.00    -0.422 A  
HETATM    8 BR   UNL     1     -10.796  13.620  68.183  1.00  0.00    -0.274 Br 
HETATM    9  C   UNL     1     -11.661  12.495  69.446  1.00  0.00    -0.305 A  
BRANCH   4  10
HETATM   10  O   UNL     1     -13.864  10.333  72.254  1.00  0.00    -0.153 OA 
HETATM   11  C   UNL     1     -13.484   8.968  72.432  1.00  0.00    -0.470 C  
ENDBRANCH   4  10
BRANCH   7  12
HETATM   12  C   UNL     1     -11.021  10.314  68.239  1.00  0.00    -0.264 C  
BRANCH  12  13
HETATM   13  N   UNL     1      -9.888   9.394  68.864  1.00  0.00    -0.166 N  
HETATM   14  O   UNL     1      -9.460   7.296  70.916  1.00  0.00    -0.160 OA 
HETATM   15  C   UNL     1      -9.748   9.670  70.397  1.00  0.00    -0.245 C  
HETATM   16  C   UNL     1      -8.884   8.592  71.080  1.00  0.00    -0.179 C  
HETATM   17  C   UNL     1     -10.385   7.920  68.744  1.00  0.00    -0.203 C  
HETATM   18  C   UNL     1      -9.536   6.927  69.539  1.00  0.00    -0.146 C  
BRANCH  13  19
HETATM   19  C   UNL     1      -8.520   9.613  68.131  1.00  0.00    -0.118 C  
BRANCH  19  20
HETATM   20  C   UNL     1      -8.714  10.348  66.789  1.00  0.00    -0.127 C  
BRANCH  20  21
HETATM   21  O   UNL     1      -8.572   9.522  65.637  1.00  0.00    -0.127 OA 
BRANCH  21  22
HETATM   22  C   UNL     1      -7.836   8.303  65.927  1.00  0.00    -0.093 C  
BRANCH  22  23
HETATM   23  C   UNL     1      -7.992   7.242  64.834  1.00  0.00    -0.127 C  
BRANCH  23  24
HETATM   24  C   UNL     1      -7.544   5.809  65.173  1.00  0.00    -0.086 C  
HETATM   25  C   UNL     1      -8.091   4.861  64.069  1.00  0.00    -0.116 C  
HETATM   26  C   UNL     1      -9.274   3.978  64.490  1.00  0.00    -0.151 C  
HETATM   27  C   UNL     1      -9.350   3.810  66.008  1.00  0.00    -0.173 C  
HETATM   28  C   UNL     1      -9.565   5.209  66.656  1.00  0.00    -0.162 C  
HETATM   29  C   UNL     1      -8.012   5.334  66.573  1.00  0.00    -0.104 C  
HETATM   30  C   UNL     1      -7.994   3.750  66.826  1.00  0.00    -0.095 C  
HETATM   31  C   UNL     1      -6.819   2.944  66.268  1.00  0.00    -0.048 C  
HETATM   32  C   UNL     1      -8.202   3.268  68.280  1.00  0.00    -0.088 C  
ENDBRANCH  23  24
ENDBRANCH  22  23
ENDBRANCH  21  22
ENDBRANCH  20  21
ENDBRANCH  19  20
ENDBRANCH  13  19
ENDBRANCH  12  13
ENDBRANCH   7  12
ENDBRANCH   2   3
TORSDOF 10
ENDMDL
MODEL      185
REMARK 921   NORMALIZED FREE ENERGY PREDICTED BY IDOCK:   -3.80 KCAL/MOL
REMARK 922        TOTAL FREE ENERGY PREDICTED BY IDOCK:   -7.30 KCAL/MOL
REMARK 923 INTER-LIGAND FREE ENERGY PREDICTED BY IDOCK:   -6.82 KCAL/MOL
REMARK 924 INTRA-LIGAND FREE ENERGY PREDICTED BY IDOCK:   -0.48 KCAL/MOL
REMARK 927      BINDING AFFINITY PREDICTED BY RF-SCORE:    0.00 PKD
ROOT
HETATM    1  C   UNL     1     -12.389  13.801  71.046  1.00  0.00    -0.372 C  
HETATM    2  O   UNL     1     -12.517  12.395  71.203  1.00  0.00    -0.343 OA 
ENDROOT
BRANCH   2   3
HETATM    3  C   UNL     1     -11.948  11.583  70.262  1.00  0.00    -0.368 A  
HETATM    4  C   UNL     1     -11.365  10.322  70.442  1.00  0.00    -0.332 A  
HETATM    5  C   UNL     1     -11.908  12.173  68.994  1.00  0.00    -0.361 A  
HETATM    6  C   UNL     1     -10.741   9.699  69.353  1.00  0.00    -0.248 A  
HETATM    7  C   UNL     1     -10.569  10.349  68.110  1.00  0.00    -0.246 A  
HETATM    8 BR   UNL     1     -11.362  12.439  66.244  1.00  0.00    -0.412 Br 
HETATM    9  C   UNL     1     -11.252  11.560  67.925  1.00  0.00    -0.279 A  
BRANCH   4  10
HETATM   10  O   UNL     1     -11.433   9.716  71.664  1.00  0.00    -0.380 OA 
HETATM   11  C   UNL     1     -10.318   8.895  72.011  1.00  0.00    -0.307 C  
ENDBRANCH   4  10
BRANCH   7  12
HETATM   12  C   UNL     1      -9.560   9.798  67.115  1.00  0.00    -0.169 C  
BRANCH  12  13
HETATM   13  N   UNL     1      -8.050  10.175  67.433  1.00  0.00    -0.113 N  
HETATM   14  O   UNL     1      -6.062  12.343  67.054  1.00  0.00    -0.228 OA 
HETATM   15  C   UNL     1      -7.265  10.434  66.106  1.00  0.00    -0.131 C  
HETATM   16  C   UNL     1      -5.898  11.091  66.387  1.00  0.00    -0.140 C  
HETATM   17  C   UNL     1      -8.074  11.542  68.183  1.00  0.00    -0.146 C  
HETATM   18  C   UNL     1      -6.691  12.181  68.326  1.00  0.00    -0.063 C  
BRANCH  13  19
HETATM   19  C   UNL     1      -7.359   9.053  68.280  1.00  0.00    -0.082 C  
BRANCH  19  20
HETATM   20  C   UNL     1      -7.196   9.483  69.753  1.00  0.00    -0.084 C  
BRANCH  20  21
HETATM   21  O   UNL     1      -6.432   8.584  70.550  1.00  0.00    -0.035 OA 
BRANCH  21  22
HETATM   22  C   UNL     1      -6.871   7.207  70.395  1.00  0.00    -0.057 C  
BRANCH  22  23
HETATM   23  C   UNL     1      -7.439   6.617  71.688  1.00  0.00    -0.088 C  
BRANCH  23  24
HETATM   24  C   UNL     1      -8.240   5.307  71.573  1.00  0.00    -0.117 C  
HETATM   25  C   UNL     1      -9.355   5.518  70.510  1.00  0.00    -0.195 C  
HETATM   26  C   UNL     1     -10.776   5.669  71.071  1.00  0.00    -0.304 C  
HETATM   27  C   UNL     1     -10.903   5.072  72.474  1.00  0.00    -0.257 C  
HETATM   28  C   UNL     1      -9.945   5.839  73.432  1.00  0.00    -0.186 C  
HETATM   29  C   UNL     1      -8.858   4.845  72.918  1.00  0.00    -0.117 C  
HETATM   30  C   UNL     1     -10.053   3.780  72.820  1.00  0.00    -0.227 C  
HETATM   31  C   UNL     1      -9.938   2.660  71.783  1.00  0.00    -0.188 C  
HETATM   32  C   UNL     1     -10.506   3.109  74.136  1.00  0.00    -0.243 C  
ENDBRANCH  23  24
ENDBRANCH  22  23
ENDBRANCH  21  22
ENDBRANCH  20  21
ENDBRANCH  19  20
ENDBRANCH  13  19
ENDBRANCH  12  13
ENDBRANCH   7  12
ENDBRANCH   2   3
TORSDOF 10
ENDMDL
MODEL      186
REMARK 921   NORMALIZED FREE ENERGY PREDICTED BY IDOCK:   -3.78 KCAL/MOL
REMARK 922        TOTAL FREE ENERGY PREDICTED BY IDOCK:   -7.27 KCAL/MOL
REMARK 923 INTER-LIGAND FREE ENERGY PREDICTED BY IDOCK:   -7.41 KCAL/MOL
REMARK 924 INTRA-LIGAND FREE ENERGY PREDICTED BY IDOCK:    0.14 KCAL/MOL
REMARK 927      BINDING AFFINITY PREDICTED BY RF-SCORE:    0.00 PKD
ROOT
HETATM    1  C   UNL     1     -12.623  12.224  63.166  1.00  0.00    -0.143 C  
HETATM    2  O   UNL     1     -12.663  12.889  64.420  1.00  0.00    -0.654 OA 
ENDROOT
BRANCH   2   3
HETATM    3  C   UNL     1     -11.763  12.517  65.379  1.00  0.00    -0.398 A  
HETATM    4  C   UNL     1     -10.801  11.499  65.320  1.00  0.00    -0.259 A  
HETATM    5  C   UNL     1     -11.920  13.231  66.573  1.00  0.00    -0.448 A  
HETATM    6  C   UNL     1     -10.041  11.212  66.462  1.00  0.00    -0.265 A  
HETATM    7  C   UNL     1     -10.294  11.828  67.708  1.00  0.00    -0.211 A  
HETATM    8 BR   UNL     1     -11.441  14.029  69.230  1.00  0.00    -0.364 Br 
HETATM    9  C   UNL     1     -11.183  12.913  67.715  1.00  0.00    -0.280 A  
BRANCH   4  10
HETATM   10  O   UNL     1     -10.608  10.823  64.149  1.00  0.00    -0.347 OA 
HETATM   11  C   UNL     1      -9.464   9.969  64.109  1.00  0.00    -0.252 C  
ENDBRANCH   4  10
BRANCH   7  12
HETATM   12  C   UNL     1      -9.723  11.207  68.974  1.00  0.00    -0.096 C  
BRANCH  12  13
HETATM   13  N   UNL     1     -10.646  10.097  69.635  1.00  0.00    -0.239 N  
HETATM   14  O   UNL     1     -12.309   9.578  72.037  1.00  0.00    -0.368 OA 
HETATM   15  C   UNL     1     -10.079   9.682  71.032  1.00  0.00    -0.130 C  
HETATM   16  C   UNL     1     -11.103   8.843  71.822  1.00  0.00    -0.363 C  
HETATM   17  C   UNL     1     -12.025  10.767  69.922  1.00  0.00    -0.342 C  
HETATM   18  C   UNL     1     -12.942   9.917  70.802  1.00  0.00    -0.208 C  
BRANCH  13  19
HETATM   19  C   UNL     1     -10.784   8.850  68.696  1.00  0.00    -0.078 C  
BRANCH  19  20
HETATM   20  C   UNL     1      -9.525   7.961  68.757  1.00  0.00    -0.147 C  
BRANCH  20  21
HETATM   21  O   UNL     1      -9.760   6.584  68.482  1.00  0.00    -0.129 OA 
BRANCH  21  22
HETATM   22  C   UNL     1     -10.638   5.972  69.466  1.00  0.00    -0.296 C  
BRANCH  22  23
HETATM   23  C   UNL     1     -10.014   4.746  70.136  1.00  0.00    -0.321 C  
BRANCH  23  24
HETATM   24  C   UNL     1      -8.750   4.972  70.985  1.00  0.00    -0.141 C  
HETATM   25  C   UNL     1      -8.352   3.613  71.626  1.00  0.00    -0.079 C  
HETATM   26  C   UNL     1      -8.644   3.486  73.128  1.00  0.00    -0.085 C  
HETATM   27  C   UNL     1      -8.772   4.852  73.803  1.00  0.00    -0.105 C  
HETATM   28  C   UNL     1      -9.968   5.616  73.164  1.00  0.00    -0.190 C  
HETATM   29  C   UNL     1      -8.932   6.053  72.082  1.00  0.00    -0.142 C  
HETATM   30  C   UNL     1      -7.862   6.038  73.276  1.00  0.00    -0.104 C  
HETATM   31  C   UNL     1      -6.397   5.760  72.929  1.00  0.00    -0.061 C  
HETATM   32  C   UNL     1      -7.860   7.252  74.233  1.00  0.00    -0.162 C  
ENDBRANCH  23  24
ENDBRANCH  22  23
ENDBRANCH  21  22
ENDBRANCH  20  21
ENDBRANCH  19  20
ENDBRANCH  13  19
ENDBRANCH  12  13
ENDBRANCH   7  12
ENDBRANCH   2   3
TORSDOF 10
ENDMDL
MODEL      187
REMARK 921   NORMALIZED FREE ENERGY PREDICTED BY IDOCK:   -3.77 KCAL/MOL
REMARK 922        TOTAL FREE ENERGY PREDICTED BY IDOCK:   -7.25 KCAL/MOL
REMARK 923 INTER-LIGAND FREE ENERGY PREDICTED BY IDOCK:   -6.53 KCAL/MOL
REMARK 924 INTRA-LIGAND FREE ENERGY PREDICTED BY IDOCK:   -0.72 KCAL/MOL
REMARK 927      BINDING AFFINITY PREDICTED BY RF-SCORE:    0.00 PKD
ROOT
HETATM    1  C   UNL     1     -10.750   4.264  72.740  1.00  0.00    -0.137 C  
HETATM    2  O   UNL     1      -9.652   5.132  72.982  1.00  0.00    -0.141 OA 
ENDROOT
BRANCH   2   3
HETATM    3  C   UNL     1      -9.285   6.002  71.994  1.00  0.00    -0.146 A  
HETATM    4  C   UNL     1      -9.924   7.184  71.597  1.00  0.00    -0.177 A  
HETATM    5  C   UNL     1      -8.165   5.564  71.278  1.00  0.00    -0.125 A  
HETATM    6  C   UNL     1      -9.436   7.881  70.483  1.00  0.00    -0.162 A  
HETATM    7  C   UNL     1      -8.399   7.370  69.670  1.00  0.00    -0.132 A  
HETATM    8 BR   UNL     1      -6.125   5.583  69.337  1.00  0.00    -0.026 Br 
HETATM    9  C   UNL     1      -7.709   6.246  70.148  1.00  0.00    -0.098 A  
BRANCH   4  10
HETATM   10  O   UNL     1     -10.992   7.646  72.311  1.00  0.00    -0.242 OA 
HETATM   11  C   UNL     1     -11.651   8.792  71.770  1.00  0.00    -0.346 C  
ENDBRANCH   4  10
BRANCH   7  12
HETATM   12  C   UNL     1      -8.184   7.954  68.283  1.00  0.00    -0.124 C  
BRANCH  12  13
HETATM   13  N   UNL     1      -8.989   7.219  67.128  1.00  0.00    -0.124 N  
HETATM   14  O   UNL     1      -9.450   4.532  65.958  1.00  0.00    -0.146 OA 
HETATM   15  C   UNL     1      -8.002   6.496  66.154  1.00  0.00    -0.110 C  
HETATM   16  C   UNL     1      -8.753   5.532  65.214  1.00  0.00    -0.136 C  
HETATM   17  C   UNL     1      -9.818   6.085  67.807  1.00  0.00    -0.119 C  
HETATM   18  C   UNL     1     -10.442   5.108  66.808  1.00  0.00    -0.251 C  
BRANCH  13  19
HETATM   19  C   UNL     1      -9.901   8.227  66.350  1.00  0.00    -0.213 C  
BRANCH  19  20
HETATM   20  C   UNL     1      -9.070   9.362  65.717  1.00  0.00    -0.200 C  
BRANCH  20  21
HETATM   21  O   UNL     1      -9.365  10.661  66.219  1.00  0.00    -0.164 OA 
BRANCH  21  22
HETATM   22  C   UNL     1      -9.870  11.546  65.182  1.00  0.00    -0.257 C  
BRANCH  22  23
HETATM   23  C   UNL     1     -11.260  12.102  65.503  1.00  0.00    -0.381 C  
BRANCH  23  24
HETATM   24  C   UNL     1     -11.326  13.432  66.275  1.00  0.00    -0.329 C  
HETATM   25  C   UNL     1      -9.893  14.032  66.323  1.00  0.00    -0.318 C  
HETATM   26  C   UNL     1      -9.188  13.938  67.683  1.00  0.00    -0.199 C  
HETATM   27  C   UNL     1     -10.182  13.764  68.831  1.00  0.00    -0.111 C  
HETATM   28  C   UNL     1     -10.961  12.432  68.622  1.00  0.00    -0.283 C  
HETATM   29  C   UNL     1     -11.897  13.283  67.709  1.00  0.00    -0.394 C  
HETATM   30  C   UNL     1     -11.589  14.486  68.722  1.00  0.00    -0.343 C  
HETATM   31  C   UNL     1     -11.655  15.918  68.184  1.00  0.00    -0.224 C  
HETATM   32  C   UNL     1     -12.357  14.490  70.064  1.00  0.00    -0.376 C  
ENDBRANCH  23  24
ENDBRANCH  22  23
ENDBRANCH  21  22
ENDBRANCH  20  21
ENDBRANCH  19  20
ENDBRANCH  13  19
ENDBRANCH  12  13
ENDBRANCH   7  12
ENDBRANCH   2   3
TORSDOF 10
ENDMDL
MODEL      188
REMARK 921   NORMALIZED FREE ENERGY PREDICTED BY IDOCK:   -3.77 KCAL/MOL
REMARK 922        TOTAL FREE ENERGY PREDICTED BY IDOCK:   -7.25 KCAL/MOL
REMARK 923 INTER-LIGAND FREE ENERGY PREDICTED BY IDOCK:   -6.10 KCAL/MOL
REMARK 924 INTRA-LIGAND FREE ENERGY PREDICTED BY IDOCK:   -1.15 KCAL/MOL
REMARK 927      BINDING AFFINITY PREDICTED BY RF-SCORE:    0.00 PKD
ROOT
HETATM    1  C   UNL     1      -7.869  10.922  65.939  1.00  0.00    -0.090 C  
HETATM    2  O   UNL     1      -9.147  11.208  66.490  1.00  0.00    -0.171 OA 
ENDROOT
BRANCH   2   3
HETATM    3  C   UNL     1      -9.507  10.582  67.650  1.00  0.00    -0.149 A  
HETATM    4  C   UNL     1     -10.767  10.550  68.265  1.00  0.00    -0.229 A  
HETATM    5  C   UNL     1      -8.423   9.976  68.296  1.00  0.00    -0.111 A  
HETATM    6  C   UNL     1     -10.898   9.931  69.515  1.00  0.00    -0.274 A  
HETATM    7  C   UNL     1      -9.784   9.448  70.237  1.00  0.00    -0.292 A  
HETATM    8 BR   UNL     1      -7.020   8.533  70.265  1.00  0.00    -0.042 Br 
HETATM    9  C   UNL     1      -8.558   9.396  69.558  1.00  0.00    -0.158 A  
BRANCH   4  10
HETATM   10  O   UNL     1     -11.842  11.099  67.627  1.00  0.00    -0.612 OA 
HETATM   11  C   UNL     1     -11.923  12.524  67.666  1.00  0.00    -0.221 C  
ENDBRANCH   4  10
BRANCH   7  12
HETATM   12  C   UNL     1      -9.929   9.157  71.723  1.00  0.00    -0.187 C  
BRANCH  12  13
HETATM   13  N   UNL     1     -11.224   8.322  72.105  1.00  0.00    -0.318 N  
HETATM   14  O   UNL     1     -13.999   7.783  71.203  1.00  0.00    -0.257 OA 
HETATM   15  C   UNL     1     -12.436   9.279  72.348  1.00  0.00    -0.237 C  
HETATM   16  C   UNL     1     -13.762   8.494  72.418  1.00  0.00    -0.289 C  
HETATM   17  C   UNL     1     -11.602   7.473  70.852  1.00  0.00    -0.286 C  
HETATM   18  C   UNL     1     -12.978   6.814  70.956  1.00  0.00     0.011 C  
BRANCH  13  19
HETATM   19  C   UNL     1     -10.962   7.425  73.363  1.00  0.00    -0.243 C  
BRANCH  19  20
HETATM   20  C   UNL     1     -10.561   5.992  72.956  1.00  0.00    -0.240 C  
BRANCH  20  21
HETATM   21  O   UNL     1      -9.190   5.840  72.603  1.00  0.00    -0.138 OA 
BRANCH  21  22
HETATM   22  C   UNL     1      -8.939   4.586  71.912  1.00  0.00    -0.122 C  
BRANCH  22  23
HETATM   23  C   UNL     1      -8.344   4.787  70.516  1.00  0.00    -0.098 C  
BRANCH  23  24
HETATM   24  C   UNL     1      -9.289   5.300  69.414  1.00  0.00    -0.172 C  
HETATM   25  C   UNL     1     -10.033   4.075  68.811  1.00  0.00     0.094 C  
HETATM   26  C   UNL     1      -9.565   3.646  67.413  1.00  0.00    -0.197 C  
HETATM   27  C   UNL     1      -8.852   4.781  66.676  1.00  0.00    -0.110 C  
HETATM   28  C   UNL     1      -7.584   5.184  67.484  1.00  0.00    -0.088 C  
HETATM   29  C   UNL     1      -8.559   6.090  68.298  1.00  0.00    -0.115 C  
HETATM   30  C   UNL     1      -9.354   6.265  66.917  1.00  0.00    -0.148 C  
HETATM   31  C   UNL     1     -10.858   6.544  66.980  1.00  0.00    -0.465 C  
HETATM   32  C   UNL     1      -8.769   7.260  65.889  1.00  0.00    -0.150 C  
ENDBRANCH  23  24
ENDBRANCH  22  23
ENDBRANCH  21  22
ENDBRANCH  20  21
ENDBRANCH  19  20
ENDBRANCH  13  19
ENDBRANCH  12  13
ENDBRANCH   7  12
ENDBRANCH   2   3
TORSDOF 10
ENDMDL
MODEL      189
REMARK 921   NORMALIZED FREE ENERGY PREDICTED BY IDOCK:   -3.76 KCAL/MOL
REMARK 922        TOTAL FREE ENERGY PREDICTED BY IDOCK:   -7.23 KCAL/MOL
REMARK 923 INTER-LIGAND FREE ENERGY PREDICTED BY IDOCK:   -6.33 KCAL/MOL
REMARK 924 INTRA-LIGAND FREE ENERGY PREDICTED BY IDOCK:   -0.90 KCAL/MOL
REMARK 927      BINDING AFFINITY PREDICTED BY RF-SCORE:    0.00 PKD
ROOT
HETATM    1  C   UNL     1      -8.103   4.026  69.012  1.00  0.00    -0.069 C  
HETATM    2  O   UNL     1      -9.060   4.946  68.506  1.00  0.00    -0.106 OA 
ENDROOT
BRANCH   2   3
HETATM    3  C   UNL     1      -9.008   6.240  68.943  1.00  0.00    -0.126 A  
HETATM    4  C   UNL     1     -10.066   7.056  69.367  1.00  0.00    -0.169 A  
HETATM    5  C   UNL     1      -7.722   6.785  68.864  1.00  0.00    -0.110 A  
HETATM    6  C   UNL     1      -9.808   8.398  69.679  1.00  0.00    -0.184 A  
HETATM    7  C   UNL     1      -8.544   8.991  69.462  1.00  0.00    -0.138 A  
HETATM    8 BR   UNL     1      -5.672   8.704  69.079  1.00  0.00    -0.040 Br 
HETATM    9  C   UNL     1      -7.483   8.133  69.141  1.00  0.00    -0.087 A  
BRANCH   4  10
HETATM   10  O   UNL     1     -11.319   6.526  69.490  1.00  0.00    -0.362 OA 
HETATM   11  C   UNL     1     -11.939   6.692  70.765  1.00  0.00    -0.353 C  
ENDBRANCH   4  10
BRANCH   7  12
HETATM   12  C   UNL     1      -8.429  10.508  69.439  1.00  0.00    -0.094 C  
BRANCH  12  13
HETATM   13  N   UNL     1      -8.465  11.148  67.987  1.00  0.00    -0.130 N  
HETATM   14  O   UNL     1     -10.186  11.367  65.580  1.00  0.00    -0.242 OA 
HETATM   15  C   UNL     1      -8.620  10.030  66.904  1.00  0.00    -0.125 C  
HETATM   16  C   UNL     1      -8.962  10.632  65.527  1.00  0.00    -0.191 C  
HETATM   17  C   UNL     1      -9.767  12.002  67.901  1.00  0.00    -0.194 C  
HETATM   18  C   UNL     1     -10.095  12.470  66.482  1.00  0.00    -0.238 C  
BRANCH  13  19
HETATM   19  C   UNL     1      -7.182  12.007  67.720  1.00  0.00    -0.108 C  
BRANCH  19  20
HETATM   20  C   UNL     1      -6.770  12.804  68.975  1.00  0.00    -0.096 C  
BRANCH  20  21
HETATM   21  O   UNL     1      -6.984  14.209  68.879  1.00  0.00    -0.099 OA 
BRANCH  21  22
HETATM   22  C   UNL     1      -6.803  14.697  67.522  1.00  0.00    -0.149 C  
BRANCH  22  23
HETATM   23  C   UNL     1      -8.021  15.466  67.002  1.00  0.00    -0.259 C  
BRANCH  23  24
HETATM   24  C   UNL     1      -8.522  16.650  67.849  1.00  0.00    -0.194 C  
HETATM   25  C   UNL     1      -9.807  16.196  68.598  1.00  0.00    -0.226 C  
HETATM   26  C   UNL     1     -11.121  16.771  68.052  1.00  0.00    -0.220 C  
HETATM   27  C   UNL     1     -10.895  18.051  67.247  1.00  0.00    -0.214 C  
HETATM   28  C   UNL     1      -9.993  17.719  66.022  1.00  0.00    -0.219 C  
HETATM   29  C   UNL     1      -8.806  17.925  67.014  1.00  0.00    -0.256 C  
HETATM   30  C   UNL     1      -9.737  19.032  67.706  1.00  0.00    -0.383 C  
HETATM   31  C   UNL     1      -9.540  19.310  69.199  1.00  0.00    -0.355 C  
HETATM   32  C   UNL     1      -9.823  20.412  67.014  1.00  0.00    -0.594 C  
ENDBRANCH  23  24
ENDBRANCH  22  23
ENDBRANCH  21  22
ENDBRANCH  20  21
ENDBRANCH  19  20
ENDBRANCH  13  19
ENDBRANCH  12  13
ENDBRANCH   7  12
ENDBRANCH   2   3
TORSDOF 10
ENDMDL
MODEL      190
REMARK 921   NORMALIZED FREE ENERGY PREDICTED BY IDOCK:   -3.72 KCAL/MOL
REMARK 922        TOTAL FREE ENERGY PREDICTED BY IDOCK:   -7.18 KCAL/MOL
REMARK 923 INTER-LIGAND FREE ENERGY PREDICTED BY IDOCK:   -7.77 KCAL/MOL
REMARK 924 INTRA-LIGAND FREE ENERGY PREDICTED BY IDOCK:    0.60 KCAL/MOL
REMARK 927      BINDING AFFINITY PREDICTED BY RF-SCORE:    0.00 PKD
ROOT
HETATM    1  C   UNL     1     -12.401  15.834  73.529  1.00  0.00    -0.552 C  
HETATM    2  O   UNL     1     -11.432  15.965  72.499  1.00  0.00    -0.373 OA 
ENDROOT
BRANCH   2   3
HETATM    3  C   UNL     1     -11.614  15.256  71.344  1.00  0.00    -0.391 A  
HETATM    4  C   UNL     1     -12.599  14.302  71.057  1.00  0.00    -0.358 A  
HETATM    5  C   UNL     1     -10.616  15.505  70.395  1.00  0.00    -0.294 A  
HETATM    6  C   UNL     1     -12.545  13.611  69.839  1.00  0.00    -0.116 A  
HETATM    7  C   UNL     1     -11.462  13.752  68.942  1.00  0.00    -0.344 A  
HETATM    8 BR   UNL     1      -9.194  15.300  67.973  1.00  0.00    -0.190 Br 
HETATM    9  C   UNL     1     -10.550  14.785  69.200  1.00  0.00    -0.248 A  
BRANCH   4  10
HETATM   10  O   UNL     1     -13.603  14.079  71.956  1.00  0.00    -0.383 OA 
HETATM   11  C   UNL     1     -13.751  12.729  72.398  1.00  0.00    -0.360 C  
ENDBRANCH   4  10
BRANCH   7  12
HETATM   12  C   UNL     1     -11.258  12.710  67.853  1.00  0.00    -0.266 C  
BRANCH  12  13
HETATM   13  N   UNL     1     -10.891  11.261  68.390  1.00  0.00    -0.191 N  
HETATM   14  O   UNL     1      -9.814   9.865  70.776  1.00  0.00    -0.134 OA 
HETATM   15  C   UNL     1      -9.375  11.188  68.764  1.00  0.00    -0.149 C  
HETATM   16  C   UNL     1      -9.059   9.909  69.564  1.00  0.00    -0.223 C  
HETATM   17  C   UNL     1     -11.666  11.067  69.731  1.00  0.00    -0.335 C  
HETATM   18  C   UNL     1     -11.218   9.834  70.517  1.00  0.00    -0.315 C  
BRANCH  13  19
HETATM   19  C   UNL     1     -11.260  10.162  67.336  1.00  0.00    -0.002 C  
BRANCH  19  20
HETATM   20  C   UNL     1     -10.063   9.845  66.415  1.00  0.00    -0.240 C  
BRANCH  20  21
HETATM   21  O   UNL     1      -9.758   8.459  66.298  1.00  0.00    -0.238 OA 
BRANCH  21  22
HETATM   22  C   UNL     1     -10.709   7.628  67.017  1.00  0.00    -0.270 C  
BRANCH  22  23
HETATM   23  C   UNL     1     -10.333   6.145  66.998  1.00  0.00    -0.295 C  
BRANCH  23  24
HETATM   24  C   UNL     1      -9.177   5.699  67.912  1.00  0.00    -0.108 C  
HETATM   25  C   UNL     1      -9.133   4.145  67.908  1.00  0.00    -0.168 C  
HETATM   26  C   UNL     1      -9.646   3.472  69.189  1.00  0.00    -0.149 C  
HETATM   27  C   UNL     1      -9.605   4.419  70.389  1.00  0.00    -0.266 C  
HETATM   28  C   UNL     1     -10.537   5.632  70.101  1.00  0.00    -0.380 C  
HETATM   29  C   UNL     1      -9.300   6.232  69.363  1.00  0.00    -0.145 C  
HETATM   30  C   UNL     1      -8.425   5.474  70.472  1.00  0.00    -0.123 C  
HETATM   31  C   UNL     1      -7.005   5.039  70.099  1.00  0.00    -0.052 C  
HETATM   32  C   UNL     1      -8.324   6.139  71.864  1.00  0.00    -0.118 C  
ENDBRANCH  23  24
ENDBRANCH  22  23
ENDBRANCH  21  22
ENDBRANCH  20  21
ENDBRANCH  19  20
ENDBRANCH  13  19
ENDBRANCH  12  13
ENDBRANCH   7  12
ENDBRANCH   2   3
TORSDOF 10
ENDMDL
MODEL      191
REMARK 921   NORMALIZED FREE ENERGY PREDICTED BY IDOCK:   -3.72 KCAL/MOL
REMARK 922        TOTAL FREE ENERGY PREDICTED BY IDOCK:   -7.18 KCAL/MOL
REMARK 923 INTER-LIGAND FREE ENERGY PREDICTED BY IDOCK:   -6.53 KCAL/MOL
REMARK 924 INTRA-LIGAND FREE ENERGY PREDICTED BY IDOCK:   -0.65 KCAL/MOL
REMARK 927      BINDING AFFINITY PREDICTED BY RF-SCORE:    0.00 PKD
ROOT
HETATM    1  C   UNL     1      -5.358  10.677  70.971  1.00  0.00    -0.096 C  
HETATM    2  O   UNL     1      -6.067  11.884  70.733  1.00  0.00    -0.323 OA 
ENDROOT
BRANCH   2   3
HETATM    3  C   UNL     1      -6.574  12.101  69.483  1.00  0.00    -0.065 A  
HETATM    4  C   UNL     1      -7.138  13.276  68.966  1.00  0.00    -0.044 A  
HETATM    5  C   UNL     1      -6.569  10.948  68.690  1.00  0.00    -0.057 A  
HETATM    6  C   UNL     1      -7.698  13.256  67.681  1.00  0.00    -0.171 A  
HETATM    7  C   UNL     1      -7.826  12.062  66.936  1.00  0.00    -0.095 A  
HETATM    8 BR   UNL     1      -6.993   9.318  66.433  1.00  0.00    -0.084 Br 
HETATM    9  C   UNL     1      -7.161  10.929  67.426  1.00  0.00    -0.094 A  
BRANCH   4  10
HETATM   10  O   UNL     1      -7.113  14.420  69.712  1.00  0.00    -0.109 OA 
HETATM   11  C   UNL     1      -8.181  15.338  69.474  1.00  0.00    -0.188 C  
ENDBRANCH   4  10
BRANCH   7  12
HETATM   12  C   UNL     1      -8.776  12.026  65.748  1.00  0.00     0.289 C  
BRANCH  12  13
HETATM   13  N   UNL     1     -10.242  12.549  66.063  1.00  0.00    -0.246 N  
HETATM   14  O   UNL     1     -12.459  14.120  64.874  1.00  0.00    -0.511 OA 
HETATM   15  C   UNL     1     -10.286  14.111  66.000  1.00  0.00    -0.308 C  
HETATM   16  C   UNL     1     -11.739  14.627  65.998  1.00  0.00    -0.306 C  
HETATM   17  C   UNL     1     -11.158  12.053  64.902  1.00  0.00    -0.316 C  
HETATM   18  C   UNL     1     -12.546  12.695  64.908  1.00  0.00    -0.450 C  
BRANCH  13  19
HETATM   19  C   UNL     1     -10.734  12.033  67.459  1.00  0.00    -0.226 C  
BRANCH  19  20
HETATM   20  C   UNL     1     -11.286  10.596  67.363  1.00  0.00    -0.205 C  
BRANCH  20  21
HETATM   21  O   UNL     1     -10.311   9.609  67.042  1.00  0.00    -0.234 OA 
BRANCH  21  22
HETATM   22  C   UNL     1     -10.410   8.443  67.904  1.00  0.00    -0.221 C  
BRANCH  22  23
HETATM   23  C   UNL     1     -10.414   8.805  69.392  1.00  0.00    -0.228 C  
BRANCH  23  24
HETATM   24  C   UNL     1     -10.762   7.684  70.389  1.00  0.00    -0.241 C  
HETATM   25  C   UNL     1     -12.028   8.120  71.179  1.00  0.00    -0.296 C  
HETATM   26  C   UNL     1     -11.778   8.551  72.631  1.00  0.00    -0.301 C  
HETATM   27  C   UNL     1     -10.466   7.987  73.177  1.00  0.00    -0.252 C  
HETATM   28  C   UNL     1      -9.289   8.540  72.323  1.00  0.00    -0.363 C  
HETATM   29  C   UNL     1      -9.605   7.350  71.365  1.00  0.00    -0.167 C  
HETATM   30  C   UNL     1     -10.009   6.548  72.694  1.00  0.00    -0.185 C  
HETATM   31  C   UNL     1     -11.050   5.432  72.575  1.00  0.00    -0.310 C  
HETATM   32  C   UNL     1      -8.854   5.977  73.549  1.00  0.00    -0.125 C  
ENDBRANCH  23  24
ENDBRANCH  22  23
ENDBRANCH  21  22
ENDBRANCH  20  21
ENDBRANCH  19  20
ENDBRANCH  13  19
ENDBRANCH  12  13
ENDBRANCH   7  12
ENDBRANCH   2   3
TORSDOF 10
ENDMDL
MODEL      192
REMARK 921   NORMALIZED FREE ENERGY PREDICTED BY IDOCK:   -3.70 KCAL/MOL
REMARK 922        TOTAL FREE ENERGY PREDICTED BY IDOCK:   -7.14 KCAL/MOL
REMARK 923 INTER-LIGAND FREE ENERGY PREDICTED BY IDOCK:   -6.94 KCAL/MOL
REMARK 924 INTRA-LIGAND FREE ENERGY PREDICTED BY IDOCK:   -0.20 KCAL/MOL
REMARK 927      BINDING AFFINITY PREDICTED BY RF-SCORE:    0.00 PKD
ROOT
HETATM    1  C   UNL     1      -9.139   2.869  68.788  1.00  0.00    -0.153 C  
HETATM    2  O   UNL     1      -9.858   3.820  69.559  1.00  0.00    -0.149 OA 
ENDROOT
BRANCH   2   3
HETATM    3  C   UNL     1      -9.877   5.118  69.131  1.00  0.00    -0.187 A  
HETATM    4  C   UNL     1     -10.451   6.232  69.760  1.00  0.00    -0.232 A  
HETATM    5  C   UNL     1      -9.300   5.278  67.866  1.00  0.00    -0.131 A  
HETATM    6  C   UNL     1     -10.449   7.466  69.096  1.00  0.00    -0.217 A  
HETATM    7  C   UNL     1     -10.000   7.602  67.763  1.00  0.00    -0.219 A  
HETATM    8 BR   UNL     1      -8.432   6.588  65.530  1.00  0.00    -0.109 Br 
HETATM    9  C   UNL     1      -9.337   6.504  67.198  1.00  0.00    -0.126 A  
BRANCH   4  10
HETATM   10  O   UNL     1     -10.979   6.100  71.013  1.00  0.00    -0.267 OA 
HETATM   11  C   UNL     1     -12.001   7.037  71.355  1.00  0.00    -0.340 C  
ENDBRANCH   4  10
BRANCH   7  12
HETATM   12  C   UNL     1     -10.381   8.845  66.974  1.00  0.00    -0.269 C  
BRANCH  12  13
HETATM   13  N   UNL     1      -9.351  10.047  67.102  1.00  0.00    -0.148 N  
HETATM   14  O   UNL     1      -6.760  10.769  68.353  1.00  0.00    -0.058 OA 
HETATM   15  C   UNL     1      -9.174  10.452  68.602  1.00  0.00    -0.164 C  
HETATM   16  C   UNL     1      -7.969  11.396  68.786  1.00  0.00    -0.122 C  
HETATM   17  C   UNL     1      -7.962   9.502  66.646  1.00  0.00    -0.108 C  
HETATM   18  C   UNL     1      -6.804  10.451  66.962  1.00  0.00    -0.085 C  
BRANCH  13  19
HETATM   19  C   UNL     1      -9.810  11.274  66.243  1.00  0.00    -0.214 C  
BRANCH  19  20
HETATM   20  C   UNL     1     -11.244  11.709  66.609  1.00  0.00    -0.299 C  
BRANCH  20  21
HETATM   21  O   UNL     1     -11.384  13.096  66.902  1.00  0.00    -0.293 OA 
BRANCH  21  22
HETATM   22  C   UNL     1     -11.047  13.399  68.283  1.00  0.00    -0.262 C  
BRANCH  22  23
HETATM   23  C   UNL     1     -12.281  13.632  69.157  1.00  0.00    -0.265 C  
BRANCH  23  24
HETATM   24  C   UNL     1     -12.054  13.786  70.672  1.00  0.00    -0.405 C  
HETATM   25  C   UNL     1     -12.843  12.658  71.394  1.00  0.00    -0.358 C  
HETATM   26  C   UNL     1     -14.118  13.111  72.119  1.00  0.00    -0.280 C  
HETATM   27  C   UNL     1     -14.094  14.606  72.439  1.00  0.00    -0.542 C  
HETATM   28  C   UNL     1     -14.015  15.402  71.103  1.00  0.00    -0.410 C  
HETATM   29  C   UNL     1     -12.476  15.175  71.218  1.00  0.00    -0.411 C  
HETATM   30  C   UNL     1     -12.703  15.274  72.802  1.00  0.00    -0.495 C  
HETATM   31  C   UNL     1     -11.731  14.526  73.718  1.00  0.00     0.352 C  
HETATM   32  C   UNL     1     -12.866  16.689  73.402  1.00  0.00     0.028 C  
ENDBRANCH  23  24
ENDBRANCH  22  23
ENDBRANCH  21  22
ENDBRANCH  20  21
ENDBRANCH  19  20
ENDBRANCH  13  19
ENDBRANCH  12  13
ENDBRANCH   7  12
ENDBRANCH   2   3
TORSDOF 10
ENDMDL
MODEL      193
REMARK 921   NORMALIZED FREE ENERGY PREDICTED BY IDOCK:   -3.69 KCAL/MOL
REMARK 922        TOTAL FREE ENERGY PREDICTED BY IDOCK:   -7.12 KCAL/MOL
REMARK 923 INTER-LIGAND FREE ENERGY PREDICTED BY IDOCK:   -6.37 KCAL/MOL
REMARK 924 INTRA-LIGAND FREE ENERGY PREDICTED BY IDOCK:   -0.76 KCAL/MOL
REMARK 927      BINDING AFFINITY PREDICTED BY RF-SCORE:    0.00 PKD
ROOT
HETATM    1  C   UNL     1     -14.165   7.661  72.182  1.00  0.00    -0.185 C  
HETATM    2  O   UNL     1     -13.397   8.839  72.380  1.00  0.00    -0.400 OA 
ENDROOT
BRANCH   2   3
HETATM    3  C   UNL     1     -12.163   8.914  71.796  1.00  0.00    -0.359 A  
HETATM    4  C   UNL     1     -10.984   8.255  72.172  1.00  0.00    -0.326 A  
HETATM    5  C   UNL     1     -12.118   9.835  70.744  1.00  0.00    -0.364 A  
HETATM    6  C   UNL     1      -9.792   8.554  71.496  1.00  0.00    -0.309 A  
HETATM    7  C   UNL     1      -9.712   9.585  70.534  1.00  0.00    -0.325 A  
HETATM    8 BR   UNL     1     -11.034  11.350  68.633  1.00  0.00    -0.298 Br 
HETATM    9  C   UNL     1     -10.919  10.152  70.102  1.00  0.00    -0.316 A  
BRANCH   4  10
HETATM   10  O   UNL     1     -11.021   7.323  73.169  1.00  0.00    -0.337 OA 
HETATM   11  C   UNL     1     -11.120   5.964  72.742  1.00  0.00    -0.281 C  
ENDBRANCH   4  10
BRANCH   7  12
HETATM   12  C   UNL     1      -8.346  10.123  70.132  1.00  0.00     0.089 C  
BRANCH  12  13
HETATM   13  N   UNL     1      -7.538   9.186  69.137  1.00  0.00    -0.072 N  
HETATM   14  O   UNL     1      -7.418   6.392  68.148  1.00  0.00    -0.090 OA 
HETATM   15  C   UNL     1      -6.888   7.997  69.918  1.00  0.00    -0.041 C  
HETATM   16  C   UNL     1      -6.361   6.918  68.951  1.00  0.00    -0.028 C  
HETATM   17  C   UNL     1      -8.582   8.539  68.176  1.00  0.00    -0.138 C  
HETATM   18  C   UNL     1      -8.006   7.403  67.329  1.00  0.00    -0.115 C  
BRANCH  13  19
HETATM   19  C   UNL     1      -6.450  10.002  68.358  1.00  0.00    -0.054 C  
BRANCH  19  20
HETATM   20  C   UNL     1      -5.712  10.985  69.289  1.00  0.00    -0.042 C  
BRANCH  20  21
HETATM   21  O   UNL     1      -5.225  12.158  68.644  1.00  0.00    -0.050 OA 
BRANCH  21  22
HETATM   22  C   UNL     1      -6.125  12.621  67.602  1.00  0.00    -0.147 C  
BRANCH  22  23
HETATM   23  C   UNL     1      -7.347  13.357  68.157  1.00  0.00    -0.117 C  
BRANCH  23  24
HETATM   24  C   UNL     1      -7.172  14.844  68.517  1.00  0.00    -0.113 C  
HETATM   25  C   UNL     1      -8.264  15.218  69.558  1.00  0.00    -0.188 C  
HETATM   26  C   UNL     1      -9.417  16.076  69.018  1.00  0.00    -0.243 C  
HETATM   27  C   UNL     1      -9.025  16.823  67.743  1.00  0.00    -0.216 C  
HETATM   28  C   UNL     1      -8.670  15.783  66.642  1.00  0.00    -0.323 C  
HETATM   29  C   UNL     1      -7.250  15.787  67.289  1.00  0.00    -0.254 C  
HETATM   30  C   UNL     1      -7.532  17.334  67.601  1.00  0.00    -0.187 C  
HETATM   31  C   UNL     1      -6.838  17.964  68.812  1.00  0.00    -0.255 C  
HETATM   32  C   UNL     1      -7.356  18.331  66.433  1.00  0.00    -0.283 C  
ENDBRANCH  23  24
ENDBRANCH  22  23
ENDBRANCH  21  22
ENDBRANCH  20  21
ENDBRANCH  19  20
ENDBRANCH  13  19
ENDBRANCH  12  13
ENDBRANCH   7  12
ENDBRANCH   2   3
TORSDOF 10
ENDMDL
MODEL      194
REMARK 921   NORMALIZED FREE ENERGY PREDICTED BY IDOCK:   -3.69 KCAL/MOL
REMARK 922        TOTAL FREE ENERGY PREDICTED BY IDOCK:   -7.12 KCAL/MOL
REMARK 923 INTER-LIGAND FREE ENERGY PREDICTED BY IDOCK:   -6.50 KCAL/MOL
REMARK 924 INTRA-LIGAND FREE ENERGY PREDICTED BY IDOCK:   -0.62 KCAL/MOL
REMARK 927      BINDING AFFINITY PREDICTED BY RF-SCORE:    0.00 PKD
ROOT
HETATM    1  C   UNL     1     -10.631  16.710  65.346  1.00  0.00    -0.237 C  
HETATM    2  O   UNL     1      -9.943  15.985  66.354  1.00  0.00    -0.262 OA 
ENDROOT
BRANCH   2   3
HETATM    3  C   UNL     1     -10.299  14.684  66.574  1.00  0.00    -0.282 A  
HETATM    4  C   UNL     1     -10.508  14.036  67.799  1.00  0.00    -0.236 A  
HETATM    5  C   UNL     1     -10.378  13.939  65.392  1.00  0.00    -0.364 A  
HETATM    6  C   UNL     1     -10.769  12.659  67.805  1.00  0.00    -0.239 A  
HETATM    7  C   UNL     1     -10.706  11.876  66.631  1.00  0.00    -0.291 A  
HETATM    8 BR   UNL     1     -10.775  11.704  63.725  1.00  0.00    -0.526 Br 
HETATM    9  C   UNL     1     -10.602  12.561  65.412  1.00  0.00    -0.281 A  
BRANCH   4  10
HETATM   10  O   UNL     1     -10.476  14.758  68.958  1.00  0.00    -0.238 OA 
HETATM   11  C   UNL     1      -9.191  15.244  69.349  1.00  0.00    -0.233 C  
ENDBRANCH   4  10
BRANCH   7  12
HETATM   12  C   UNL     1     -10.605  10.363  66.750  1.00  0.00    -0.205 C  
BRANCH  12  13
HETATM   13  N   UNL     1      -9.120   9.801  66.747  1.00  0.00    -0.144 N  
HETATM   14  O   UNL     1      -6.388  10.437  67.712  1.00  0.00    -0.059 OA 
HETATM   15  C   UNL     1      -8.154  10.823  66.063  1.00  0.00    -0.158 C  
HETATM   16  C   UNL     1      -6.680  10.451  66.314  1.00  0.00    -0.112 C  
HETATM   17  C   UNL     1      -8.663   9.723  68.237  1.00  0.00    -0.119 C  
HETATM   18  C   UNL     1      -7.166   9.457  68.400  1.00  0.00    -0.076 C  
BRANCH  13  19
HETATM   19  C   UNL     1      -9.049   8.406  66.038  1.00  0.00    -0.183 C  
BRANCH  19  20
HETATM   20  C   UNL     1      -9.873   7.347  66.799  1.00  0.00    -0.220 C  
BRANCH  20  21
HETATM   21  O   UNL     1      -9.374   6.019  66.691  1.00  0.00    -0.136 OA 
BRANCH  21  22
HETATM   22  C   UNL     1      -8.555   5.648  67.833  1.00  0.00    -0.101 C  
BRANCH  22  23
HETATM   23  C   UNL     1      -9.386   5.240  69.051  1.00  0.00    -0.171 C  
BRANCH  23  24
HETATM   24  C   UNL     1      -9.346   6.171  70.277  1.00  0.00    -0.172 C  
HETATM   25  C   UNL     1      -7.866   6.583  70.519  1.00  0.00    -0.106 C  
HETATM   26  C   UNL     1      -7.188   5.913  71.722  1.00  0.00    -0.091 C  
HETATM   27  C   UNL     1      -8.207   5.395  72.738  1.00  0.00    -0.109 C  
HETATM   28  C   UNL     1      -9.096   4.318  72.050  1.00  0.00    -0.158 C  
HETATM   29  C   UNL     1      -9.944   5.530  71.555  1.00  0.00    -0.229 C  
HETATM   30  C   UNL     1      -9.544   6.220  72.947  1.00  0.00    -0.155 C  
HETATM   31  C   UNL     1      -9.479   7.749  73.002  1.00  0.00    -0.311 C  
HETATM   32  C   UNL     1     -10.325   5.772  74.203  1.00  0.00    -0.295 C  
ENDBRANCH  23  24
ENDBRANCH  22  23
ENDBRANCH  21  22
ENDBRANCH  20  21
ENDBRANCH  19  20
ENDBRANCH  13  19
ENDBRANCH  12  13
ENDBRANCH   7  12
ENDBRANCH   2   3
TORSDOF 10
ENDMDL
MODEL      195
REMARK 921   NORMALIZED FREE ENERGY PREDICTED BY IDOCK:   -3.68 KCAL/MOL
REMARK 922        TOTAL FREE ENERGY PREDICTED BY IDOCK:   -7.10 KCAL/MOL
REMARK 923 INTER-LIGAND FREE ENERGY PREDICTED BY IDOCK:   -7.00 KCAL/MOL
REMARK 924 INTRA-LIGAND FREE ENERGY PREDICTED BY IDOCK:   -0.10 KCAL/MOL
REMARK 927      BINDING AFFINITY PREDICTED BY RF-SCORE:    0.00 PKD
ROOT
HETATM    1  C   UNL     1      -7.901   8.368  73.868  1.00  0.00    -0.135 C  
HETATM    2  O   UNL     1      -8.045   7.558  72.710  1.00  0.00    -0.099 OA 
ENDROOT
BRANCH   2   3
HETATM    3  C   UNL     1      -8.926   7.958  71.746  1.00  0.00    -0.132 A  
HETATM    4  C   UNL     1      -8.736   7.997  70.358  1.00  0.00    -0.136 A  
HETATM    5  C   UNL     1     -10.124   8.449  72.278  1.00  0.00    -0.382 A  
HETATM    6  C   UNL     1      -9.740   8.544  69.547  1.00  0.00    -0.176 A  
HETATM    7  C   UNL     1     -10.885   9.172  70.088  1.00  0.00    -0.269 A  
HETATM    8 BR   UNL     1     -12.710   9.562  72.322  1.00  0.00    -0.337 Br 
HETATM    9  C   UNL     1     -11.102   9.025  71.465  1.00  0.00    -0.349 A  
BRANCH   4  10
HETATM   10  O   UNL     1      -7.591   7.483  69.820  1.00  0.00    -0.089 OA 
HETATM   11  C   UNL     1      -6.424   8.295  69.957  1.00  0.00    -0.035 C  
ENDBRANCH   4  10
BRANCH   7  12
HETATM   12  C   UNL     1     -11.724  10.079  69.201  1.00  0.00     0.135 C  
BRANCH  12  13
HETATM   13  N   UNL     1     -10.885  11.110  68.333  1.00  0.00    -0.190 N  
HETATM   14  O   UNL     1      -8.289  11.398  66.927  1.00  0.00    -0.147 OA 
HETATM   15  C   UNL     1      -9.527  11.433  69.038  1.00  0.00     0.037 C  
HETATM   16  C   UNL     1      -8.570  12.181  68.087  1.00  0.00    -0.177 C  
HETATM   17  C   UNL     1     -10.508  10.381  67.006  1.00  0.00    -0.251 C  
HETATM   18  C   UNL     1      -9.472  11.137  66.172  1.00  0.00    -0.204 C  
BRANCH  13  19
HETATM   19  C   UNL     1     -11.703  12.420  68.071  1.00  0.00    -0.356 C  
BRANCH  19  20
HETATM   20  C   UNL     1     -11.838  13.263  69.356  1.00  0.00    -0.329 C  
BRANCH  20  21
HETATM   21  O   UNL     1     -12.528  14.496  69.184  1.00  0.00    -0.175 OA 
BRANCH  21  22
HETATM   22  C   UNL     1     -11.679  15.642  69.466  1.00  0.00    -0.370 C  
BRANCH  22  23
HETATM   23  C   UNL     1     -10.557  15.814  68.440  1.00  0.00    -0.264 C  
BRANCH  23  24
HETATM   24  C   UNL     1     -10.256  17.245  67.957  1.00  0.00    -0.332 C  
HETATM   25  C   UNL     1      -9.892  17.176  66.448  1.00  0.00    -0.312 C  
HETATM   26  C   UNL     1      -8.405  17.368  66.123  1.00  0.00    -0.217 C  
HETATM   27  C   UNL     1      -7.663  18.095  67.245  1.00  0.00    -0.226 C  
HETATM   28  C   UNL     1      -7.745  17.235  68.539  1.00  0.00    -0.261 C  
HETATM   29  C   UNL     1      -9.121  17.937  68.755  1.00  0.00    -0.213 C  
HETATM   30  C   UNL     1      -8.441  19.211  68.058  1.00  0.00    -0.345 C  
HETATM   31  C   UNL     1      -9.346  20.191  67.306  1.00  0.00    -0.519 C  
HETATM   32  C   UNL     1      -7.499  20.071  68.931  1.00  0.00    -0.146 C  
ENDBRANCH  23  24
ENDBRANCH  22  23
ENDBRANCH  21  22
ENDBRANCH  20  21
ENDBRANCH  19  20
ENDBRANCH  13  19
ENDBRANCH  12  13
ENDBRANCH   7  12
ENDBRANCH   2   3
TORSDOF 10
ENDMDL
MODEL      196
REMARK 921   NORMALIZED FREE ENERGY PREDICTED BY IDOCK:   -3.68 KCAL/MOL
REMARK 922        TOTAL FREE ENERGY PREDICTED BY IDOCK:   -7.10 KCAL/MOL
REMARK 923 INTER-LIGAND FREE ENERGY PREDICTED BY IDOCK:   -7.51 KCAL/MOL
REMARK 924 INTRA-LIGAND FREE ENERGY PREDICTED BY IDOCK:    0.41 KCAL/MOL
REMARK 927      BINDING AFFINITY PREDICTED BY RF-SCORE:    0.00 PKD
ROOT
HETATM    1  C   UNL     1      -7.137   5.090  66.982  1.00  0.00    -0.072 C  
HETATM    2  O   UNL     1      -7.080   6.342  67.649  1.00  0.00    -0.076 OA 
ENDROOT
BRANCH   2   3
HETATM    3  C   UNL     1      -8.157   7.177  67.553  1.00  0.00    -0.113 A  
HETATM    4  C   UNL     1      -8.436   8.124  66.558  1.00  0.00    -0.130 A  
HETATM    5  C   UNL     1      -9.017   7.079  68.653  1.00  0.00    -0.130 A  
HETATM    6  C   UNL     1      -9.553   8.957  66.704  1.00  0.00    -0.281 A  
HETATM    7  C   UNL     1     -10.339   8.963  67.878  1.00  0.00    -0.286 A  
HETATM    8 BR   UNL     1     -11.232   7.623  70.303  1.00  0.00    -0.183 Br 
HETATM    9  C   UNL     1     -10.106   7.939  68.807  1.00  0.00    -0.193 A  
BRANCH   4  10
HETATM   10  O   UNL     1      -7.630   8.202  65.458  1.00  0.00    -0.081 OA 
HETATM   11  C   UNL     1      -8.030   7.410  64.339  1.00  0.00    -0.109 C  
ENDBRANCH   4  10
BRANCH   7  12
HETATM   12  C   UNL     1     -11.272  10.135  68.143  1.00  0.00    -0.180 C  
BRANCH  12  13
HETATM   13  N   UNL     1     -10.787  11.514  67.525  1.00  0.00    -0.222 N  
HETATM   14  O   UNL     1     -11.545  13.561  65.516  1.00  0.00    -0.310 OA 
HETATM   15  C   UNL     1     -10.562  11.369  65.984  1.00  0.00    -0.266 C  
HETATM   16  C   UNL     1     -10.389  12.747  65.314  1.00  0.00    -0.296 C  
HETATM   17  C   UNL     1     -11.967  12.522  67.685  1.00  0.00    -0.221 C  
HETATM   18  C   UNL     1     -11.767  13.821  66.903  1.00  0.00    -0.395 C  
BRANCH  13  19
HETATM   19  C   UNL     1      -9.484  12.019  68.234  1.00  0.00    -0.199 C  
BRANCH  19  20
HETATM   20  C   UNL     1      -8.284  12.023  67.265  1.00  0.00    -0.173 C  
BRANCH  20  21
HETATM   21  O   UNL     1      -7.404  13.132  67.417  1.00  0.00    -0.151 OA 
BRANCH  21  22
HETATM   22  C   UNL     1      -8.112  14.340  67.809  1.00  0.00    -0.170 C  
BRANCH  22  23
HETATM   23  C   UNL     1      -7.529  15.602  67.168  1.00  0.00    -0.253 C  
BRANCH  23  24
HETATM   24  C   UNL     1      -8.054  16.957  67.676  1.00  0.00    -0.193 C  
HETATM   25  C   UNL     1      -8.926  16.693  68.936  1.00  0.00    -0.239 C  
HETATM   26  C   UNL     1     -10.440  16.834  68.726  1.00  0.00    -0.338 C  
HETATM   27  C   UNL     1     -10.771  17.695  67.506  1.00  0.00    -0.294 C  
HETATM   28  C   UNL     1     -10.191  17.008  66.236  1.00  0.00    -0.336 C  
HETATM   29  C   UNL     1      -8.866  17.740  66.612  1.00  0.00    -0.282 C  
HETATM   30  C   UNL     1      -9.813  18.910  67.164  1.00  0.00    -0.368 C  
HETATM   31  C   UNL     1      -9.286  19.791  68.300  1.00  0.00    -0.388 C  
HETATM   32  C   UNL     1     -10.427  19.870  66.118  1.00  0.00    -0.581 C  
ENDBRANCH  23  24
ENDBRANCH  22  23
ENDBRANCH  21  22
ENDBRANCH  20  21
ENDBRANCH  19  20
ENDBRANCH  13  19
ENDBRANCH  12  13
ENDBRANCH   7  12
ENDBRANCH   2   3
TORSDOF 10
ENDMDL
MODEL      197
REMARK 921   NORMALIZED FREE ENERGY PREDICTED BY IDOCK:   -3.68 KCAL/MOL
REMARK 922        TOTAL FREE ENERGY PREDICTED BY IDOCK:   -7.10 KCAL/MOL
REMARK 923 INTER-LIGAND FREE ENERGY PREDICTED BY IDOCK:   -5.45 KCAL/MOL
REMARK 924 INTRA-LIGAND FREE ENERGY PREDICTED BY IDOCK:   -1.65 KCAL/MOL
REMARK 927      BINDING AFFINITY PREDICTED BY RF-SCORE:    0.00 PKD
ROOT
HETATM    1  C   UNL     1      -9.320  11.142  63.074  1.00  0.00    -0.350 C  
HETATM    2  O   UNL     1      -9.361  10.806  64.454  1.00  0.00    -0.214 OA 
ENDROOT
BRANCH   2   3
HETATM    3  C   UNL     1      -9.146   9.504  64.809  1.00  0.00    -0.218 A  
HETATM    4  C   UNL     1      -9.608   8.827  65.946  1.00  0.00    -0.184 A  
HETATM    5  C   UNL     1      -8.289   8.837  63.926  1.00  0.00    -0.145 A  
HETATM    6  C   UNL     1      -9.183   7.511  66.175  1.00  0.00    -0.156 A  
HETATM    7  C   UNL     1      -8.207   6.884  65.367  1.00  0.00    -0.134 A  
HETATM    8 BR   UNL     1      -6.759   6.735  62.846  1.00  0.00    -0.044 Br 
HETATM    9  C   UNL     1      -7.843   7.540  64.182  1.00  0.00    -0.130 A  
BRANCH   4  10
HETATM   10  O   UNL     1     -10.477   9.450  66.795  1.00  0.00    -0.243 OA 
HETATM   11  C   UNL     1      -9.881  10.274  67.797  1.00  0.00    -0.169 C  
ENDBRANCH   4  10
BRANCH   7  12
HETATM   12  C   UNL     1      -7.505   5.636  65.882  1.00  0.00    -0.078 C  
BRANCH  12  13
HETATM   13  N   UNL     1      -8.185   4.271  65.439  1.00  0.00    -0.108 N  
HETATM   14  O   UNL     1      -8.590   2.532  63.070  1.00  0.00    -0.084 OA 
HETATM   15  C   UNL     1      -9.247   4.530  64.322  1.00  0.00    -0.117 C  
HETATM   16  C   UNL     1      -9.697   3.210  63.664  1.00  0.00    -0.132 C  
HETATM   17  C   UNL     1      -7.070   3.408  64.770  1.00  0.00    -0.061 C  
HETATM   18  C   UNL     1      -7.611   2.173  64.047  1.00  0.00    -0.060 C  
BRANCH  13  19
HETATM   19  C   UNL     1      -8.833   3.543  66.666  1.00  0.00    -0.134 C  
BRANCH  19  20
HETATM   20  C   UNL     1      -8.553   4.302  67.980  1.00  0.00    -0.096 C  
BRANCH  20  21
HETATM   21  O   UNL     1      -7.526   3.732  68.785  1.00  0.00    -0.054 OA 
BRANCH  21  22
HETATM   22  C   UNL     1      -6.976   4.691  69.728  1.00  0.00    -0.052 C  
BRANCH  22  23
HETATM   23  C   UNL     1      -7.653   6.062  69.643  1.00  0.00    -0.089 C  
BRANCH  23  24
HETATM   24  C   UNL     1      -8.422   6.546  70.886  1.00  0.00    -0.134 C  
HETATM   25  C   UNL     1      -9.133   5.318  71.520  1.00  0.00    -0.165 C  
HETATM   26  C   UNL     1     -10.652   5.258  71.309  1.00  0.00    -0.242 C  
HETATM   27  C   UNL     1     -11.240   6.633  70.989  1.00  0.00    -0.349 C  
HETATM   28  C   UNL     1     -10.610   7.150  69.663  1.00  0.00    -0.249 C  
HETATM   29  C   UNL     1      -9.452   7.663  70.574  1.00  0.00    -0.164 C  
HETATM   30  C   UNL     1     -10.590   7.905  71.676  1.00  0.00    -0.267 C  
HETATM   31  C   UNL     1     -10.192   7.836  73.153  1.00  0.00    -0.398 C  
HETATM   32  C   UNL     1     -11.463   9.171  71.520  1.00  0.00    -0.437 C  
ENDBRANCH  23  24
ENDBRANCH  22  23
ENDBRANCH  21  22
ENDBRANCH  20  21
ENDBRANCH  19  20
ENDBRANCH  13  19
ENDBRANCH  12  13
ENDBRANCH   7  12
ENDBRANCH   2   3
TORSDOF 10
ENDMDL
MODEL      198
REMARK 921   NORMALIZED FREE ENERGY PREDICTED BY IDOCK:   -3.66 KCAL/MOL
REMARK 922        TOTAL FREE ENERGY PREDICTED BY IDOCK:   -7.07 KCAL/MOL
REMARK 923 INTER-LIGAND FREE ENERGY PREDICTED BY IDOCK:   -6.76 KCAL/MOL
REMARK 924 INTRA-LIGAND FREE ENERGY PREDICTED BY IDOCK:   -0.31 KCAL/MOL
REMARK 927      BINDING AFFINITY PREDICTED BY RF-SCORE:    0.00 PKD
ROOT
HETATM    1  C   UNL     1     -10.936   6.070  72.825  1.00  0.00    -0.264 C  
HETATM    2  O   UNL     1     -11.927   6.547  71.926  1.00  0.00    -0.323 OA 
ENDROOT
BRANCH   2   3
HETATM    3  C   UNL     1     -11.518   7.216  70.806  1.00  0.00    -0.305 A  
HETATM    4  C   UNL     1     -10.889   6.697  69.666  1.00  0.00    -0.286 A  
HETATM    5  C   UNL     1     -11.712   8.599  70.902  1.00  0.00    -0.287 A  
HETATM    6  C   UNL     1     -10.455   7.579  68.667  1.00  0.00    -0.207 A  
HETATM    7  C   UNL     1     -10.516   8.982  68.823  1.00  0.00    -0.230 A  
HETATM    8 BR   UNL     1     -11.663  11.310  70.143  1.00  0.00    -0.420 Br 
HETATM    9  C   UNL     1     -11.243   9.471  69.918  1.00  0.00    -0.178 A  
BRANCH   4  10
HETATM   10  O   UNL     1     -10.731   5.347  69.540  1.00  0.00    -0.295 OA 
HETATM   11  C   UNL     1      -9.526   4.921  68.901  1.00  0.00    -0.143 C  
ENDBRANCH   4  10
BRANCH   7  12
HETATM   12  C   UNL     1      -9.688   9.869  67.906  1.00  0.00    -0.140 C  
BRANCH  12  13
HETATM   13  N   UNL     1      -8.187   9.391  67.709  1.00  0.00    -0.114 N  
HETATM   14  O   UNL     1      -6.418   7.043  68.113  1.00  0.00    -0.043 OA 
HETATM   15  C   UNL     1      -7.564   8.977  69.082  1.00  0.00    -0.073 C  
HETATM   16  C   UNL     1      -6.230   8.229  68.887  1.00  0.00    -0.044 C  
HETATM   17  C   UNL     1      -8.237   8.084  66.858  1.00  0.00    -0.115 C  
HETATM   18  C   UNL     1      -6.899   7.344  66.802  1.00  0.00    -0.066 C  
BRANCH  13  19
HETATM   19  C   UNL     1      -7.328  10.506  67.021  1.00  0.00    -0.099 C  
BRANCH  19  20
HETATM   20  C   UNL     1      -7.366  11.821  67.828  1.00  0.00    -0.106 C  
BRANCH  20  21
HETATM   21  O   UNL     1      -6.298  12.719  67.546  1.00  0.00    -0.142 OA 
BRANCH  21  22
HETATM   22  C   UNL     1      -6.594  14.074  67.981  1.00  0.00    -0.147 C  
BRANCH  22  23
HETATM   23  C   UNL     1      -8.007  14.218  68.551  1.00  0.00    -0.145 C  
BRANCH  23  24
HETATM   24  C   UNL     1      -8.533  15.647  68.780  1.00  0.00    -0.192 C  
HETATM   25  C   UNL     1      -9.713  15.568  69.790  1.00  0.00    -0.247 C  
HETATM   26  C   UNL     1     -11.109  15.766  69.183  1.00  0.00    -0.283 C  
HETATM   27  C   UNL     1     -11.052  16.507  67.847  1.00  0.00    -0.229 C  
HETATM   28  C   UNL     1     -10.227  15.655  66.838  1.00  0.00    -0.281 C  
HETATM   29  C   UNL     1      -8.986  16.352  67.476  1.00  0.00    -0.197 C  
HETATM   30  C   UNL     1      -9.944  17.624  67.654  1.00  0.00    -0.323 C  
HETATM   31  C   UNL     1      -9.652  18.593  68.803  1.00  0.00    -0.383 C  
HETATM   32  C   UNL     1     -10.196  18.496  66.403  1.00  0.00    -0.449 C  
ENDBRANCH  23  24
ENDBRANCH  22  23
ENDBRANCH  21  22
ENDBRANCH  20  21
ENDBRANCH  19  20
ENDBRANCH  13  19
ENDBRANCH  12  13
ENDBRANCH   7  12
ENDBRANCH   2   3
TORSDOF 10
ENDMDL
MODEL      199
REMARK 921   NORMALIZED FREE ENERGY PREDICTED BY IDOCK:   -3.63 KCAL/MOL
REMARK 922        TOTAL FREE ENERGY PREDICTED BY IDOCK:   -7.03 KCAL/MOL
REMARK 923 INTER-LIGAND FREE ENERGY PREDICTED BY IDOCK:   -6.33 KCAL/MOL
REMARK 924 INTRA-LIGAND FREE ENERGY PREDICTED BY IDOCK:   -0.69 KCAL/MOL
REMARK 927      BINDING AFFINITY PREDICTED BY RF-SCORE:    0.00 PKD
ROOT
HETATM    1  C   UNL     1     -10.531   5.412  74.229  1.00  0.00    -0.262 C  
HETATM    2  O   UNL     1     -10.094   6.758  74.344  1.00  0.00    -0.344 OA 
ENDROOT
BRANCH   2   3
HETATM    3  C   UNL     1     -10.223   7.576  73.256  1.00  0.00    -0.343 A  
HETATM    4  C   UNL     1      -9.221   8.282  72.577  1.00  0.00    -0.269 A  
HETATM    5  C   UNL     1     -11.556   7.747  72.865  1.00  0.00    -0.301 A  
HETATM    6  C   UNL     1      -9.584   9.153  71.541  1.00  0.00    -0.278 A  
HETATM    7  C   UNL     1     -10.934   9.440  71.238  1.00  0.00    -0.440 A  
HETATM    8 BR   UNL     1     -13.747   8.700  71.374  1.00  0.00    -0.243 Br 
HETATM    9  C   UNL     1     -11.910   8.645  71.856  1.00  0.00    -0.351 A  
BRANCH   4  10
HETATM   10  O   UNL     1      -7.913   8.093  72.920  1.00  0.00    -0.139 OA 
HETATM   11  C   UNL     1      -6.975   8.161  71.845  1.00  0.00    -0.079 C  
ENDBRANCH   4  10
BRANCH   7  12
HETATM   12  C   UNL     1     -11.264  10.663  70.396  1.00  0.00    -0.252 C  
BRANCH  12  13
HETATM   13  N   UNL     1     -10.792  10.566  68.883  1.00  0.00    -0.219 N  
HETATM   14  O   UNL     1      -9.930  12.251  66.598  1.00  0.00    -0.209 OA 
HETATM   15  C   UNL     1     -11.764  11.369  67.958  1.00  0.00    -0.254 C  
HETATM   16  C   UNL     1     -11.171  11.546  66.546  1.00  0.00    -0.259 C  
HETATM   17  C   UNL     1      -9.418  11.299  68.789  1.00  0.00    -0.139 C  
HETATM   18  C   UNL     1      -8.952  11.533  67.351  1.00  0.00    -0.156 C  
BRANCH  13  19
HETATM   19  C   UNL     1     -10.692   9.072  68.422  1.00  0.00    -0.096 C  
BRANCH  19  20
HETATM   20  C   UNL     1      -9.250   8.707  68.011  1.00  0.00    -0.140 C  
BRANCH  20  21
HETATM   21  O   UNL     1      -8.874   7.365  68.303  1.00  0.00    -0.128 OA 
BRANCH  21  22
HETATM   22  C   UNL     1      -9.947   6.624  68.943  1.00  0.00    -0.152 C  
BRANCH  22  23
HETATM   23  C   UNL     1     -10.027   5.170  68.470  1.00  0.00    -0.221 C  
BRANCH  23  24
HETATM   24  C   UNL     1      -8.850   4.246  68.830  1.00  0.00    -0.139 C  
HETATM   25  C   UNL     1      -9.155   2.833  68.255  1.00  0.00    -0.227 C  
HETATM   26  C   UNL     1      -9.557   1.776  69.293  1.00  0.00    -0.076 C  
HETATM   27  C   UNL     1      -9.083   2.146  70.699  1.00  0.00    -0.168 C  
HETATM   28  C   UNL     1      -9.759   3.484  71.119  1.00  0.00    -0.237 C  
HETATM   29  C   UNL     1      -8.579   4.160  70.354  1.00  0.00    -0.107 C  
HETATM   30  C   UNL     1      -7.704   2.912  70.849  1.00  0.00    -0.039 C  
HETATM   31  C   UNL     1      -6.511   2.481  69.991  1.00  0.00    -0.029 C  
HETATM   32  C   UNL     1      -7.200   2.941  72.310  1.00  0.00    -0.039 C  
ENDBRANCH  23  24
ENDBRANCH  22  23
ENDBRANCH  21  22
ENDBRANCH  20  21
ENDBRANCH  19  20
ENDBRANCH  13  19
ENDBRANCH  12  13
ENDBRANCH   7  12
ENDBRANCH   2   3
TORSDOF 10
ENDMDL
MODEL      200
REMARK 921   NORMALIZED FREE ENERGY PREDICTED BY IDOCK:   -3.63 KCAL/MOL
REMARK 922        TOTAL FREE ENERGY PREDICTED BY IDOCK:   -7.03 KCAL/MOL
REMARK 923 INTER-LIGAND FREE ENERGY PREDICTED BY IDOCK:   -6.43 KCAL/MOL
REMARK 924 INTRA-LIGAND FREE ENERGY PREDICTED BY IDOCK:   -0.60 KCAL/MOL
REMARK 927      BINDING AFFINITY PREDICTED BY RF-SCORE:    0.00 PKD
ROOT
HETATM    1  C   UNL     1      -6.461   2.407  67.955  1.00  0.00    -0.029 C  
HETATM    2  O   UNL     1      -6.611   2.370  69.367  1.00  0.00    -0.032 OA 
ENDROOT
BRANCH   2   3
HETATM    3  C   UNL     1      -7.173   3.451  69.987  1.00  0.00    -0.041 A  
HETATM    4  C   UNL     1      -8.362   3.506  70.727  1.00  0.00    -0.065 A  
HETATM    5  C   UNL     1      -6.465   4.635  69.754  1.00  0.00    -0.032 A  
HETATM    6  C   UNL     1      -8.817   4.747  71.195  1.00  0.00    -0.147 A  
HETATM    7  C   UNL     1      -8.187   5.961  70.841  1.00  0.00    -0.125 A  
HETATM    8 BR   UNL     1      -5.830   7.375  69.881  1.00  0.00    -0.024 Br 
HETATM    9  C   UNL     1      -6.946   5.871  70.192  1.00  0.00    -0.069 A  
BRANCH   4  10
HETATM   10  O   UNL     1      -9.041   2.353  70.999  1.00  0.00    -0.084 OA 
HETATM   11  C   UNL     1      -9.960   2.417  72.089  1.00  0.00    -0.160 C  
ENDBRANCH   4  10
BRANCH   7  12
HETATM   12  C   UNL     1      -8.933   7.271  71.038  1.00  0.00    -0.149 C  
BRANCH  12  13
HETATM   13  N   UNL     1      -9.935   7.641  69.863  1.00  0.00    -0.188 N  
HETATM   14  O   UNL     1     -10.337   7.281  66.946  1.00  0.00    -0.265 OA 
HETATM   15  C   UNL     1      -9.196   8.465  68.759  1.00  0.00    -0.143 C  
HETATM   16  C   UNL     1     -10.050   8.574  67.480  1.00  0.00    -0.221 C  
HETATM   17  C   UNL     1     -10.348   6.299  69.182  1.00  0.00    -0.216 C  
HETATM   18  C   UNL     1     -11.097   6.493  67.863  1.00  0.00    -0.255 C  
BRANCH  13  19
HETATM   19  C   UNL     1     -11.175   8.427  70.410  1.00  0.00    -0.213 C  
BRANCH  19  20
HETATM   20  C   UNL     1     -10.800   9.874  70.789  1.00  0.00    -0.317 C  
BRANCH  20  21
HETATM   21  O   UNL     1     -11.841  10.825  70.594  1.00  0.00    -0.318 OA 
BRANCH  21  22
HETATM   22  C   UNL     1     -11.922  11.272  69.213  1.00  0.00    -0.342 C  
BRANCH  22  23
HETATM   23  C   UNL     1     -10.658  12.002  68.751  1.00  0.00    -0.237 C  
BRANCH  23  24
HETATM   24  C   UNL     1     -10.758  13.525  68.550  1.00  0.00    -0.270 C  
HETATM   25  C   UNL     1     -12.127  13.833  67.880  1.00  0.00    -0.322 C  
HETATM   26  C   UNL     1     -12.058  14.218  66.396  1.00  0.00    -0.442 C  
HETATM   27  C   UNL     1     -10.673  14.730  66.001  1.00  0.00    -0.314 C  
HETATM   28  C   UNL     1      -9.635  13.593  66.231  1.00  0.00    -0.254 C  
HETATM   29  C   UNL     1      -9.599  14.110  67.702  1.00  0.00    -0.216 C  
HETATM   30  C   UNL     1      -9.847  15.562  67.068  1.00  0.00    -0.236 C  
HETATM   31  C   UNL     1     -10.569  16.608  67.922  1.00  0.00    -0.342 C  
HETATM   32  C   UNL     1      -8.626  16.276  66.445  1.00  0.00    -0.361 C  
ENDBRANCH  23  24
ENDBRANCH  22  23
ENDBRANCH  21  22
ENDBRANCH  20  21
ENDBRANCH  19  20
ENDBRANCH  13  19
ENDBRANCH  12  13
ENDBRANCH   7  12
ENDBRANCH   2   3
TORSDOF 10
ENDMDL
MODEL      201
REMARK 921   NORMALIZED FREE ENERGY PREDICTED BY IDOCK:   -3.60 KCAL/MOL
REMARK 922        TOTAL FREE ENERGY PREDICTED BY IDOCK:   -6.98 KCAL/MOL
REMARK 923 INTER-LIGAND FREE ENERGY PREDICTED BY IDOCK:   -6.77 KCAL/MOL
REMARK 924 INTRA-LIGAND FREE ENERGY PREDICTED BY IDOCK:   -0.21 KCAL/MOL
REMARK 927      BINDING AFFINITY PREDICTED BY RF-SCORE:    0.00 PKD
ROOT
HETATM    1  C   UNL     1      -6.883   5.887  73.851  1.00  0.00    -0.081 C  
HETATM    2  O   UNL     1      -7.962   5.225  73.207  1.00  0.00    -0.106 OA 
ENDROOT
BRANCH   2   3
HETATM    3  C   UNL     1      -8.720   5.936  72.318  1.00  0.00    -0.128 A  
HETATM    4  C   UNL     1      -9.968   5.598  71.777  1.00  0.00    -0.176 A  
HETATM    5  C   UNL     1      -8.082   7.100  71.876  1.00  0.00    -0.097 A  
HETATM    6  C   UNL     1     -10.530   6.425  70.794  1.00  0.00    -0.270 A  
HETATM    7  C   UNL     1      -9.828   7.519  70.240  1.00  0.00    -0.183 A  
HETATM    8 BR   UNL     1      -7.698   9.493  70.441  1.00  0.00    -0.177 Br 
HETATM    9  C   UNL     1      -8.634   7.897  70.870  1.00  0.00    -0.128 A  
BRANCH   4  10
HETATM   10  O   UNL     1     -10.621   4.488  72.230  1.00  0.00    -0.182 OA 
HETATM   11  C   UNL     1     -11.526   4.701  73.313  1.00  0.00    -0.254 C  
ENDBRANCH   4  10
BRANCH   7  12
HETATM   12  C   UNL     1     -10.310   8.124  68.930  1.00  0.00    -0.211 C  
BRANCH  12  13
HETATM   13  N   UNL     1      -9.850   7.333  67.632  1.00  0.00    -0.144 N  
HETATM   14  O   UNL     1      -8.929   4.658  66.739  1.00  0.00    -0.111 OA 
HETATM   15  C   UNL     1      -8.394   6.792  67.814  1.00  0.00    -0.119 C  
HETATM   16  C   UNL     1      -8.038   5.774  66.712  1.00  0.00    -0.102 C  
HETATM   17  C   UNL     1     -10.760   6.070  67.527  1.00  0.00    -0.301 C  
HETATM   18  C   UNL     1     -10.276   5.059  66.486  1.00  0.00    -0.271 C  
BRANCH  13  19
HETATM   19  C   UNL     1      -9.953   8.239  66.358  1.00  0.00    -0.194 C  
BRANCH  19  20
HETATM   20  C   UNL     1     -10.186   9.716  66.736  1.00  0.00    -0.239 C  
BRANCH  20  21
HETATM   21  O   UNL     1     -10.717  10.519  65.687  1.00  0.00    -0.125 OA 
BRANCH  21  22
HETATM   22  C   UNL     1     -11.195  11.803  66.170  1.00  0.00    -0.306 C  
BRANCH  22  23
HETATM   23  C   UNL     1     -11.111  11.933  67.693  1.00  0.00    -0.314 C  
BRANCH  23  24
HETATM   24  C   UNL     1     -10.293  13.109  68.256  1.00  0.00    -0.256 C  
HETATM   25  C   UNL     1     -11.218  13.929  69.200  1.00  0.00    -0.311 C  
HETATM   26  C   UNL     1     -11.697  15.276  68.641  1.00  0.00    -0.367 C  
HETATM   27  C   UNL     1     -10.784  15.789  67.526  1.00  0.00    -0.317 C  
HETATM   28  C   UNL     1     -10.806  14.768  66.351  1.00  0.00    -0.322 C  
HETATM   29  C   UNL     1      -9.696  14.025  67.157  1.00  0.00    -0.242 C  
HETATM   30  C   UNL     1      -9.232  15.486  67.628  1.00  0.00    -0.190 C  
HETATM   31  C   UNL     1      -8.530  15.619  68.982  1.00  0.00    -0.231 C  
HETATM   32  C   UNL     1      -8.400  16.317  66.624  1.00  0.00    -0.315 C  
ENDBRANCH  23  24
ENDBRANCH  22  23
ENDBRANCH  21  22
ENDBRANCH  20  21
ENDBRANCH  19  20
ENDBRANCH  13  19
ENDBRANCH  12  13
ENDBRANCH   7  12
ENDBRANCH   2   3
TORSDOF 10
ENDMDL
MODEL      202
REMARK 921   NORMALIZED FREE ENERGY PREDICTED BY IDOCK:   -3.60 KCAL/MOL
REMARK 922        TOTAL FREE ENERGY PREDICTED BY IDOCK:   -6.97 KCAL/MOL
REMARK 923 INTER-LIGAND FREE ENERGY PREDICTED BY IDOCK:   -5.60 KCAL/MOL
REMARK 924 INTRA-LIGAND FREE ENERGY PREDICTED BY IDOCK:   -1.37 KCAL/MOL
REMARK 927      BINDING AFFINITY PREDICTED BY RF-SCORE:    0.00 PKD
ROOT
HETATM    1  C   UNL     1     -10.388  12.063  63.524  1.00  0.00    -0.461 C  
HETATM    2  O   UNL     1     -10.180  11.917  64.922  1.00  0.00    -0.255 OA 
ENDROOT
BRANCH   2   3
HETATM    3  C   UNL     1      -9.961  10.662  65.417  1.00  0.00    -0.281 A  
HETATM    4  C   UNL     1     -10.494  10.081  66.575  1.00  0.00    -0.153 A  
HETATM    5  C   UNL     1      -9.022   9.943  64.669  1.00  0.00    -0.260 A  
HETATM    6  C   UNL     1     -10.056   8.807  66.962  1.00  0.00    -0.335 A  
HETATM    7  C   UNL     1      -9.005   8.138  66.294  1.00  0.00    -0.215 A  
HETATM    8 BR   UNL     1      -7.360   7.798  63.916  1.00  0.00    -0.103 Br 
HETATM    9  C   UNL     1      -8.565   8.690  65.083  1.00  0.00    -0.173 A  
BRANCH   4  10
HETATM   10  O   UNL     1     -11.442  10.753  67.292  1.00  0.00    -0.436 OA 
HETATM   11  C   UNL     1     -11.240  10.791  68.705  1.00  0.00    -0.274 C  
ENDBRANCH   4  10
BRANCH   7  12
HETATM   12  C   UNL     1      -8.315   6.968  66.978  1.00  0.00    -0.121 C  
BRANCH  12  13
HETATM   13  N   UNL     1      -9.103   5.593  66.881  1.00  0.00    -0.115 N  
HETATM   14  O   UNL     1      -8.877   2.851  65.770  1.00  0.00    -0.129 OA 
HETATM   15  C   UNL     1      -9.362   5.219  65.385  1.00  0.00    -0.035 C  
HETATM   16  C   UNL     1      -9.846   3.762  65.250  1.00  0.00    -0.146 C  
HETATM   17  C   UNL     1      -8.152   4.486  67.434  1.00  0.00    -0.101 C  
HETATM   18  C   UNL     1      -8.652   3.066  67.164  1.00  0.00    -0.107 C  
BRANCH  13  19
HETATM   19  C   UNL     1     -10.450   5.661  67.680  1.00  0.00    -0.219 C  
BRANCH  19  20
HETATM   20  C   UNL     1     -10.198   5.731  69.200  1.00  0.00    -0.223 C  
BRANCH  20  21
HETATM   21  O   UNL     1     -10.521   4.538  69.908  1.00  0.00     0.003 OA 
BRANCH  21  22
HETATM   22  C   UNL     1      -9.931   4.515  71.236  1.00  0.00    -0.188 C  
BRANCH  22  23
HETATM   23  C   UNL     1      -8.455   4.920  71.237  1.00  0.00    -0.120 C  
BRANCH  23  24
HETATM   24  C   UNL     1      -8.015   5.981  72.262  1.00  0.00    -0.102 C  
HETATM   25  C   UNL     1      -9.282   6.749  72.733  1.00  0.00    -0.149 C  
HETATM   26  C   UNL     1      -9.429   8.173  72.179  1.00  0.00    -0.291 C  
HETATM   27  C   UNL     1      -8.090   8.747  71.715  1.00  0.00    -0.126 C  
HETATM   28  C   UNL     1      -7.538   7.858  70.562  1.00  0.00    -0.081 C  
HETATM   29  C   UNL     1      -6.959   6.971  71.708  1.00  0.00    -0.068 C  
HETATM   30  C   UNL     1      -6.783   8.344  72.516  1.00  0.00    -0.104 C  
HETATM   31  C   UNL     1      -6.829   8.293  74.045  1.00  0.00    -0.167 C  
HETATM   32  C   UNL     1      -5.568   9.227  72.146  1.00  0.00    -0.063 C  
ENDBRANCH  23  24
ENDBRANCH  22  23
ENDBRANCH  21  22
ENDBRANCH  20  21
ENDBRANCH  19  20
ENDBRANCH  13  19
ENDBRANCH  12  13
ENDBRANCH   7  12
ENDBRANCH   2   3
TORSDOF 10
ENDMDL
MODEL      203
REMARK 921   NORMALIZED FREE ENERGY PREDICTED BY IDOCK:   -3.59 KCAL/MOL
REMARK 922        TOTAL FREE ENERGY PREDICTED BY IDOCK:   -6.96 KCAL/MOL
REMARK 923 INTER-LIGAND FREE ENERGY PREDICTED BY IDOCK:   -6.10 KCAL/MOL
REMARK 924 INTRA-LIGAND FREE ENERGY PREDICTED BY IDOCK:   -0.87 KCAL/MOL
REMARK 927      BINDING AFFINITY PREDICTED BY RF-SCORE:    0.00 PKD
ROOT
HETATM    1  C   UNL     1     -12.753  14.009  65.887  1.00  0.00    -0.397 C  
HETATM    2  O   UNL     1     -11.387  14.368  66.041  1.00  0.00    -0.324 OA 
ENDROOT
BRANCH   2   3
HETATM    3  C   UNL     1     -10.616  13.631  66.895  1.00  0.00    -0.271 A  
HETATM    4  C   UNL     1      -9.231  13.704  67.098  1.00  0.00    -0.244 A  
HETATM    5  C   UNL     1     -11.348  12.647  67.570  1.00  0.00    -0.361 A  
HETATM    6  C   UNL     1      -8.618  12.778  67.953  1.00  0.00    -0.181 A  
HETATM    7  C   UNL     1      -9.325  11.696  68.521  1.00  0.00    -0.169 A  
HETATM    8 BR   UNL     1     -11.856  10.492  69.310  1.00  0.00    -0.182 Br 
HETATM    9  C   UNL     1     -10.721  11.707  68.390  1.00  0.00    -0.217 A  
BRANCH   4  10
HETATM   10  O   UNL     1      -8.511  14.686  66.479  1.00  0.00    -0.111 OA 
HETATM   11  C   UNL     1      -7.431  15.232  67.236  1.00  0.00    -0.202 C  
ENDBRANCH   4  10
BRANCH   7  12
HETATM   12  C   UNL     1      -8.550  10.523  69.101  1.00  0.00    -0.150 C  
BRANCH  12  13
HETATM   13  N   UNL     1      -7.830   9.611  68.019  1.00  0.00    -0.087 N  
HETATM   14  O   UNL     1      -5.140   8.716  67.144  1.00  0.00    -0.031 OA 
HETATM   15  C   UNL     1      -6.850  10.468  67.152  1.00  0.00    -0.084 C  
HETATM   16  C   UNL     1      -5.922   9.570  66.309  1.00  0.00    -0.059 C  
HETATM   17  C   UNL     1      -6.931   8.604  68.801  1.00  0.00    -0.063 C  
HETATM   18  C   UNL     1      -5.963   7.831  67.905  1.00  0.00    -0.041 C  
BRANCH  13  19
HETATM   19  C   UNL     1      -8.880   8.879  67.115  1.00  0.00    -0.123 C  
BRANCH  19  20
HETATM   20  C   UNL     1      -9.441   7.622  67.812  1.00  0.00    -0.142 C  
BRANCH  20  21
HETATM   21  O   UNL     1     -10.860   7.595  67.929  1.00  0.00    -0.152 OA 
BRANCH  21  22
HETATM   22  C   UNL     1     -11.313   6.551  68.832  1.00  0.00    -0.184 C  
BRANCH  22  23
HETATM   23  C   UNL     1     -10.172   5.929  69.640  1.00  0.00    -0.281 C  
BRANCH  23  24
HETATM   24  C   UNL     1     -10.447   5.616  71.122  1.00  0.00    -0.306 C  
HETATM   25  C   UNL     1     -11.314   6.768  71.704  1.00  0.00    -0.305 C  
HETATM   26  C   UNL     1     -10.576   7.738  72.637  1.00  0.00    -0.377 C  
HETATM   27  C   UNL     1      -9.311   7.112  73.226  1.00  0.00    -0.205 C  
HETATM   28  C   UNL     1      -8.338   6.761  72.063  1.00  0.00    -0.111 C  
HETATM   29  C   UNL     1      -9.156   5.437  71.962  1.00  0.00    -0.149 C  
HETATM   30  C   UNL     1      -9.322   5.561  73.552  1.00  0.00    -0.137 C  
HETATM   31  C   UNL     1     -10.563   4.941  74.199  1.00  0.00    -0.345 C  
HETATM   32  C   UNL     1      -8.117   5.131  74.420  1.00  0.00    -0.102 C  
ENDBRANCH  23  24
ENDBRANCH  22  23
ENDBRANCH  21  22
ENDBRANCH  20  21
ENDBRANCH  19  20
ENDBRANCH  13  19
ENDBRANCH  12  13
ENDBRANCH   7  12
ENDBRANCH   2   3
TORSDOF 10
ENDMDL
MODEL      204
REMARK 921   NORMALIZED FREE ENERGY PREDICTED BY IDOCK:   -3.58 KCAL/MOL
REMARK 922        TOTAL FREE ENERGY PREDICTED BY IDOCK:   -6.94 KCAL/MOL
REMARK 923 INTER-LIGAND FREE ENERGY PREDICTED BY IDOCK:   -6.13 KCAL/MOL
REMARK 924 INTRA-LIGAND FREE ENERGY PREDICTED BY IDOCK:   -0.81 KCAL/MOL
REMARK 927      BINDING AFFINITY PREDICTED BY RF-SCORE:    0.00 PKD
ROOT
HETATM    1  C   UNL     1     -10.551   5.223  72.848  1.00  0.00    -0.229 C  
HETATM    2  O   UNL     1     -11.441   6.317  73.013  1.00  0.00    -0.157 OA 
ENDROOT
BRANCH   2   3
HETATM    3  C   UNL     1     -11.165   7.481  72.353  1.00  0.00    -0.308 A  
HETATM    4  C   UNL     1     -12.053   8.497  71.974  1.00  0.00    -0.364 A  
HETATM    5  C   UNL     1      -9.822   7.579  71.970  1.00  0.00    -0.200 A  
HETATM    6  C   UNL     1     -11.576   9.568  71.206  1.00  0.00    -0.445 A  
HETATM    7  C   UNL     1     -10.259   9.600  70.695  1.00  0.00    -0.346 A  
HETATM    8 BR   UNL     1      -7.501   8.677  70.815  1.00  0.00    -0.092 Br 
HETATM    9  C   UNL     1      -9.365   8.632  71.174  1.00  0.00    -0.216 A  
BRANCH   4  10
HETATM   10  O   UNL     1     -13.357   8.436  72.376  1.00  0.00    -0.288 OA 
HETATM   11  C   UNL     1     -14.040   9.688  72.455  1.00  0.00     0.005 C  
ENDBRANCH   4  10
BRANCH   7  12
HETATM   12  C   UNL     1      -9.923  10.562  69.566  1.00  0.00    -0.158 C  
BRANCH  12  13
HETATM   13  N   UNL     1     -10.075   9.945  68.110  1.00  0.00    -0.159 N  
HETATM   14  O   UNL     1      -9.250   7.615  66.470  1.00  0.00    -0.160 OA 
HETATM   15  C   UNL     1      -8.671   9.787  67.438  1.00  0.00    -0.132 C  
HETATM   16  C   UNL     1      -8.758   8.921  66.166  1.00  0.00    -0.153 C  
HETATM   17  C   UNL     1     -10.623   8.496  68.288  1.00  0.00    -0.119 C  
HETATM   18  C   UNL     1     -10.574   7.666  67.004  1.00  0.00    -0.336 C  
BRANCH  13  19
HETATM   19  C   UNL     1     -11.021  10.826  67.224  1.00  0.00    -0.297 C  
BRANCH  19  20
HETATM   20  C   UNL     1     -11.850  11.800  68.086  1.00  0.00    -0.254 C  
BRANCH  20  21
HETATM   21  O   UNL     1     -11.644  13.177  67.787  1.00  0.00    -0.296 OA 
BRANCH  21  22
HETATM   22  C   UNL     1     -10.764  13.361  66.645  1.00  0.00    -0.282 C  
BRANCH  22  23
HETATM   23  C   UNL     1     -10.308  14.813  66.476  1.00  0.00    -0.287 C  
BRANCH  23  24
HETATM   24  C   UNL     1      -9.425  15.409  67.587  1.00  0.00    -0.205 C  
HETATM   25  C   UNL     1      -8.622  16.593  66.979  1.00  0.00    -0.220 C  
HETATM   26  C   UNL     1      -7.132  16.318  66.732  1.00  0.00    -0.200 C  
HETATM   27  C   UNL     1      -6.615  15.163  67.590  1.00  0.00    -0.195 C  
HETATM   28  C   UNL     1      -7.393  13.869  67.209  1.00  0.00    -0.017 C  
HETATM   29  C   UNL     1      -8.462  14.376  68.226  1.00  0.00    -0.165 C  
HETATM   30  C   UNL     1      -7.220  14.978  69.044  1.00  0.00    -0.142 C  
HETATM   31  C   UNL     1      -7.460  16.212  69.916  1.00  0.00     0.415 C  
HETATM   32  C   UNL     1      -6.400  13.990  69.904  1.00  0.00    -0.128 C  
ENDBRANCH  23  24
ENDBRANCH  22  23
ENDBRANCH  21  22
ENDBRANCH  20  21
ENDBRANCH  19  20
ENDBRANCH  13  19
ENDBRANCH  12  13
ENDBRANCH   7  12
ENDBRANCH   2   3
TORSDOF 10
ENDMDL
MODEL      205
REMARK 921   NORMALIZED FREE ENERGY PREDICTED BY IDOCK:   -3.57 KCAL/MOL
REMARK 922        TOTAL FREE ENERGY PREDICTED BY IDOCK:   -6.93 KCAL/MOL
REMARK 923 INTER-LIGAND FREE ENERGY PREDICTED BY IDOCK:   -5.89 KCAL/MOL
REMARK 924 INTRA-LIGAND FREE ENERGY PREDICTED BY IDOCK:   -1.04 KCAL/MOL
REMARK 927      BINDING AFFINITY PREDICTED BY RF-SCORE:    0.00 PKD
ROOT
HETATM    1  C   UNL     1      -6.670  10.681  62.438  1.00  0.00    -0.108 C  
HETATM    2  O   UNL     1      -6.399  10.269  63.770  1.00  0.00    -0.136 OA 
ENDROOT
BRANCH   2   3
HETATM    3  C   UNL     1      -6.909   9.075  64.195  1.00  0.00    -0.087 A  
HETATM    4  C   UNL     1      -7.985   8.851  65.065  1.00  0.00    -0.125 A  
HETATM    5  C   UNL     1      -6.177   7.978  63.727  1.00  0.00    -0.066 A  
HETATM    6  C   UNL     1      -8.283   7.538  65.456  1.00  0.00    -0.135 A  
HETATM    7  C   UNL     1      -7.461   6.444  65.104  1.00  0.00    -0.083 A  
HETATM    8 BR   UNL     1      -5.439   5.286  63.358  1.00  0.00    -0.014 Br 
HETATM    9  C   UNL     1      -6.459   6.678  64.152  1.00  0.00    -0.038 A  
BRANCH   4  10
HETATM   10  O   UNL     1      -8.734   9.907  65.497  1.00  0.00    -0.139 OA 
HETATM   11  C   UNL     1      -9.782   9.590  66.414  1.00  0.00    -0.232 C  
ENDBRANCH   4  10
BRANCH   7  12
HETATM   12  C   UNL     1      -7.600   5.134  65.866  1.00  0.00    -0.083 C  
BRANCH  12  13
HETATM   13  N   UNL     1      -8.717   4.159  65.298  1.00  0.00    -0.118 N  
HETATM   14  O   UNL     1      -9.326   2.416  62.976  1.00  0.00    -0.091 OA 
HETATM   15  C   UNL     1      -9.236   4.674  63.917  1.00  0.00    -0.040 C  
HETATM   16  C   UNL     1     -10.087   3.602  63.206  1.00  0.00    -0.177 C  
HETATM   17  C   UNL     1      -8.019   2.795  65.005  1.00  0.00    -0.082 C  
HETATM   18  C   UNL     1      -8.891   1.827  64.203  1.00  0.00    -0.092 C  
BRANCH  13  19
HETATM   19  C   UNL     1      -9.898   4.006  66.317  1.00  0.00    -0.159 C  
BRANCH  19  20
HETATM   20  C   UNL     1     -10.728   5.303  66.411  1.00  0.00    -0.223 C  
BRANCH  20  21
HETATM   21  O   UNL     1     -10.809   5.859  67.720  1.00  0.00    -0.273 OA 
BRANCH  21  22
HETATM   22  C   UNL     1     -10.014   5.112  68.680  1.00  0.00    -0.158 C  
BRANCH  22  23
HETATM   23  C   UNL     1      -9.710   5.912  69.949  1.00  0.00    -0.208 C  
BRANCH  23  24
HETATM   24  C   UNL     1     -10.456   7.246  70.137  1.00  0.00    -0.229 C  
HETATM   25  C   UNL     1      -9.604   8.145  71.077  1.00  0.00    -0.189 C  
HETATM   26  C   UNL     1     -10.146   8.299  72.504  1.00  0.00    -0.376 C  
HETATM   27  C   UNL     1     -11.642   7.993  72.584  1.00  0.00    -0.448 C  
HETATM   28  C   UNL     1     -11.873   6.513  72.161  1.00  0.00    -0.348 C  
HETATM   29  C   UNL     1     -11.888   7.075  70.706  1.00  0.00    -0.401 C  
HETATM   30  C   UNL     1     -12.555   8.383  71.349  1.00  0.00    -0.299 C  
HETATM   31  C   UNL     1     -12.332   9.726  70.649  1.00  0.00    -0.248 C  
HETATM   32  C   UNL     1     -14.063   8.312  71.683  1.00  0.00    -0.489 C  
ENDBRANCH  23  24
ENDBRANCH  22  23
ENDBRANCH  21  22
ENDBRANCH  20  21
ENDBRANCH  19  20
ENDBRANCH  13  19
ENDBRANCH  12  13
ENDBRANCH   7  12
ENDBRANCH   2   3
TORSDOF 10
ENDMDL
MODEL      206
REMARK 921   NORMALIZED FREE ENERGY PREDICTED BY IDOCK:   -3.56 KCAL/MOL
REMARK 922        TOTAL FREE ENERGY PREDICTED BY IDOCK:   -6.92 KCAL/MOL
REMARK 923 INTER-LIGAND FREE ENERGY PREDICTED BY IDOCK:   -6.26 KCAL/MOL
REMARK 924 INTRA-LIGAND FREE ENERGY PREDICTED BY IDOCK:   -0.66 KCAL/MOL
REMARK 927      BINDING AFFINITY PREDICTED BY RF-SCORE:    0.00 PKD
ROOT
HETATM    1  C   UNL     1     -10.379   5.889  74.275  1.00  0.00    -0.270 C  
HETATM    2  O   UNL     1     -10.313   7.306  74.204  1.00  0.00    -0.244 OA 
ENDROOT
BRANCH   2   3
HETATM    3  C   UNL     1      -9.618   7.871  73.172  1.00  0.00    -0.286 A  
HETATM    4  C   UNL     1     -10.121   8.566  72.064  1.00  0.00    -0.316 A  
HETATM    5  C   UNL     1      -8.242   7.626  73.250  1.00  0.00    -0.183 A  
HETATM    6  C   UNL     1      -9.236   8.978  71.058  1.00  0.00    -0.331 A  
HETATM    7  C   UNL     1      -7.872   8.609  71.059  1.00  0.00    -0.128 A  
HETATM    8 BR   UNL     1      -5.524   7.690  72.516  1.00  0.00    -0.036 Br 
HETATM    9  C   UNL     1      -7.374   8.008  72.225  1.00  0.00    -0.096 A  
BRANCH   4  10
HETATM   10  O   UNL     1     -11.455   8.849  71.995  1.00  0.00    -0.352 OA 
HETATM   11  C   UNL     1     -11.812   9.956  71.166  1.00  0.00    -0.386 C  
ENDBRANCH   4  10
BRANCH   7  12
HETATM   12  C   UNL     1      -7.066   8.738  69.776  1.00  0.00    -0.054 C  
BRANCH  12  13
HETATM   13  N   UNL     1      -7.215   7.512  68.779  1.00  0.00    -0.080 N  
HETATM   14  O   UNL     1      -5.910   4.960  68.012  1.00  0.00    -0.020 OA 
HETATM   15  C   UNL     1      -5.955   7.403  67.859  1.00  0.00    -0.035 C  
HETATM   16  C   UNL     1      -5.933   6.060  67.102  1.00  0.00    -0.018 C  
HETATM   17  C   UNL     1      -7.214   6.218  69.651  1.00  0.00    -0.078 C  
HETATM   18  C   UNL     1      -7.080   4.933  68.830  1.00  0.00    -0.053 C  
BRANCH  13  19
HETATM   19  C   UNL     1      -8.521   7.641  67.923  1.00  0.00    -0.123 C  
BRANCH  19  20
HETATM   20  C   UNL     1      -8.417   8.802  66.912  1.00  0.00    -0.111 C  
BRANCH  20  21
HETATM   21  O   UNL     1      -8.998  10.024  67.354  1.00  0.00    -0.131 OA 
BRANCH  21  22
HETATM   22  C   UNL     1      -9.581  10.780  66.258  1.00  0.00    -0.195 C  
BRANCH  22  23
HETATM   23  C   UNL     1     -10.619  11.801  66.728  1.00  0.00    -0.273 C  
BRANCH  23  24
HETATM   24  C   UNL     1     -10.115  12.977  67.584  1.00  0.00    -0.217 C  
HETATM   25  C   UNL     1     -11.328  13.561  68.361  1.00  0.00    -0.327 C  
HETATM   26  C   UNL     1     -11.852  14.908  67.844  1.00  0.00    -0.286 C  
HETATM   27  C   UNL     1     -10.796  15.658  67.033  1.00  0.00    -0.294 C  
HETATM   28  C   UNL     1     -10.419  14.802  65.789  1.00  0.00    -0.348 C  
HETATM   29  C   UNL     1      -9.422  14.088  66.754  1.00  0.00    -0.292 C  
HETATM   30  C   UNL     1      -9.277  15.518  67.465  1.00  0.00    -0.200 C  
HETATM   31  C   UNL     1      -8.917  15.551  68.952  1.00  0.00    -0.220 C  
HETATM   32  C   UNL     1      -8.368  16.559  66.773  1.00  0.00    -0.274 C  
ENDBRANCH  23  24
ENDBRANCH  22  23
ENDBRANCH  21  22
ENDBRANCH  20  21
ENDBRANCH  19  20
ENDBRANCH  13  19
ENDBRANCH  12  13
ENDBRANCH   7  12
ENDBRANCH   2   3
TORSDOF 10
ENDMDL
MODEL      207
REMARK 921   NORMALIZED FREE ENERGY PREDICTED BY IDOCK:   -3.56 KCAL/MOL
REMARK 922        TOTAL FREE ENERGY PREDICTED BY IDOCK:   -6.91 KCAL/MOL
REMARK 923 INTER-LIGAND FREE ENERGY PREDICTED BY IDOCK:   -6.18 KCAL/MOL
REMARK 924 INTRA-LIGAND FREE ENERGY PREDICTED BY IDOCK:   -0.73 KCAL/MOL
REMARK 927      BINDING AFFINITY PREDICTED BY RF-SCORE:    0.00 PKD
ROOT
HETATM    1  C   UNL     1      -7.282   7.931  74.346  1.00  0.00    -0.150 C  
HETATM    2  O   UNL     1      -6.067   7.772  73.628  1.00  0.00    -0.066 OA 
ENDROOT
BRANCH   2   3
HETATM    3  C   UNL     1      -6.120   7.751  72.263  1.00  0.00    -0.040 A  
HETATM    4  C   UNL     1      -6.091   8.835  71.376  1.00  0.00    -0.056 A  
HETATM    5  C   UNL     1      -6.298   6.461  71.749  1.00  0.00    -0.042 A  
HETATM    6  C   UNL     1      -6.263   8.599  70.005  1.00  0.00    -0.034 A  
HETATM    7  C   UNL     1      -6.588   7.321  69.496  1.00  0.00    -0.040 A  
HETATM    8 BR   UNL     1      -6.640   4.430  69.830  1.00  0.00    -0.034 Br 
HETATM    9  C   UNL     1      -6.505   6.241  70.386  1.00  0.00    -0.040 A  
BRANCH   4  10
HETATM   10  O   UNL     1      -5.875  10.095  71.858  1.00  0.00    -0.300 OA 
HETATM   11  C   UNL     1      -5.399  11.049  70.908  1.00  0.00    -0.118 C  
ENDBRANCH   4  10
BRANCH   7  12
HETATM   12  C   UNL     1      -7.144   7.202  68.086  1.00  0.00    -0.085 C  
BRANCH  12  13
HETATM   13  N   UNL     1      -8.709   7.447  67.973  1.00  0.00    -0.125 N  
HETATM   14  O   UNL     1     -11.301   6.484  69.046  1.00  0.00    -0.302 OA 
HETATM   15  C   UNL     1      -9.431   6.141  67.504  1.00  0.00    -0.112 C  
HETATM   16  C   UNL     1     -10.958   6.257  67.678  1.00  0.00    -0.342 C  
HETATM   17  C   UNL     1      -9.229   7.722  69.418  1.00  0.00    -0.149 C  
HETATM   18  C   UNL     1     -10.754   7.713  69.526  1.00  0.00    -0.209 C  
BRANCH  13  19
HETATM   19  C   UNL     1      -9.021   8.636  67.001  1.00  0.00    -0.133 C  
BRANCH  19  20
HETATM   20  C   UNL     1      -8.578   8.313  65.559  1.00  0.00    -0.159 C  
BRANCH  20  21
HETATM   21  O   UNL     1      -8.652   9.413  64.658  1.00  0.00    -0.165 OA 
BRANCH  21  22
HETATM   22  C   UNL     1      -8.802  10.680  65.354  1.00  0.00    -0.189 C  
BRANCH  22  23
HETATM   23  C   UNL     1     -10.111  11.394  65.009  1.00  0.00    -0.323 C  
BRANCH  23  24
HETATM   24  C   UNL     1     -10.904  12.016  66.173  1.00  0.00    -0.325 C  
HETATM   25  C   UNL     1     -12.210  12.627  65.593  1.00  0.00    -0.474 C  
HETATM   26  C   UNL     1     -12.236  14.160  65.511  1.00  0.00    -0.443 C  
HETATM   27  C   UNL     1     -11.233  14.801  66.471  1.00  0.00    -0.342 C  
HETATM   28  C   UNL     1      -9.799  14.343  66.076  1.00  0.00    -0.342 C  
HETATM   29  C   UNL     1     -10.105  13.091  66.955  1.00  0.00    -0.243 C  
HETATM   30  C   UNL     1     -10.968  14.092  67.863  1.00  0.00    -0.261 C  
HETATM   31  C   UNL     1     -12.150  13.518  68.648  1.00  0.00    -0.303 C  
HETATM   32  C   UNL     1     -10.190  14.995  68.847  1.00  0.00    -0.235 C  
ENDBRANCH  23  24
ENDBRANCH  22  23
ENDBRANCH  21  22
ENDBRANCH  20  21
ENDBRANCH  19  20
ENDBRANCH  13  19
ENDBRANCH  12  13
ENDBRANCH   7  12
ENDBRANCH   2   3
TORSDOF 10
ENDMDL
MODEL      208
REMARK 921   NORMALIZED FREE ENERGY PREDICTED BY IDOCK:   -3.54 KCAL/MOL
REMARK 922        TOTAL FREE ENERGY PREDICTED BY IDOCK:   -6.88 KCAL/MOL
REMARK 923 INTER-LIGAND FREE ENERGY PREDICTED BY IDOCK:   -6.11 KCAL/MOL
REMARK 924 INTRA-LIGAND FREE ENERGY PREDICTED BY IDOCK:   -0.78 KCAL/MOL
REMARK 927      BINDING AFFINITY PREDICTED BY RF-SCORE:    0.00 PKD
ROOT
HETATM    1  C   UNL     1     -10.511   5.561  73.384  1.00  0.00    -0.237 C  
HETATM    2  O   UNL     1     -11.017   6.865  73.631  1.00  0.00    -0.249 OA 
ENDROOT
BRANCH   2   3
HETATM    3  C   UNL     1     -10.701   7.860  72.749  1.00  0.00    -0.371 A  
HETATM    4  C   UNL     1     -11.559   8.789  72.144  1.00  0.00    -0.364 A  
HETATM    5  C   UNL     1      -9.349   7.852  72.387  1.00  0.00    -0.246 A  
HETATM    6  C   UNL     1     -11.043   9.667  71.181  1.00  0.00    -0.444 A  
HETATM    7  C   UNL     1      -9.716   9.567  70.706  1.00  0.00    -0.289 A  
HETATM    8 BR   UNL     1      -6.981   8.641  71.083  1.00  0.00    -0.085 Br 
HETATM    9  C   UNL     1      -8.853   8.705  71.399  1.00  0.00    -0.215 A  
BRANCH   4  10
HETATM   10  O   UNL     1     -12.871   8.837  72.518  1.00  0.00    -0.399 OA 
HETATM   11  C   UNL     1     -13.783   8.133  71.673  1.00  0.00    -0.355 C  
ENDBRANCH   4  10
BRANCH   7  12
HETATM   12  C   UNL     1      -9.335  10.264  69.409  1.00  0.00    -0.199 C  
BRANCH  12  13
HETATM   13  N   UNL     1      -9.849   9.535  68.096  1.00  0.00    -0.151 N  
HETATM   14  O   UNL     1      -9.621   6.976  66.612  1.00  0.00    -0.168 OA 
HETATM   15  C   UNL     1      -8.641   9.145  67.183  1.00  0.00    -0.120 C  
HETATM   16  C   UNL     1      -9.077   8.177  66.064  1.00  0.00    -0.167 C  
HETATM   17  C   UNL     1     -10.488   8.185  68.548  1.00  0.00    -0.162 C  
HETATM   18  C   UNL     1     -10.791   7.237  67.387  1.00  0.00    -0.247 C  
BRANCH  13  19
HETATM   19  C   UNL     1     -10.869  10.434  67.317  1.00  0.00    -0.264 C  
BRANCH  19  20
HETATM   20  C   UNL     1     -10.163  11.630  66.645  1.00  0.00    -0.216 C  
BRANCH  20  21
HETATM   21  O   UNL     1     -10.527  12.902  67.171  1.00  0.00    -0.236 OA 
BRANCH  21  22
HETATM   22  C   UNL     1      -9.720  13.268  68.323  1.00  0.00    -0.225 C  
BRANCH  22  23
HETATM   23  C   UNL     1     -10.324  14.421  69.127  1.00  0.00    -0.164 C  
BRANCH  23  24
HETATM   24  C   UNL     1     -11.050  14.064  70.437  1.00  0.00     0.285 C  
HETATM   25  C   UNL     1     -12.484  13.584  70.077  1.00  0.00    -0.231 C  
HETATM   26  C   UNL     1     -13.608  14.580  70.397  1.00  0.00     0.409 C  
HETATM   27  C   UNL     1     -13.186  15.596  71.458  1.00  0.00    -0.555 C  
HETATM   28  C   UNL     1     -11.982  16.419  70.914  1.00  0.00     0.119 C  
HETATM   29  C   UNL     1     -11.112  15.239  71.446  1.00  0.00    -0.285 C  
HETATM   30  C   UNL     1     -12.208  15.117  72.610  1.00  0.00    -0.482 C  
HETATM   31  C   UNL     1     -12.427  13.746  73.255  1.00  0.00     0.733 C  
HETATM   32  C   UNL     1     -12.118  16.134  73.770  1.00  0.00    -0.528 C  
ENDBRANCH  23  24
ENDBRANCH  22  23
ENDBRANCH  21  22
ENDBRANCH  20  21
ENDBRANCH  19  20
ENDBRANCH  13  19
ENDBRANCH  12  13
ENDBRANCH   7  12
ENDBRANCH   2   3
TORSDOF 10
ENDMDL
MODEL      209
REMARK 921   NORMALIZED FREE ENERGY PREDICTED BY IDOCK:   -3.53 KCAL/MOL
REMARK 922        TOTAL FREE ENERGY PREDICTED BY IDOCK:   -6.87 KCAL/MOL
REMARK 923 INTER-LIGAND FREE ENERGY PREDICTED BY IDOCK:   -5.97 KCAL/MOL
REMARK 924 INTRA-LIGAND FREE ENERGY PREDICTED BY IDOCK:   -0.89 KCAL/MOL
REMARK 927      BINDING AFFINITY PREDICTED BY RF-SCORE:    0.00 PKD
ROOT
HETATM    1  C   UNL     1      -5.125  15.970  69.709  1.00  0.00    -0.114 C  
HETATM    2  O   UNL     1      -5.219  15.864  68.296  1.00  0.00    -0.094 OA 
ENDROOT
BRANCH   2   3
HETATM    3  C   UNL     1      -6.384  15.393  67.758  1.00  0.00    -0.161 A  
HETATM    4  C   UNL     1      -7.432  16.124  67.182  1.00  0.00    -0.212 A  
HETATM    5  C   UNL     1      -6.522  14.007  67.897  1.00  0.00    -0.170 A  
HETATM    6  C   UNL     1      -8.594  15.450  66.781  1.00  0.00    -0.308 A  
HETATM    7  C   UNL     1      -8.797  14.078  67.051  1.00  0.00    -0.234 A  
HETATM    8 BR   UNL     1      -7.700  11.458  67.690  1.00  0.00    -0.128 Br 
HETATM    9  C   UNL     1      -7.698  13.351  67.528  1.00  0.00    -0.176 A  
BRANCH   4  10
HETATM   10  O   UNL     1      -7.295  17.471  67.002  1.00  0.00    -0.175 OA 
HETATM   11  C   UNL     1      -8.496  18.236  67.110  1.00  0.00    -0.250 C  
ENDBRANCH   4  10
BRANCH   7  12
HETATM   12  C   UNL     1     -10.202  13.502  66.956  1.00  0.00    -0.249 C  
BRANCH  12  13
HETATM   13  N   UNL     1     -11.147  13.870  68.178  1.00  0.00    -0.247 N  
HETATM   14  O   UNL     1     -11.771  16.079  70.057  1.00  0.00    -0.330 OA 
HETATM   15  C   UNL     1     -10.292  14.230  69.436  1.00  0.00     0.026 C  
HETATM   16  C   UNL     1     -11.160  14.879  70.533  1.00  0.00    -0.159 C  
HETATM   17  C   UNL     1     -11.899  15.181  67.789  1.00  0.00    -0.144 C  
HETATM   18  C   UNL     1     -12.648  15.821  68.959  1.00  0.00     0.555 C  
BRANCH  13  19
HETATM   19  C   UNL     1     -12.138  12.698  68.494  1.00  0.00    -0.085 C  
BRANCH  19  20
HETATM   20  C   UNL     1     -11.447  11.584  69.307  1.00  0.00    -0.305 C  
BRANCH  20  21
HETATM   21  O   UNL     1     -12.070  11.289  70.553  1.00  0.00    -0.341 OA 
BRANCH  21  22
HETATM   22  C   UNL     1     -12.869  10.076  70.490  1.00  0.00    -0.114 C  
BRANCH  22  23
HETATM   23  C   UNL     1     -12.662   9.166  71.704  1.00  0.00    -0.429 C  
BRANCH  23  24
HETATM   24  C   UNL     1     -11.866   7.867  71.483  1.00  0.00    -0.322 C  
HETATM   25  C   UNL     1     -11.619   7.214  72.872  1.00  0.00    -0.109 C  
HETATM   26  C   UNL     1     -10.184   7.327  73.404  1.00  0.00    -0.394 C  
HETATM   27  C   UNL     1      -9.177   7.579  72.282  1.00  0.00    -0.176 C  
HETATM   28  C   UNL     1      -9.522   8.932  71.594  1.00  0.00    -0.351 C  
HETATM   29  C   UNL     1     -10.521   8.088  70.745  1.00  0.00    -0.221 C  
HETATM   30  C   UNL     1      -9.442   6.909  70.870  1.00  0.00    -0.157 C  
HETATM   31  C   UNL     1      -9.942   5.463  70.811  1.00  0.00    -0.269 C  
HETATM   32  C   UNL     1      -8.209   6.982  69.940  1.00  0.00    -0.130 C  
ENDBRANCH  23  24
ENDBRANCH  22  23
ENDBRANCH  21  22
ENDBRANCH  20  21
ENDBRANCH  19  20
ENDBRANCH  13  19
ENDBRANCH  12  13
ENDBRANCH   7  12
ENDBRANCH   2   3
TORSDOF 10
ENDMDL
MODEL      210
REMARK 921   NORMALIZED FREE ENERGY PREDICTED BY IDOCK:   -3.52 KCAL/MOL
REMARK 922        TOTAL FREE ENERGY PREDICTED BY IDOCK:   -6.86 KCAL/MOL
REMARK 923 INTER-LIGAND FREE ENERGY PREDICTED BY IDOCK:   -6.54 KCAL/MOL
REMARK 924 INTRA-LIGAND FREE ENERGY PREDICTED BY IDOCK:   -0.31 KCAL/MOL
REMARK 927      BINDING AFFINITY PREDICTED BY RF-SCORE:    0.00 PKD
ROOT
HETATM    1  C   UNL     1     -14.410  15.190  71.992  1.00  0.00    -0.586 C  
HETATM    2  O   UNL     1     -13.010  14.954  72.012  1.00  0.00    -0.304 OA 
ENDROOT
BRANCH   2   3
HETATM    3  C   UNL     1     -12.487  14.085  71.097  1.00  0.00    -0.371 A  
HETATM    4  C   UNL     1     -11.958  14.371  69.831  1.00  0.00    -0.335 A  
HETATM    5  C   UNL     1     -12.587  12.749  71.502  1.00  0.00    -0.259 A  
HETATM    6  C   UNL     1     -11.565  13.312  69.001  1.00  0.00    -0.359 A  
HETATM    7  C   UNL     1     -11.799  11.961  69.344  1.00  0.00    -0.389 A  
HETATM    8 BR   UNL     1     -12.334   9.947  71.378  1.00  0.00    -0.530 Br 
HETATM    9  C   UNL     1     -12.228  11.700  70.653  1.00  0.00    -0.366 A  
BRANCH   4  10
HETATM   10  O   UNL     1     -11.814  15.671  69.438  1.00  0.00    -0.355 OA 
HETATM   11  C   UNL     1     -11.156  15.872  68.187  1.00  0.00    -0.338 C  
ENDBRANCH   4  10
BRANCH   7  12
HETATM   12  C   UNL     1     -11.721  10.895  68.262  1.00  0.00    -0.184 C  
BRANCH  12  13
HETATM   13  N   UNL     1     -10.246  10.550  67.784  1.00  0.00    -0.181 N  
HETATM   14  O   UNL     1      -8.065  11.560  66.045  1.00  0.00    -0.032 OA 
HETATM   15  C   UNL     1     -10.204  10.383  66.230  1.00  0.00    -0.222 C  
HETATM   16  C   UNL     1      -8.752  10.353  65.712  1.00  0.00    -0.168 C  
HETATM   17  C   UNL     1      -9.365  11.798  68.099  1.00  0.00    -0.190 C  
HETATM   18  C   UNL     1      -7.977  11.739  67.459  1.00  0.00    -0.148 C  
BRANCH  13  19
HETATM   19  C   UNL     1      -9.712   9.261  68.498  1.00  0.00    -0.150 C  
BRANCH  19  20
HETATM   20  C   UNL     1     -10.518   8.014  68.079  1.00  0.00    -0.184 C  
BRANCH  20  21
HETATM   21  O   UNL     1      -9.724   6.872  67.774  1.00  0.00    -0.128 OA 
BRANCH  21  22
HETATM   22  C   UNL     1     -10.227   5.669  68.417  1.00  0.00    -0.191 C  
BRANCH  22  23
HETATM   23  C   UNL     1      -9.414   5.273  69.652  1.00  0.00    -0.196 C  
BRANCH  23  24
HETATM   24  C   UNL     1      -8.564   3.993  69.556  1.00  0.00    -0.111 C  
HETATM   25  C   UNL     1      -7.965   3.707  70.962  1.00  0.00    -0.062 C  
HETATM   26  C   UNL     1      -6.467   4.006  71.110  1.00  0.00    -0.026 C  
HETATM   27  C   UNL     1      -5.751   4.019  69.759  1.00  0.00    -0.017 C  
HETATM   28  C   UNL     1      -6.361   5.149  68.879  1.00  0.00    -0.031 C  
HETATM   29  C   UNL     1      -7.435   4.083  68.497  1.00  0.00    -0.059 C  
HETATM   30  C   UNL     1      -6.247   3.015  68.636  1.00  0.00    -0.029 C  
HETATM   31  C   UNL     1      -6.609   1.579  69.024  1.00  0.00    -0.029 C  
HETATM   32  C   UNL     1      -5.254   2.911  67.456  1.00  0.00    -0.012 C  
ENDBRANCH  23  24
ENDBRANCH  22  23
ENDBRANCH  21  22
ENDBRANCH  20  21
ENDBRANCH  19  20
ENDBRANCH  13  19
ENDBRANCH  12  13
ENDBRANCH   7  12
ENDBRANCH   2   3
TORSDOF 10
ENDMDL
MODEL      211
REMARK 921   NORMALIZED FREE ENERGY PREDICTED BY IDOCK:   -3.52 KCAL/MOL
REMARK 922        TOTAL FREE ENERGY PREDICTED BY IDOCK:   -6.85 KCAL/MOL
REMARK 923 INTER-LIGAND FREE ENERGY PREDICTED BY IDOCK:   -5.46 KCAL/MOL
REMARK 924 INTRA-LIGAND FREE ENERGY PREDICTED BY IDOCK:   -1.40 KCAL/MOL
REMARK 927      BINDING AFFINITY PREDICTED BY RF-SCORE:    0.00 PKD
ROOT
HETATM    1  C   UNL     1     -12.946  10.302  71.701  1.00  0.00    -0.465 C  
HETATM    2  O   UNL     1     -11.894  11.033  71.089  1.00  0.00    -0.239 OA 
ENDROOT
BRANCH   2   3
HETATM    3  C   UNL     1     -11.124  10.400  70.154  1.00  0.00    -0.314 A  
HETATM    4  C   UNL     1     -11.300  10.363  68.764  1.00  0.00    -0.214 A  
HETATM    5  C   UNL     1     -10.089   9.651  70.725  1.00  0.00    -0.293 A  
HETATM    6  C   UNL     1     -10.449   9.563  67.990  1.00  0.00    -0.279 A  
HETATM    7  C   UNL     1      -9.498   8.695  68.572  1.00  0.00    -0.146 A  
HETATM    8 BR   UNL     1      -7.852   7.946  70.853  1.00  0.00    -0.091 Br 
HETATM    9  C   UNL     1      -9.270   8.828  69.949  1.00  0.00    -0.157 A  
BRANCH   4  10
HETATM   10  O   UNL     1     -12.279  11.122  68.189  1.00  0.00    -0.612 OA 
HETATM   11  C   UNL     1     -11.884  12.428  67.766  1.00  0.00    -0.298 C  
ENDBRANCH   4  10
BRANCH   7  12
HETATM   12  C   UNL     1      -8.893   7.582  67.729  1.00  0.00    -0.132 C  
BRANCH  12  13
HETATM   13  N   UNL     1      -7.794   8.068  66.691  1.00  0.00    -0.097 N  
HETATM   14  O   UNL     1      -7.111  10.345  64.916  1.00  0.00    -0.122 OA 
HETATM   15  C   UNL     1      -8.443   8.327  65.293  1.00  0.00    -0.162 C  
HETATM   16  C   UNL     1      -7.476   9.082  64.360  1.00  0.00    -0.105 C  
HETATM   17  C   UNL     1      -7.289   9.459  67.185  1.00  0.00    -0.087 C  
HETATM   18  C   UNL     1      -6.424  10.191  66.158  1.00  0.00    -0.096 C  
BRANCH  13  19
HETATM   19  C   UNL     1      -6.628   7.027  66.581  1.00  0.00    -0.052 C  
BRANCH  19  20
HETATM   20  C   UNL     1      -7.122   5.693  65.984  1.00  0.00    -0.068 C  
BRANCH  20  21
HETATM   21  O   UNL     1      -7.079   4.591  66.885  1.00  0.00    -0.065 OA 
BRANCH  21  22
HETATM   22  C   UNL     1      -6.358   4.912  68.106  1.00  0.00    -0.036 C  
BRANCH  22  23
HETATM   23  C   UNL     1      -6.461   3.808  69.162  1.00  0.00    -0.033 C  
BRANCH  23  24
HETATM   24  C   UNL     1      -7.179   4.156  70.478  1.00  0.00    -0.041 C  
HETATM   25  C   UNL     1      -7.333   2.847  71.303  1.00  0.00    -0.033 C  
HETATM   26  C   UNL     1      -8.752   2.264  71.349  1.00  0.00    -0.108 C  
HETATM   27  C   UNL     1      -9.814   3.320  71.039  1.00  0.00    -0.113 C  
HETATM   28  C   UNL     1      -9.582   3.854  69.595  1.00  0.00    -0.259 C  
HETATM   29  C   UNL     1      -8.562   4.825  70.266  1.00  0.00    -0.110 C  
HETATM   30  C   UNL     1      -9.558   4.807  71.522  1.00  0.00    -0.220 C  
HETATM   31  C   UNL     1      -8.969   5.050  72.914  1.00  0.00    -0.118 C  
HETATM   32  C   UNL     1     -10.826   5.686  71.427  1.00  0.00    -0.290 C  
ENDBRANCH  23  24
ENDBRANCH  22  23
ENDBRANCH  21  22
ENDBRANCH  20  21
ENDBRANCH  19  20
ENDBRANCH  13  19
ENDBRANCH  12  13
ENDBRANCH   7  12
ENDBRANCH   2   3
TORSDOF 10
ENDMDL
MODEL      212
REMARK 921   NORMALIZED FREE ENERGY PREDICTED BY IDOCK:   -3.52 KCAL/MOL
REMARK 922        TOTAL FREE ENERGY PREDICTED BY IDOCK:   -6.85 KCAL/MOL
REMARK 923 INTER-LIGAND FREE ENERGY PREDICTED BY IDOCK:   -6.69 KCAL/MOL
REMARK 924 INTRA-LIGAND FREE ENERGY PREDICTED BY IDOCK:   -0.16 KCAL/MOL
REMARK 927      BINDING AFFINITY PREDICTED BY RF-SCORE:    0.00 PKD
ROOT
HETATM    1  C   UNL     1     -12.088  13.895  66.513  1.00  0.00    -0.449 C  
HETATM    2  O   UNL     1     -12.227  13.800  67.923  1.00  0.00    -0.327 OA 
ENDROOT
BRANCH   2   3
HETATM    3  C   UNL     1     -11.906  12.617  68.527  1.00  0.00    -0.300 A  
HETATM    4  C   UNL     1     -11.860  12.325  69.897  1.00  0.00    -0.311 A  
HETATM    5  C   UNL     1     -11.511  11.634  67.612  1.00  0.00    -0.373 A  
HETATM    6  C   UNL     1     -11.402  11.066  70.310  1.00  0.00    -0.291 A  
HETATM    7  C   UNL     1     -10.867  10.125  69.403  1.00  0.00    -0.274 A  
HETATM    8 BR   UNL     1     -10.613   9.134  66.677  1.00  0.00    -0.053 Br 
HETATM    9  C   UNL     1     -11.022  10.397  68.036  1.00  0.00    -0.291 A  
BRANCH   4  10
HETATM   10  O   UNL     1     -12.282  13.259  70.799  1.00  0.00    -0.358 OA 
HETATM   11  C   UNL     1     -13.057  12.761  71.890  1.00  0.00    -0.371 C  
ENDBRANCH   4  10
BRANCH   7  12
HETATM   12  C   UNL     1     -10.036   8.967  69.936  1.00  0.00    -0.201 C  
BRANCH  12  13
HETATM   13  N   UNL     1      -8.481   9.081  69.635  1.00  0.00    -0.122 N  
HETATM   14  O   UNL     1      -6.003   7.453  69.534  1.00  0.00    -0.026 OA 
HETATM   15  C   UNL     1      -7.653   8.649  70.890  1.00  0.00    -0.090 C  
HETATM   16  C   UNL     1      -6.165   8.458  70.536  1.00  0.00    -0.035 C  
HETATM   17  C   UNL     1      -8.155   8.028  68.532  1.00  0.00    -0.125 C  
HETATM   18  C   UNL     1      -6.656   7.817  68.317  1.00  0.00    -0.058 C  
BRANCH  13  19
HETATM   19  C   UNL     1      -8.101  10.534  69.189  1.00  0.00    -0.152 C  
BRANCH  19  20
HETATM   20  C   UNL     1      -6.908  11.077  70.004  1.00  0.00    -0.040 C  
BRANCH  20  21
HETATM   21  O   UNL     1      -6.185  12.124  69.366  1.00  0.00    -0.088 OA 
BRANCH  21  22
HETATM   22  C   UNL     1      -6.288  13.380  70.091  1.00  0.00     0.011 C  
BRANCH  22  23
HETATM   23  C   UNL     1      -6.395  14.593  69.163  1.00  0.00    -0.106 C  
BRANCH  23  24
HETATM   24  C   UNL     1      -7.784  15.235  68.999  1.00  0.00    -0.183 C  
HETATM   25  C   UNL     1      -8.584  14.392  67.966  1.00  0.00    -0.166 C  
HETATM   26  C   UNL     1      -8.754  15.037  66.584  1.00  0.00    -0.289 C  
HETATM   27  C   UNL     1      -8.577  16.555  66.636  1.00  0.00    -0.289 C  
HETATM   28  C   UNL     1      -7.133  16.875  67.120  1.00  0.00    -0.216 C  
HETATM   29  C   UNL     1      -7.726  16.719  68.554  1.00  0.00    -0.223 C  
HETATM   30  C   UNL     1      -9.073  17.325  67.930  1.00  0.00    -0.239 C  
HETATM   31  C   UNL     1     -10.407  16.930  68.570  1.00  0.00    -0.336 C  
HETATM   32  C   UNL     1      -9.126  18.856  67.723  1.00  0.00    -0.322 C  
ENDBRANCH  23  24
ENDBRANCH  22  23
ENDBRANCH  21  22
ENDBRANCH  20  21
ENDBRANCH  19  20
ENDBRANCH  13  19
ENDBRANCH  12  13
ENDBRANCH   7  12
ENDBRANCH   2   3
TORSDOF 10
ENDMDL
MODEL      213
REMARK 921   NORMALIZED FREE ENERGY PREDICTED BY IDOCK:   -3.51 KCAL/MOL
REMARK 922        TOTAL FREE ENERGY PREDICTED BY IDOCK:   -6.84 KCAL/MOL
REMARK 923 INTER-LIGAND FREE ENERGY PREDICTED BY IDOCK:   -5.91 KCAL/MOL
REMARK 924 INTRA-LIGAND FREE ENERGY PREDICTED BY IDOCK:   -0.93 KCAL/MOL
REMARK 927      BINDING AFFINITY PREDICTED BY RF-SCORE:    0.00 PKD
ROOT
HETATM    1  C   UNL     1     -11.785  14.929  65.673  1.00  0.00    -0.194 C  
HETATM    2  O   UNL     1     -12.260  13.637  65.326  1.00  0.00    -0.388 OA 
ENDROOT
BRANCH   2   3
HETATM    3  C   UNL     1     -11.610  12.549  65.838  1.00  0.00    -0.405 A  
HETATM    4  C   UNL     1     -10.717  11.686  65.188  1.00  0.00    -0.296 A  
HETATM    5  C   UNL     1     -11.982  12.270  67.158  1.00  0.00    -0.207 A  
HETATM    6  C   UNL     1     -10.238  10.560  65.872  1.00  0.00    -0.311 A  
HETATM    7  C   UNL     1     -10.720  10.194  67.149  1.00  0.00    -0.286 A  
HETATM    8 BR   UNL     1     -12.044  10.932  69.635  1.00  0.00    -0.367 Br 
HETATM    9  C   UNL     1     -11.528  11.125  67.817  1.00  0.00    -0.272 A  
BRANCH   4  10
HETATM   10  O   UNL     1     -10.313  11.968  63.915  1.00  0.00    -0.333 OA 
HETATM   11  C   UNL     1      -9.468  10.993  63.302  1.00  0.00    -0.328 C  
ENDBRANCH   4  10
BRANCH   7  12
HETATM   12  C   UNL     1     -10.471   8.784  67.662  1.00  0.00    -0.244 C  
BRANCH  12  13
HETATM   13  N   UNL     1      -9.181   8.635  68.576  1.00  0.00    -0.138 N  
HETATM   14  O   UNL     1      -8.257   8.976  71.374  1.00  0.00    -0.268 OA 
HETATM   15  C   UNL     1      -8.815  10.009  69.226  1.00  0.00    -0.178 C  
HETATM   16  C   UNL     1      -7.767   9.835  70.343  1.00  0.00    -0.137 C  
HETATM   17  C   UNL     1      -9.572   7.698  69.761  1.00  0.00    -0.163 C  
HETATM   18  C   UNL     1      -8.528   7.665  70.878  1.00  0.00    -0.124 C  
BRANCH  13  19
HETATM   19  C   UNL     1      -7.974   8.067  67.753  1.00  0.00    -0.127 C  
BRANCH  19  20
HETATM   20  C   UNL     1      -7.676   8.943  66.519  1.00  0.00    -0.099 C  
BRANCH  20  21
HETATM   21  O   UNL     1      -6.295   9.042  66.185  1.00  0.00    -0.062 OA 
BRANCH  21  22
HETATM   22  C   UNL     1      -5.802  10.404  66.300  1.00  0.00    -0.078 C  
BRANCH  22  23
HETATM   23  C   UNL     1      -6.658  11.268  67.230  1.00  0.00    -0.093 C  
BRANCH  23  24
HETATM   24  C   UNL     1      -6.280  12.755  67.357  1.00  0.00    -0.133 C  
HETATM   25  C   UNL     1      -5.757  12.997  68.802  1.00  0.00    -0.072 C  
HETATM   26  C   UNL     1      -6.719  13.752  69.729  1.00  0.00     0.027 C  
HETATM   27  C   UNL     1      -7.749  14.566  68.944  1.00  0.00    -0.132 C  
HETATM   28  C   UNL     1      -8.607  13.592  68.085  1.00  0.00    -0.176 C  
HETATM   29  C   UNL     1      -7.454  13.717  67.041  1.00  0.00     0.292 C  
HETATM   30  C   UNL     1      -7.300  15.222  67.573  1.00  0.00    -0.223 C  
HETATM   31  C   UNL     1      -5.924  15.885  67.476  1.00  0.00    -0.162 C  
HETATM   32  C   UNL     1      -8.321  16.259  67.053  1.00  0.00    -0.237 C  
ENDBRANCH  23  24
ENDBRANCH  22  23
ENDBRANCH  21  22
ENDBRANCH  20  21
ENDBRANCH  19  20
ENDBRANCH  13  19
ENDBRANCH  12  13
ENDBRANCH   7  12
ENDBRANCH   2   3
TORSDOF 10
ENDMDL
MODEL      214
REMARK 921   NORMALIZED FREE ENERGY PREDICTED BY IDOCK:   -3.51 KCAL/MOL
REMARK 922        TOTAL FREE ENERGY PREDICTED BY IDOCK:   -6.83 KCAL/MOL
REMARK 923 INTER-LIGAND FREE ENERGY PREDICTED BY IDOCK:   -5.85 KCAL/MOL
REMARK 924 INTRA-LIGAND FREE ENERGY PREDICTED BY IDOCK:   -0.98 KCAL/MOL
REMARK 927      BINDING AFFINITY PREDICTED BY RF-SCORE:    0.00 PKD
ROOT
HETATM    1  C   UNL     1      -8.041   8.709  62.674  1.00  0.00    -0.177 C  
HETATM    2  O   UNL     1      -7.376   7.714  63.440  1.00  0.00    -0.078 OA 
ENDROOT
BRANCH   2   3
HETATM    3  C   UNL     1      -7.533   7.730  64.798  1.00  0.00    -0.092 A  
HETATM    4  C   UNL     1      -6.688   8.296  65.762  1.00  0.00    -0.053 A  
HETATM    5  C   UNL     1      -8.658   7.013  65.220  1.00  0.00     0.001 A  
HETATM    6  C   UNL     1      -6.983   8.109  67.120  1.00  0.00    -0.075 A  
HETATM    7  C   UNL     1      -8.031   7.266  67.553  1.00  0.00    -0.113 A  
HETATM    8 BR   UNL     1     -10.534   5.888  66.993  1.00  0.00    -0.384 Br 
HETATM    9  C   UNL     1      -8.921   6.801  66.575  1.00  0.00    -0.149 A  
BRANCH   4  10
HETATM   10  O   UNL     1      -5.610   9.034  65.365  1.00  0.00    -0.045 OA 
HETATM   11  C   UNL     1      -5.680  10.433  65.645  1.00  0.00    -0.105 C  
ENDBRANCH   4  10
BRANCH   7  12
HETATM   12  C   UNL     1      -8.056   6.793  68.998  1.00  0.00    -0.117 C  
BRANCH  12  13
HETATM   13  N   UNL     1      -8.292   7.946  70.064  1.00  0.00    -0.120 N  
HETATM   14  O   UNL     1      -7.972   8.552  72.950  1.00  0.00    -0.335 OA 
HETATM   15  C   UNL     1      -9.268   7.459  71.184  1.00  0.00    -0.155 C  
HETATM   16  C   UNL     1      -9.276   8.434  72.379  1.00  0.00    -0.275 C  
HETATM   17  C   UNL     1      -6.925   8.194  70.773  1.00  0.00    -0.041 C  
HETATM   18  C   UNL     1      -7.036   9.084  72.012  1.00  0.00     0.141 C  
BRANCH  13  19
HETATM   19  C   UNL     1      -8.838   9.243  69.374  1.00  0.00    -0.149 C  
BRANCH  19  20
HETATM   20  C   UNL     1     -10.380   9.243  69.321  1.00  0.00    -0.215 C  
BRANCH  20  21
HETATM   21  O   UNL     1     -10.938  10.143  68.369  1.00  0.00    -0.242 OA 
BRANCH  21  22
HETATM   22  C   UNL     1     -10.198  10.144  67.118  1.00  0.00    -0.225 C  
BRANCH  22  23
HETATM   23  C   UNL     1     -10.106  11.534  66.484  1.00  0.00    -0.246 C  
BRANCH  23  24
HETATM   24  C   UNL     1     -10.768  12.700  67.241  1.00  0.00    -0.259 C  
HETATM   25  C   UNL     1     -11.773  13.389  66.276  1.00  0.00    -0.405 C  
HETATM   26  C   UNL     1     -11.326  14.752  65.728  1.00  0.00    -0.336 C  
HETATM   27  C   UNL     1     -10.262  15.402  66.613  1.00  0.00    -0.281 C  
HETATM   28  C   UNL     1      -9.006  14.483  66.642  1.00  0.00    -0.247 C  
HETATM   29  C   UNL     1      -9.751  13.733  67.790  1.00  0.00    -0.230 C  
HETATM   30  C   UNL     1     -10.343  15.171  68.179  1.00  0.00    -0.239 C  
HETATM   31  C   UNL     1     -11.707  15.227  68.873  1.00  0.00    -0.362 C  
HETATM   32  C   UNL     1      -9.415  16.125  68.966  1.00  0.00    -0.246 C  
ENDBRANCH  23  24
ENDBRANCH  22  23
ENDBRANCH  21  22
ENDBRANCH  20  21
ENDBRANCH  19  20
ENDBRANCH  13  19
ENDBRANCH  12  13
ENDBRANCH   7  12
ENDBRANCH   2   3
TORSDOF 10
ENDMDL
MODEL      215
REMARK 921   NORMALIZED FREE ENERGY PREDICTED BY IDOCK:   -3.50 KCAL/MOL
REMARK 922        TOTAL FREE ENERGY PREDICTED BY IDOCK:   -6.83 KCAL/MOL
REMARK 923 INTER-LIGAND FREE ENERGY PREDICTED BY IDOCK:   -6.36 KCAL/MOL
REMARK 924 INTRA-LIGAND FREE ENERGY PREDICTED BY IDOCK:   -0.46 KCAL/MOL
REMARK 927      BINDING AFFINITY PREDICTED BY RF-SCORE:    0.00 PKD
ROOT
HETATM    1  C   UNL     1     -10.190   6.403  73.681  1.00  0.00    -0.269 C  
HETATM    2  O   UNL     1     -11.306   6.213  72.824  1.00  0.00    -0.264 OA 
ENDROOT
BRANCH   2   3
HETATM    3  C   UNL     1     -11.205   6.631  71.527  1.00  0.00    -0.270 A  
HETATM    4  C   UNL     1     -10.841   5.882  70.399  1.00  0.00    -0.308 A  
HETATM    5  C   UNL     1     -11.434   8.004  71.382  1.00  0.00    -0.293 A  
HETATM    6  C   UNL     1     -10.697   6.533  69.166  1.00  0.00    -0.323 A  
HETATM    7  C   UNL     1     -10.783   7.938  69.043  1.00  0.00    -0.113 A  
HETATM    8 BR   UNL     1     -11.690  10.496  70.097  1.00  0.00    -0.437 Br 
HETATM    9  C   UNL     1     -11.251   8.649  70.157  1.00  0.00    -0.146 A  
BRANCH   4  10
HETATM   10  O   UNL     1     -10.655   4.535  70.517  1.00  0.00     0.051 OA 
HETATM   11  C   UNL     1      -9.304   4.108  70.697  1.00  0.00    -0.148 C  
ENDBRANCH   4  10
BRANCH   7  12
HETATM   12  C   UNL     1     -10.237   8.610  67.792  1.00  0.00    -0.225 C  
BRANCH  12  13
HETATM   13  N   UNL     1      -8.654   8.582  67.670  1.00  0.00    -0.132 N  
HETATM   14  O   UNL     1      -6.378   6.713  67.314  1.00  0.00    -0.034 OA 
HETATM   15  C   UNL     1      -8.036   7.711  68.812  1.00  0.00    -0.127 C  
HETATM   16  C   UNL     1      -6.546   7.417  68.544  1.00  0.00    -0.049 C  
HETATM   17  C   UNL     1      -8.316   7.837  66.341  1.00  0.00    -0.131 C  
HETATM   18  C   UNL     1      -6.834   7.485  66.202  1.00  0.00    -0.061 C  
BRANCH  13  19
HETATM   19  C   UNL     1      -8.064  10.034  67.694  1.00  0.00    -0.110 C  
BRANCH  19  20
HETATM   20  C   UNL     1      -9.176  11.088  67.867  1.00  0.00    -0.155 C  
BRANCH  20  21
HETATM   21  O   UNL     1      -9.474  11.831  66.689  1.00  0.00    -0.194 OA 
BRANCH  21  22
HETATM   22  C   UNL     1     -10.259  13.020  66.977  1.00  0.00    -0.245 C  
BRANCH  22  23
HETATM   23  C   UNL     1      -9.816  13.727  68.261  1.00  0.00    -0.232 C  
BRANCH  23  24
HETATM   24  C   UNL     1      -9.825  15.266  68.258  1.00  0.00    -0.218 C  
HETATM   25  C   UNL     1     -10.010  15.743  66.790  1.00  0.00    -0.260 C  
HETATM   26  C   UNL     1      -8.752  16.319  66.125  1.00  0.00    -0.353 C  
HETATM   27  C   UNL     1      -7.727  16.795  67.155  1.00  0.00    -0.213 C  
HETATM   28  C   UNL     1      -7.278  15.578  68.014  1.00  0.00    -0.132 C  
HETATM   29  C   UNL     1      -8.544  15.889  68.870  1.00  0.00    -0.221 C  
HETATM   30  C   UNL     1      -8.260  17.425  68.508  1.00  0.00    -0.268 C  
HETATM   31  C   UNL     1      -9.450  18.388  68.468  1.00  0.00    -0.355 C  
HETATM   32  C   UNL     1      -7.147  18.142  69.306  1.00  0.00    -0.130 C  
ENDBRANCH  23  24
ENDBRANCH  22  23
ENDBRANCH  21  22
ENDBRANCH  20  21
ENDBRANCH  19  20
ENDBRANCH  13  19
ENDBRANCH  12  13
ENDBRANCH   7  12
ENDBRANCH   2   3
TORSDOF 10
ENDMDL
MODEL      216
REMARK 921   NORMALIZED FREE ENERGY PREDICTED BY IDOCK:   -3.50 KCAL/MOL
REMARK 922        TOTAL FREE ENERGY PREDICTED BY IDOCK:   -6.82 KCAL/MOL
REMARK 923 INTER-LIGAND FREE ENERGY PREDICTED BY IDOCK:   -6.09 KCAL/MOL
REMARK 924 INTRA-LIGAND FREE ENERGY PREDICTED BY IDOCK:   -0.73 KCAL/MOL
REMARK 927      BINDING AFFINITY PREDICTED BY RF-SCORE:    0.00 PKD
ROOT
HETATM    1  C   UNL     1     -10.295   4.812  73.207  1.00  0.00    -0.182 C  
HETATM    2  O   UNL     1      -9.184   4.721  72.328  1.00  0.00    -0.125 OA 
ENDROOT
BRANCH   2   3
HETATM    3  C   UNL     1      -8.870   5.811  71.565  1.00  0.00    -0.136 A  
HETATM    4  C   UNL     1      -9.379   6.168  70.310  1.00  0.00    -0.160 A  
HETATM    5  C   UNL     1      -7.853   6.589  72.130  1.00  0.00    -0.098 A  
HETATM    6  C   UNL     1      -8.842   7.281  69.648  1.00  0.00    -0.141 A  
HETATM    7  C   UNL     1      -7.720   7.982  70.145  1.00  0.00    -0.087 A  
HETATM    8 BR   UNL     1      -5.993   8.689  72.380  1.00  0.00    -0.071 Br 
HETATM    9  C   UNL     1      -7.300   7.674  71.447  1.00  0.00    -0.074 A  
BRANCH   4  10
HETATM   10  O   UNL     1     -10.400   5.443  69.765  1.00  0.00    -0.258 OA 
HETATM   11  C   UNL     1     -11.226   6.140  68.832  1.00  0.00    -0.261 C  
ENDBRANCH   4  10
BRANCH   7  12
HETATM   12  C   UNL     1      -6.949   8.906  69.215  1.00  0.00    -0.057 C  
BRANCH  12  13
HETATM   13  N   UNL     1      -7.775  10.162  68.702  1.00  0.00    -0.088 N  
HETATM   14  O   UNL     1     -10.421  10.913  67.590  1.00  0.00    -0.188 OA 
HETATM   15  C   UNL     1      -8.198   9.962  67.210  1.00  0.00    -0.121 C  
HETATM   16  C   UNL     1      -9.246  11.008  66.783  1.00  0.00    -0.161 C  
HETATM   17  C   UNL     1      -9.105  10.191  69.517  1.00  0.00    -0.195 C  
HETATM   18  C   UNL     1     -10.135  11.178  68.963  1.00  0.00    -0.155 C  
BRANCH  13  19
HETATM   19  C   UNL     1      -6.952  11.484  68.876  1.00  0.00    -0.100 C  
BRANCH  19  20
HETATM   20  C   UNL     1      -5.935  11.666  67.730  1.00  0.00    -0.052 C  
BRANCH  20  21
HETATM   21  O   UNL     1      -5.944  12.958  67.132  1.00  0.00    -0.325 OA 
BRANCH  21  22
HETATM   22  C   UNL     1      -6.527  13.961  68.007  1.00  0.00    -0.145 C  
BRANCH  22  23
HETATM   23  C   UNL     1      -7.364  14.995  67.249  1.00  0.00    -0.195 C  
BRANCH  23  24
HETATM   24  C   UNL     1      -8.820  14.620  66.919  1.00  0.00    -0.267 C  
HETATM   25  C   UNL     1      -9.375  15.677  65.924  1.00  0.00    -0.357 C  
HETATM   26  C   UNL     1     -10.372  16.680  66.522  1.00  0.00    -0.300 C  
HETATM   27  C   UNL     1     -11.020  16.148  67.801  1.00  0.00    -0.293 C  
HETATM   28  C   UNL     1      -9.908  15.913  68.865  1.00  0.00    -0.226 C  
HETATM   29  C   UNL     1      -9.729  14.527  68.171  1.00  0.00    -0.219 C  
HETATM   30  C   UNL     1     -11.309  14.593  67.906  1.00  0.00    -0.332 C  
HETATM   31  C   UNL     1     -11.868  13.852  66.688  1.00  0.00    -0.447 C  
HETATM   32  C   UNL     1     -12.237  14.243  69.092  1.00  0.00    -0.272 C  
ENDBRANCH  23  24
ENDBRANCH  22  23
ENDBRANCH  21  22
ENDBRANCH  20  21
ENDBRANCH  19  20
ENDBRANCH  13  19
ENDBRANCH  12  13
ENDBRANCH   7  12
ENDBRANCH   2   3
TORSDOF 10
ENDMDL
MODEL      217
REMARK 921   NORMALIZED FREE ENERGY PREDICTED BY IDOCK:   -3.49 KCAL/MOL
REMARK 922        TOTAL FREE ENERGY PREDICTED BY IDOCK:   -6.80 KCAL/MOL
REMARK 923 INTER-LIGAND FREE ENERGY PREDICTED BY IDOCK:   -6.64 KCAL/MOL
REMARK 924 INTRA-LIGAND FREE ENERGY PREDICTED BY IDOCK:   -0.17 KCAL/MOL
REMARK 927      BINDING AFFINITY PREDICTED BY RF-SCORE:    0.00 PKD
ROOT
HETATM    1  C   UNL     1      -8.724   9.580  63.184  1.00  0.00    -0.226 C  
HETATM    2  O   UNL     1      -8.601  10.546  64.217  1.00  0.00    -0.179 OA 
ENDROOT
BRANCH   2   3
HETATM    3  C   UNL     1      -8.660  10.118  65.514  1.00  0.00    -0.151 A  
HETATM    4  C   UNL     1      -7.974  10.623  66.627  1.00  0.00    -0.134 A  
HETATM    5  C   UNL     1      -9.465   8.984  65.673  1.00  0.00    -0.273 A  
HETATM    6  C   UNL     1      -8.098   9.967  67.860  1.00  0.00    -0.109 A  
HETATM    7  C   UNL     1      -8.790   8.743  67.994  1.00  0.00    -0.141 A  
HETATM    8 BR   UNL     1     -10.756   6.850  66.979  1.00  0.00    -0.406 Br 
HETATM    9  C   UNL     1      -9.552   8.317  66.896  1.00  0.00    -0.207 A  
BRANCH   4  10
HETATM   10  O   UNL     1      -7.218  11.753  66.497  1.00  0.00    -0.038 OA 
HETATM   11  C   UNL     1      -7.626  12.866  67.293  1.00  0.00    -0.099 C  
ENDBRANCH   4  10
BRANCH   7  12
HETATM   12  C   UNL     1      -8.562   7.891  69.233  1.00  0.00    -0.138 C  
BRANCH  12  13
HETATM   13  N   UNL     1      -9.359   8.374  70.518  1.00  0.00    -0.158 N  
HETATM   14  O   UNL     1     -10.149   7.490  73.238  1.00  0.00    -0.271 OA 
HETATM   15  C   UNL     1     -10.541   7.396  70.824  1.00  0.00    -0.223 C  
HETATM   16  C   UNL     1     -11.137   7.662  72.221  1.00  0.00    -0.286 C  
HETATM   17  C   UNL     1      -8.384   8.248  71.730  1.00  0.00    -0.148 C  
HETATM   18  C   UNL     1      -9.074   8.417  73.084  1.00  0.00    -0.155 C  
BRANCH  13  19
HETATM   19  C   UNL     1      -9.882   9.840  70.336  1.00  0.00    -0.209 C  
BRANCH  19  20
HETATM   20  C   UNL     1     -11.401   9.929  70.588  1.00  0.00    -0.339 C  
BRANCH  20  21
HETATM   21  O   UNL     1     -12.073  10.912  69.806  1.00  0.00    -0.309 OA 
BRANCH  21  22
HETATM   22  C   UNL     1     -11.217  11.464  68.769  1.00  0.00    -0.247 C  
BRANCH  22  23
HETATM   23  C   UNL     1     -11.077  12.985  68.863  1.00  0.00    -0.307 C  
BRANCH  23  24
HETATM   24  C   UNL     1     -12.230  13.760  69.528  1.00  0.00    -0.344 C  
HETATM   25  C   UNL     1     -12.245  15.198  68.937  1.00  0.00    -0.138 C  
HETATM   26  C   UNL     1     -11.727  16.297  69.876  1.00  0.00    -0.062 C  
HETATM   27  C   UNL     1     -11.792  15.873  71.343  1.00  0.00    -0.524 C  
HETATM   28  C   UNL     1     -10.881  14.627  71.545  1.00  0.00     0.920 C  
HETATM   29  C   UNL     1     -12.124  13.812  71.073  1.00  0.00    -0.324 C  
HETATM   30  C   UNL     1     -12.991  14.946  71.805  1.00  0.00    -0.417 C  
HETATM   31  C   UNL     1     -14.401  15.228  71.278  1.00  0.00    -0.488 C  
HETATM   32  C   UNL     1     -13.111  14.856  73.343  1.00  0.00    -0.506 C  
ENDBRANCH  23  24
ENDBRANCH  22  23
ENDBRANCH  21  22
ENDBRANCH  20  21
ENDBRANCH  19  20
ENDBRANCH  13  19
ENDBRANCH  12  13
ENDBRANCH   7  12
ENDBRANCH   2   3
TORSDOF 10
ENDMDL
MODEL      218
REMARK 921   NORMALIZED FREE ENERGY PREDICTED BY IDOCK:   -3.45 KCAL/MOL
REMARK 922        TOTAL FREE ENERGY PREDICTED BY IDOCK:   -6.74 KCAL/MOL
REMARK 923 INTER-LIGAND FREE ENERGY PREDICTED BY IDOCK:   -6.33 KCAL/MOL
REMARK 924 INTRA-LIGAND FREE ENERGY PREDICTED BY IDOCK:   -0.41 KCAL/MOL
REMARK 927      BINDING AFFINITY PREDICTED BY RF-SCORE:    0.00 PKD
ROOT
HETATM    1  C   UNL     1      -9.990   3.066  71.838  1.00  0.00    -0.140 C  
HETATM    2  O   UNL     1      -9.226   3.998  72.588  1.00  0.00    -0.107 OA 
ENDROOT
BRANCH   2   3
HETATM    3  C   UNL     1      -9.069   5.260  72.086  1.00  0.00    -0.136 A  
HETATM    4  C   UNL     1      -9.987   6.319  72.096  1.00  0.00    -0.166 A  
HETATM    5  C   UNL     1      -7.846   5.430  71.427  1.00  0.00    -0.110 A  
HETATM    6  C   UNL     1      -9.662   7.509  71.429  1.00  0.00    -0.180 A  
HETATM    7  C   UNL     1      -8.496   7.635  70.642  1.00  0.00    -0.127 A  
HETATM    8 BR   UNL     1      -5.814   6.723  69.969  1.00  0.00    -0.023 Br 
HETATM    9  C   UNL     1      -7.548   6.606  70.735  1.00  0.00    -0.092 A  
BRANCH   4  10
HETATM   10  O   UNL     1     -11.166   6.182  72.771  1.00  0.00    -0.254 OA 
HETATM   11  C   UNL     1     -12.342   6.532  72.040  1.00  0.00    -0.260 C  
ENDBRANCH   4  10
BRANCH   7  12
HETATM   12  C   UNL     1      -8.393   8.777  69.642  1.00  0.00    -0.126 C  
BRANCH  12  13
HETATM   13  N   UNL     1      -9.081   8.487  68.241  1.00  0.00    -0.139 N  
HETATM   14  O   UNL     1      -9.709   6.273  66.368  1.00  0.00    -0.160 OA 
HETATM   15  C   UNL     1      -8.052   7.842  67.255  1.00  0.00    -0.119 C  
HETATM   16  C   UNL     1      -8.758   7.275  66.007  1.00  0.00    -0.151 C  
HETATM   17  C   UNL     1     -10.169   7.397  68.488  1.00  0.00    -0.183 C  
HETATM   18  C   UNL     1     -10.742   6.808  67.198  1.00  0.00    -0.371 C  
BRANCH  13  19
HETATM   19  C   UNL     1      -9.690   9.797  67.633  1.00  0.00    -0.156 C  
BRANCH  19  20
HETATM   20  C   UNL     1      -8.724  10.989  67.789  1.00  0.00    -0.130 C  
BRANCH  20  21
HETATM   21  O   UNL     1      -9.262  12.095  68.507  1.00  0.00    -0.179 OA 
BRANCH  21  22
HETATM   22  C   UNL     1     -10.573  12.481  68.013  1.00  0.00    -0.223 C  
BRANCH  22  23
HETATM   23  C   UNL     1     -10.949  13.917  68.388  1.00  0.00    -0.272 C  
BRANCH  23  24
HETATM   24  C   UNL     1     -10.866  14.980  67.278  1.00  0.00    -0.310 C  
HETATM   25  C   UNL     1      -9.536  14.762  66.502  1.00  0.00    -0.304 C  
HETATM   26  C   UNL     1      -8.436  15.795  66.783  1.00  0.00    -0.304 C  
HETATM   27  C   UNL     1      -9.006  17.100  67.341  1.00  0.00    -0.223 C  
HETATM   28  C   UNL     1      -9.713  16.799  68.694  1.00  0.00    -0.259 C  
HETATM   29  C   UNL     1     -10.946  16.434  67.812  1.00  0.00    -0.261 C  
HETATM   30  C   UNL     1     -10.425  17.582  66.822  1.00  0.00    -0.270 C  
HETATM   31  C   UNL     1     -10.759  17.458  65.334  1.00  0.00    -0.040 C  
HETATM   32  C   UNL     1     -10.732  19.044  67.218  1.00  0.00    -0.556 C  
ENDBRANCH  23  24
ENDBRANCH  22  23
ENDBRANCH  21  22
ENDBRANCH  20  21
ENDBRANCH  19  20
ENDBRANCH  13  19
ENDBRANCH  12  13
ENDBRANCH   7  12
ENDBRANCH   2   3
TORSDOF 10
ENDMDL
MODEL      219
REMARK 921   NORMALIZED FREE ENERGY PREDICTED BY IDOCK:   -3.45 KCAL/MOL
REMARK 922        TOTAL FREE ENERGY PREDICTED BY IDOCK:   -6.74 KCAL/MOL
REMARK 923 INTER-LIGAND FREE ENERGY PREDICTED BY IDOCK:   -6.21 KCAL/MOL
REMARK 924 INTRA-LIGAND FREE ENERGY PREDICTED BY IDOCK:   -0.53 KCAL/MOL
REMARK 927      BINDING AFFINITY PREDICTED BY RF-SCORE:    0.00 PKD
ROOT
HETATM    1  C   UNL     1     -11.589   5.528  72.865  1.00  0.00    -0.218 C  
HETATM    2  O   UNL     1     -11.012   6.810  72.665  1.00  0.00    -0.236 OA 
ENDROOT
BRANCH   2   3
HETATM    3  C   UNL     1     -10.116   6.965  71.644  1.00  0.00    -0.190 A  
HETATM    4  C   UNL     1      -8.826   7.511  71.696  1.00  0.00    -0.116 A  
HETATM    5  C   UNL     1     -10.638   6.579  70.404  1.00  0.00    -0.282 A  
HETATM    6  C   UNL     1      -8.106   7.673  70.505  1.00  0.00    -0.105 A  
HETATM    7  C   UNL     1      -8.681   7.422  69.239  1.00  0.00    -0.137 A  
HETATM    8 BR   UNL     1     -10.728   6.121  67.628  1.00  0.00    -0.422 Br 
HETATM    9  C   UNL     1      -9.927   6.779  69.220  1.00  0.00    -0.160 A  
BRANCH   4  10
HETATM   10  O   UNL     1      -8.287   7.853  72.904  1.00  0.00    -0.123 OA 
HETATM   11  C   UNL     1      -7.747   6.774  73.669  1.00  0.00    -0.087 C  
ENDBRANCH   4  10
BRANCH   7  12
HETATM   12  C   UNL     1      -8.010   7.981  67.993  1.00  0.00    -0.128 C  
BRANCH  12  13
HETATM   13  N   UNL     1      -7.996   9.567  67.910  1.00  0.00    -0.098 N  
HETATM   14  O   UNL     1      -6.255  11.844  67.143  1.00  0.00    -0.128 OA 
HETATM   15  C   UNL     1      -6.852  10.147  68.804  1.00  0.00    -0.061 C  
HETATM   16  C   UNL     1      -6.619  11.643  68.509  1.00  0.00    -0.061 C  
HETATM   17  C   UNL     1      -7.615   9.939  66.443  1.00  0.00    -0.101 C  
HETATM   18  C   UNL     1      -7.294  11.423  66.258  1.00  0.00     0.063 C  
BRANCH  13  19
HETATM   19  C   UNL     1      -9.385  10.163  68.324  1.00  0.00    -0.133 C  
BRANCH  19  20
HETATM   20  C   UNL     1     -10.369  10.171  67.136  1.00  0.00    -0.238 C  
BRANCH  20  21
HETATM   21  O   UNL     1     -11.467  11.065  67.284  1.00  0.00    -0.470 OA 
BRANCH  21  22
HETATM   22  C   UNL     1     -11.753  11.352  68.680  1.00  0.00    -0.329 C  
BRANCH  22  23
HETATM   23  C   UNL     1     -11.258  12.733  69.115  1.00  0.00    -0.294 C  
BRANCH  23  24
HETATM   24  C   UNL     1     -12.267  13.653  69.825  1.00  0.00    -0.350 C  
HETATM   25  C   UNL     1     -12.501  14.898  68.923  1.00  0.00     0.105 C  
HETATM   26  C   UNL     1     -11.843  16.195  69.413  1.00  0.00    -0.154 C  
HETATM   27  C   UNL     1     -11.541  16.153  70.911  1.00  0.00    -0.406 C  
HETATM   28  C   UNL     1     -10.539  14.995  71.188  1.00  0.00     0.334 C  
HETATM   29  C   UNL     1     -11.809  14.091  71.240  1.00  0.00    -0.052 C  
HETATM   30  C   UNL     1     -12.546  15.374  71.858  1.00  0.00    -0.455 C  
HETATM   31  C   UNL     1     -14.053  15.520  71.630  1.00  0.00    -0.540 C  
HETATM   32  C   UNL     1     -12.301  15.674  73.354  1.00  0.00    -0.633 C  
ENDBRANCH  23  24
ENDBRANCH  22  23
ENDBRANCH  21  22
ENDBRANCH  20  21
ENDBRANCH  19  20
ENDBRANCH  13  19
ENDBRANCH  12  13
ENDBRANCH   7  12
ENDBRANCH   2   3
TORSDOF 10
ENDMDL
MODEL      220
REMARK 921   NORMALIZED FREE ENERGY PREDICTED BY IDOCK:   -3.44 KCAL/MOL
REMARK 922        TOTAL FREE ENERGY PREDICTED BY IDOCK:   -6.73 KCAL/MOL
REMARK 923 INTER-LIGAND FREE ENERGY PREDICTED BY IDOCK:   -5.75 KCAL/MOL
REMARK 924 INTRA-LIGAND FREE ENERGY PREDICTED BY IDOCK:   -0.97 KCAL/MOL
REMARK 927      BINDING AFFINITY PREDICTED BY RF-SCORE:    0.00 PKD
ROOT
HETATM    1  C   UNL     1      -9.880   2.896  72.567  1.00  0.00    -0.151 C  
HETATM    2  O   UNL     1      -9.042   3.034  71.429  1.00  0.00    -0.089 OA 
ENDROOT
BRANCH   2   3
HETATM    3  C   UNL     1      -8.727   4.295  71.006  1.00  0.00    -0.093 A  
HETATM    4  C   UNL     1      -7.855   4.673  69.975  1.00  0.00    -0.060 A  
HETATM    5  C   UNL     1      -9.324   5.292  71.787  1.00  0.00    -0.175 A  
HETATM    6  C   UNL     1      -7.592   6.035  69.771  1.00  0.00    -0.081 A  
HETATM    7  C   UNL     1      -8.076   7.034  70.645  1.00  0.00    -0.117 A  
HETATM    8 BR   UNL     1      -9.985   7.881  72.673  1.00  0.00    -0.361 Br 
HETATM    9  C   UNL     1      -9.026   6.643  71.598  1.00  0.00    -0.141 A  
BRANCH   4  10
HETATM   10  O   UNL     1      -7.298   3.715  69.178  1.00  0.00    -0.049 OA 
HETATM   11  C   UNL     1      -6.645   4.190  68.001  1.00  0.00    -0.042 C  
ENDBRANCH   4  10
BRANCH   7  12
HETATM   12  C   UNL     1      -7.448   8.419  70.611  1.00  0.00    -0.065 C  
BRANCH  12  13
HETATM   13  N   UNL     1      -7.719   9.231  69.274  1.00  0.00    -0.079 N  
HETATM   14  O   UNL     1      -6.385  11.035  67.332  1.00  0.00    -0.057 OA 
HETATM   15  C   UNL     1      -7.475  10.758  69.507  1.00  0.00    -0.110 C  
HETATM   16  C   UNL     1      -7.432  11.526  68.170  1.00  0.00    -0.101 C  
HETATM   17  C   UNL     1      -6.636   8.783  68.244  1.00  0.00    -0.060 C  
HETATM   18  C   UNL     1      -6.586   9.662  66.994  1.00  0.00    -0.067 C  
BRANCH  13  19
HETATM   19  C   UNL     1      -9.172   8.974  68.746  1.00  0.00    -0.133 C  
BRANCH  19  20
HETATM   20  C   UNL     1     -10.196   9.881  69.459  1.00  0.00    -0.225 C  
BRANCH  20  21
HETATM   21  O   UNL     1     -11.043  10.617  68.582  1.00  0.00    -0.227 OA 
BRANCH  21  22
HETATM   22  C   UNL     1     -10.736  10.364  67.185  1.00  0.00    -0.256 C  
BRANCH  22  23
HETATM   23  C   UNL     1     -11.314  11.428  66.248  1.00  0.00    -0.140 C  
BRANCH  23  24
HETATM   24  C   UNL     1     -11.277  12.889  66.732  1.00  0.00    -0.337 C  
HETATM   25  C   UNL     1     -12.565  13.596  66.225  1.00  0.00    -0.346 C  
HETATM   26  C   UNL     1     -12.360  14.577  65.062  1.00  0.00    -0.353 C  
HETATM   27  C   UNL     1     -10.913  15.063  64.974  1.00  0.00    -0.436 C  
HETATM   28  C   UNL     1      -9.988  13.839  64.713  1.00  0.00    -0.129 C  
HETATM   29  C   UNL     1     -10.017  13.660  66.263  1.00  0.00    -0.305 C  
HETATM   30  C   UNL     1     -10.104  15.260  66.322  1.00  0.00    -0.297 C  
HETATM   31  C   UNL     1     -10.800  15.901  67.526  1.00  0.00    -0.305 C  
HETATM   32  C   UNL     1      -8.788  16.044  66.113  1.00  0.00    -0.366 C  
ENDBRANCH  23  24
ENDBRANCH  22  23
ENDBRANCH  21  22
ENDBRANCH  20  21
ENDBRANCH  19  20
ENDBRANCH  13  19
ENDBRANCH  12  13
ENDBRANCH   7  12
ENDBRANCH   2   3
TORSDOF 10
ENDMDL
MODEL      221
REMARK 921   NORMALIZED FREE ENERGY PREDICTED BY IDOCK:   -3.44 KCAL/MOL
REMARK 922        TOTAL FREE ENERGY PREDICTED BY IDOCK:   -6.72 KCAL/MOL
REMARK 923 INTER-LIGAND FREE ENERGY PREDICTED BY IDOCK:   -6.61 KCAL/MOL
REMARK 924 INTRA-LIGAND FREE ENERGY PREDICTED BY IDOCK:   -0.11 KCAL/MOL
REMARK 927      BINDING AFFINITY PREDICTED BY RF-SCORE:    0.00 PKD
ROOT
HETATM    1  C   UNL     1     -11.301  14.412  66.062  1.00  0.00    -0.335 C  
HETATM    2  O   UNL     1     -10.323  13.723  66.826  1.00  0.00    -0.266 OA 
ENDROOT
BRANCH   2   3
HETATM    3  C   UNL     1     -10.420  12.363  66.927  1.00  0.00    -0.224 A  
HETATM    4  C   UNL     1     -10.889  11.604  68.007  1.00  0.00    -0.215 A  
HETATM    5  C   UNL     1      -9.903  11.701  65.808  1.00  0.00    -0.268 A  
HETATM    6  C   UNL     1     -10.807  10.206  67.944  1.00  0.00    -0.336 A  
HETATM    7  C   UNL     1     -10.154   9.538  66.884  1.00  0.00    -0.295 A  
HETATM    8 BR   UNL     1      -9.156   9.551  64.149  1.00  0.00    -0.119 Br 
HETATM    9  C   UNL     1      -9.791  10.309  65.770  1.00  0.00    -0.257 A  
BRANCH   4  10
HETATM   10  O   UNL     1     -11.435  12.235  69.088  1.00  0.00    -0.258 OA 
HETATM   11  C   UNL     1     -12.202  11.409  69.966  1.00  0.00    -0.301 C  
ENDBRANCH   4  10
BRANCH   7  12
HETATM   12  C   UNL     1      -9.752   8.081  67.058  1.00  0.00    -0.211 C  
BRANCH  12  13
HETATM   13  N   UNL     1      -8.234   7.864  67.470  1.00  0.00    -0.123 N  
HETATM   14  O   UNL     1      -5.820   9.354  68.338  1.00  0.00    -0.041 OA 
HETATM   15  C   UNL     1      -7.291   8.659  66.510  1.00  0.00    -0.081 C  
HETATM   16  C   UNL     1      -5.852   8.716  67.061  1.00  0.00    -0.042 C  
HETATM   17  C   UNL     1      -8.050   8.515  68.876  1.00  0.00    -0.119 C  
HETATM   18  C   UNL     1      -6.586   8.633  69.304  1.00  0.00    -0.049 C  
BRANCH  13  19
HETATM   19  C   UNL     1      -7.867   6.341  67.477  1.00  0.00    -0.105 C  
BRANCH  19  20
HETATM   20  C   UNL     1      -9.132   5.459  67.515  1.00  0.00    -0.107 C  
BRANCH  20  21
HETATM   21  O   UNL     1      -8.885   4.082  67.776  1.00  0.00    -0.104 OA 
BRANCH  21  22
HETATM   22  C   UNL     1      -8.998   3.765  69.190  1.00  0.00    -0.117 C  
BRANCH  22  23
HETATM   23  C   UNL     1     -10.153   4.503  69.872  1.00  0.00    -0.195 C  
BRANCH  23  24
HETATM   24  C   UNL     1      -9.842   5.874  70.499  1.00  0.00    -0.231 C  
HETATM   25  C   UNL     1      -8.856   5.650  71.680  1.00  0.00    -0.140 C  
HETATM   26  C   UNL     1      -9.468   5.789  73.081  1.00  0.00    -0.147 C  
HETATM   27  C   UNL     1     -10.755   6.615  73.063  1.00  0.00    -0.299 C  
HETATM   28  C   UNL     1     -11.804   5.889  72.171  1.00  0.00    -0.247 C  
HETATM   29  C   UNL     1     -11.106   6.628  70.987  1.00  0.00    -0.330 C  
HETATM   30  C   UNL     1     -10.861   7.817  72.035  1.00  0.00    -0.295 C  
HETATM   31  C   UNL     1      -9.650   8.728  71.822  1.00  0.00    -0.371 C  
HETATM   32  C   UNL     1     -12.059   8.747  72.335  1.00  0.00    -0.379 C  
ENDBRANCH  23  24
ENDBRANCH  22  23
ENDBRANCH  21  22
ENDBRANCH  20  21
ENDBRANCH  19  20
ENDBRANCH  13  19
ENDBRANCH  12  13
ENDBRANCH   7  12
ENDBRANCH   2   3
TORSDOF 10
ENDMDL
MODEL      222
REMARK 921   NORMALIZED FREE ENERGY PREDICTED BY IDOCK:   -3.43 KCAL/MOL
REMARK 922        TOTAL FREE ENERGY PREDICTED BY IDOCK:   -6.71 KCAL/MOL
REMARK 923 INTER-LIGAND FREE ENERGY PREDICTED BY IDOCK:   -6.25 KCAL/MOL
REMARK 924 INTRA-LIGAND FREE ENERGY PREDICTED BY IDOCK:   -0.47 KCAL/MOL
REMARK 927      BINDING AFFINITY PREDICTED BY RF-SCORE:    0.00 PKD
ROOT
HETATM    1  C   UNL     1     -11.963  11.836  63.224  1.00  0.00    -0.248 C  
HETATM    2  O   UNL     1     -12.825  12.032  64.336  1.00  0.00    -0.506 OA 
ENDROOT
BRANCH   2   3
HETATM    3  C   UNL     1     -12.344  12.718  65.416  1.00  0.00    -0.470 A  
HETATM    4  C   UNL     1     -12.203  14.104  65.573  1.00  0.00    -0.432 A  
HETATM    5  C   UNL     1     -11.881  11.872  66.430  1.00  0.00    -0.115 A  
HETATM    6  C   UNL     1     -11.586  14.599  66.729  1.00  0.00    -0.370 A  
HETATM    7  C   UNL     1     -10.988  13.749  67.686  1.00  0.00    -0.278 A  
HETATM    8 BR   UNL     1     -10.745  11.110  68.891  1.00  0.00    -0.267 Br 
HETATM    9  C   UNL     1     -11.234  12.374  67.561  1.00  0.00    -0.294 A  
BRANCH   4  10
HETATM   10  O   UNL     1     -12.688  14.943  64.611  1.00  0.00    -0.450 OA 
HETATM   11  C   UNL     1     -11.756  15.889  64.087  1.00  0.00    -0.027 C  
ENDBRANCH   4  10
BRANCH   7  12
HETATM   12  C   UNL     1     -10.007  14.334  68.691  1.00  0.00    -0.234 C  
BRANCH  12  13
HETATM   13  N   UNL     1      -8.732  15.022  68.042  1.00  0.00    -0.156 N  
HETATM   14  O   UNL     1      -7.597  17.687  67.402  1.00  0.00    -0.193 OA 
HETATM   15  C   UNL     1      -9.152  15.892  66.812  1.00  0.00    -0.248 C  
HETATM   16  C   UNL     1      -7.996  16.803  66.353  1.00  0.00    -0.321 C  
HETATM   17  C   UNL     1      -8.174  16.026  69.097  1.00  0.00    -0.241 C  
HETATM   18  C   UNL     1      -7.108  16.968  68.534  1.00  0.00    -0.202 C  
BRANCH  13  19
HETATM   19  C   UNL     1      -7.665  13.951  67.629  1.00  0.00    -0.184 C  
BRANCH  19  20
HETATM   20  C   UNL     1      -6.941  13.377  68.864  1.00  0.00    -0.102 C  
BRANCH  20  21
HETATM   21  O   UNL     1      -7.434  12.116  69.305  1.00  0.00     0.048 OA 
BRANCH  21  22
HETATM   22  C   UNL     1      -6.492  11.040  69.047  1.00  0.00    -0.056 C  
BRANCH  22  23
HETATM   23  C   UNL     1      -7.170   9.773  68.520  1.00  0.00    -0.070 C  
BRANCH  23  24
HETATM   24  C   UNL     1      -7.902   8.887  69.544  1.00  0.00    -0.094 C  
HETATM   25  C   UNL     1      -7.195   9.054  70.918  1.00  0.00    -0.106 C  
HETATM   26  C   UNL     1      -6.333   7.863  71.361  1.00  0.00    -0.035 C  
HETATM   27  C   UNL     1      -6.740   6.569  70.654  1.00  0.00    -0.057 C  
HETATM   28  C   UNL     1      -6.528   6.747  69.123  1.00  0.00    -0.036 C  
HETATM   29  C   UNL     1      -7.949   7.390  69.140  1.00  0.00    -0.118 C  
HETATM   30  C   UNL     1      -8.273   6.349  70.315  1.00  0.00    -0.125 C  
HETATM   31  C   UNL     1      -9.331   6.736  71.351  1.00  0.00    -0.157 C  
HETATM   32  C   UNL     1      -8.582   4.893  69.899  1.00  0.00    -0.102 C  
ENDBRANCH  23  24
ENDBRANCH  22  23
ENDBRANCH  21  22
ENDBRANCH  20  21
ENDBRANCH  19  20
ENDBRANCH  13  19
ENDBRANCH  12  13
ENDBRANCH   7  12
ENDBRANCH   2   3
TORSDOF 10
ENDMDL
MODEL      223
REMARK 921   NORMALIZED FREE ENERGY PREDICTED BY IDOCK:   -3.42 KCAL/MOL
REMARK 922        TOTAL FREE ENERGY PREDICTED BY IDOCK:   -6.70 KCAL/MOL
REMARK 923 INTER-LIGAND FREE ENERGY PREDICTED BY IDOCK:   -6.79 KCAL/MOL
REMARK 924 INTRA-LIGAND FREE ENERGY PREDICTED BY IDOCK:    0.09 KCAL/MOL
REMARK 927      BINDING AFFINITY PREDICTED BY RF-SCORE:    0.00 PKD
ROOT
HETATM    1  C   UNL     1     -14.371  15.197  71.481  1.00  0.00    -0.559 C  
HETATM    2  O   UNL     1     -12.994  14.892  71.653  1.00  0.00    -0.300 OA 
ENDROOT
BRANCH   2   3
HETATM    3  C   UNL     1     -12.423  13.978  70.812  1.00  0.00    -0.372 A  
HETATM    4  C   UNL     1     -11.809  14.203  69.573  1.00  0.00    -0.322 A  
HETATM    5  C   UNL     1     -12.568  12.663  71.267  1.00  0.00    -0.339 A  
HETATM    6  C   UNL     1     -11.376  13.105  68.818  1.00  0.00    -0.333 A  
HETATM    7  C   UNL     1     -11.649  11.773  69.203  1.00  0.00    -0.372 A  
HETATM    8 BR   UNL     1     -12.343   9.856  71.281  1.00  0.00    -0.511 Br 
HETATM    9  C   UNL     1     -12.167  11.574  70.490  1.00  0.00    -0.377 A  
BRANCH   4  10
HETATM   10  O   UNL     1     -11.623  15.484  69.136  1.00  0.00    -0.317 OA 
HETATM   11  C   UNL     1     -10.464  15.701  68.330  1.00  0.00    -0.252 C  
ENDBRANCH   4  10
BRANCH   7  12
HETATM   12  C   UNL     1     -11.514  10.659  68.175  1.00  0.00    -0.228 C  
BRANCH  12  13
HETATM   13  N   UNL     1     -10.021  10.186  67.911  1.00  0.00    -0.158 N  
HETATM   14  O   UNL     1      -7.427  11.150  66.843  1.00  0.00    -0.124 OA 
HETATM   15  C   UNL     1      -9.677  10.299  66.390  1.00  0.00    -0.201 C  
HETATM   16  C   UNL     1      -8.162  10.141  66.149  1.00  0.00    -0.125 C  
HETATM   17  C   UNL     1      -9.089  11.209  68.632  1.00  0.00    -0.166 C  
HETATM   18  C   UNL     1      -7.614  11.055  68.256  1.00  0.00    -0.106 C  
BRANCH  13  19
HETATM   19  C   UNL     1      -9.797   8.724  68.427  1.00  0.00    -0.171 C  
BRANCH  19  20
HETATM   20  C   UNL     1      -8.533   8.627  69.306  1.00  0.00    -0.123 C  
BRANCH  20  21
HETATM   21  O   UNL     1      -8.773   8.196  70.641  1.00  0.00    -0.129 OA 
BRANCH  21  22
HETATM   22  C   UNL     1      -8.384   6.811  70.847  1.00  0.00    -0.128 C  
BRANCH  22  23
HETATM   23  C   UNL     1      -7.525   6.260  69.706  1.00  0.00    -0.081 C  
BRANCH  23  24
HETATM   24  C   UNL     1      -8.037   5.002  68.982  1.00  0.00    -0.084 C  
HETATM   25  C   UNL     1      -6.813   4.098  68.665  1.00  0.00    -0.047 C  
HETATM   26  C   UNL     1      -6.381   4.072  67.193  1.00  0.00    -0.040 C  
HETATM   27  C   UNL     1      -7.513   4.498  66.257  1.00  0.00    -0.082 C  
HETATM   28  C   UNL     1      -7.915   5.964  66.594  1.00  0.00    -0.102 C  
HETATM   29  C   UNL     1      -8.825   5.318  67.685  1.00  0.00    -0.105 C  
HETATM   30  C   UNL     1      -8.998   4.106  66.648  1.00  0.00    -0.128 C  
HETATM   31  C   UNL     1      -9.280   2.711  67.210  1.00  0.00    -0.179 C  
HETATM   32  C   UNL     1      -9.991   4.315  65.482  1.00  0.00    -0.233 C  
ENDBRANCH  23  24
ENDBRANCH  22  23
ENDBRANCH  21  22
ENDBRANCH  20  21
ENDBRANCH  19  20
ENDBRANCH  13  19
ENDBRANCH  12  13
ENDBRANCH   7  12
ENDBRANCH   2   3
TORSDOF 10
ENDMDL
MODEL      224
REMARK 921   NORMALIZED FREE ENERGY PREDICTED BY IDOCK:   -3.39 KCAL/MOL
REMARK 922        TOTAL FREE ENERGY PREDICTED BY IDOCK:   -6.65 KCAL/MOL
REMARK 923 INTER-LIGAND FREE ENERGY PREDICTED BY IDOCK:   -6.29 KCAL/MOL
REMARK 924 INTRA-LIGAND FREE ENERGY PREDICTED BY IDOCK:   -0.36 KCAL/MOL
REMARK 927      BINDING AFFINITY PREDICTED BY RF-SCORE:    0.00 PKD
ROOT
HETATM    1  C   UNL     1      -5.326  10.693  71.216  1.00  0.00    -0.062 C  
HETATM    2  O   UNL     1      -5.759  11.980  70.801  1.00  0.00    -0.250 OA 
ENDROOT
BRANCH   2   3
HETATM    3  C   UNL     1      -6.391  12.093  69.594  1.00  0.00    -0.115 A  
HETATM    4  C   UNL     1      -6.933  13.241  69.002  1.00  0.00    -0.075 A  
HETATM    5  C   UNL     1      -6.550  10.860  68.951  1.00  0.00    -0.056 A  
HETATM    6  C   UNL     1      -7.636  13.119  67.795  1.00  0.00    -0.155 A  
HETATM    7  C   UNL     1      -7.925  11.862  67.217  1.00  0.00    -0.171 A  
HETATM    8 BR   UNL     1      -7.333   9.023  66.966  1.00  0.00    -0.087 Br 
HETATM    9  C   UNL     1      -7.283  10.744  67.768  1.00  0.00    -0.088 A  
BRANCH   4  10
HETATM   10  O   UNL     1      -6.749  14.457  69.596  1.00  0.00    -0.137 OA 
HETATM   11  C   UNL     1      -5.574  15.167  69.204  1.00  0.00    -0.097 C  
ENDBRANCH   4  10
BRANCH   7  12
HETATM   12  C   UNL     1      -9.005  11.765  66.151  1.00  0.00    -0.145 C  
BRANCH  12  13
HETATM   13  N   UNL     1     -10.319  12.597  66.468  1.00  0.00    -0.239 N  
HETATM   14  O   UNL     1     -12.049  14.734  65.353  1.00  0.00    -0.284 OA 
HETATM   15  C   UNL     1      -9.992  14.125  66.532  1.00  0.00    -0.283 C  
HETATM   16  C   UNL     1     -11.281  14.971  66.533  1.00  0.00    -0.312 C  
HETATM   17  C   UNL     1     -11.273  12.420  65.246  1.00  0.00    -0.318 C  
HETATM   18  C   UNL     1     -12.470  13.372  65.268  1.00  0.00    -0.483 C  
BRANCH  13  19
HETATM   19  C   UNL     1     -10.981  12.112  67.803  1.00  0.00    -0.233 C  
BRANCH  19  20
HETATM   20  C   UNL     1     -11.811  10.830  67.584  1.00  0.00     0.460 C  
BRANCH  20  21
HETATM   21  O   UNL     1     -12.534  10.392  68.730  1.00  0.00    -0.006 OA 
BRANCH  21  22
HETATM   22  C   UNL     1     -11.977  10.922  69.963  1.00  0.00    -0.350 C  
BRANCH  22  23
HETATM   23  C   UNL     1     -13.040  11.538  70.877  1.00  0.00    -0.021 C  
BRANCH  23  24
HETATM   24  C   UNL     1     -12.655  12.813  71.648  1.00  0.00    -0.195 C  
HETATM   25  C   UNL     1     -13.966  13.508  72.112  1.00  0.00    -0.575 C  
HETATM   26  C   UNL     1     -14.345  14.778  71.338  1.00  0.00    -0.516 C  
HETATM   27  C   UNL     1     -13.137  15.402  70.638  1.00  0.00    -0.405 C  
HETATM   28  C   UNL     1     -12.575  14.383  69.604  1.00  0.00    -0.102 C  
HETATM   29  C   UNL     1     -11.789  13.795  70.817  1.00  0.00    -0.215 C  
HETATM   30  C   UNL     1     -11.724  15.306  71.350  1.00  0.00    -0.444 C  
HETATM   31  C   UNL     1     -11.630  15.536  72.860  1.00  0.00    -0.430 C  
HETATM   32  C   UNL     1     -10.671  16.235  70.702  1.00  0.00     0.096 C  
ENDBRANCH  23  24
ENDBRANCH  22  23
ENDBRANCH  21  22
ENDBRANCH  20  21
ENDBRANCH  19  20
ENDBRANCH  13  19
ENDBRANCH  12  13
ENDBRANCH   7  12
ENDBRANCH   2   3
TORSDOF 10
ENDMDL
MODEL      225
REMARK 921   NORMALIZED FREE ENERGY PREDICTED BY IDOCK:   -3.39 KCAL/MOL
REMARK 922        TOTAL FREE ENERGY PREDICTED BY IDOCK:   -6.64 KCAL/MOL
REMARK 923 INTER-LIGAND FREE ENERGY PREDICTED BY IDOCK:   -6.33 KCAL/MOL
REMARK 924 INTRA-LIGAND FREE ENERGY PREDICTED BY IDOCK:   -0.32 KCAL/MOL
REMARK 927      BINDING AFFINITY PREDICTED BY RF-SCORE:    0.00 PKD
ROOT
HETATM    1  C   UNL     1     -10.677   5.453  73.390  1.00  0.00    -0.276 C  
HETATM    2  O   UNL     1      -9.709   6.004  72.508  1.00  0.00    -0.158 OA 
ENDROOT
BRANCH   2   3
HETATM    3  C   UNL     1     -10.116   6.396  71.264  1.00  0.00    -0.187 A  
HETATM    4  C   UNL     1     -10.214   5.624  70.099  1.00  0.00    -0.250 A  
HETATM    5  C   UNL     1     -10.385   7.768  71.191  1.00  0.00    -0.218 A  
HETATM    6  C   UNL     1     -10.557   6.250  68.893  1.00  0.00    -0.321 A  
HETATM    7  C   UNL     1     -10.687   7.653  68.784  1.00  0.00    -0.106 A  
HETATM    8 BR   UNL     1     -11.119  10.237  70.054  1.00  0.00    -0.397 Br 
HETATM    9  C   UNL     1     -10.690   8.388  69.978  1.00  0.00    -0.236 A  
BRANCH   4  10
HETATM   10  O   UNL     1      -9.997   4.277  70.163  1.00  0.00    -0.220 OA 
HETATM   11  C   UNL     1      -9.413   3.688  69.000  1.00  0.00    -0.156 C  
ENDBRANCH   4  10
BRANCH   7  12
HETATM   12  C   UNL     1     -10.665   8.297  67.406  1.00  0.00    -0.166 C  
BRANCH  12  13
HETATM   13  N   UNL     1      -9.247   8.276  66.692  1.00  0.00    -0.167 N  
HETATM   14  O   UNL     1      -7.946   7.587  64.117  1.00  0.00    -0.133 OA 
HETATM   15  C   UNL     1      -8.888   6.822  66.242  1.00  0.00    -0.147 C  
HETATM   16  C   UNL     1      -7.677   6.817  65.288  1.00  0.00    -0.106 C  
HETATM   17  C   UNL     1      -9.391   9.101  65.376  1.00  0.00    -0.191 C  
HETATM   18  C   UNL     1      -8.193   8.957  64.436  1.00  0.00    -0.164 C  
BRANCH  13  19
HETATM   19  C   UNL     1      -8.137   8.859  67.632  1.00  0.00    -0.106 C  
BRANCH  19  20
HETATM   20  C   UNL     1      -7.816  10.325  67.278  1.00  0.00    -0.103 C  
BRANCH  20  21
HETATM   21  O   UNL     1      -8.715  11.278  67.834  1.00  0.00    -0.130 OA 
BRANCH  21  22
HETATM   22  C   UNL     1      -8.694  12.538  67.109  1.00  0.00    -0.200 C  
BRANCH  22  23
HETATM   23  C   UNL     1      -7.769  13.575  67.751  1.00  0.00    -0.163 C  
BRANCH  23  24
HETATM   24  C   UNL     1      -7.755  14.985  67.133  1.00  0.00    -0.202 C  
HETATM   25  C   UNL     1      -6.399  15.655  67.493  1.00  0.00    -0.181 C  
HETATM   26  C   UNL     1      -6.473  16.749  68.567  1.00  0.00    -0.155 C  
HETATM   27  C   UNL     1      -7.882  17.330  68.695  1.00  0.00    -0.272 C  
HETATM   28  C   UNL     1      -8.855  16.194  69.126  1.00  0.00    -0.239 C  
HETATM   29  C   UNL     1      -8.936  15.873  67.601  1.00  0.00    -0.193 C  
HETATM   30  C   UNL     1      -8.765  17.453  67.385  1.00  0.00    -0.227 C  
HETATM   31  C   UNL     1      -8.114  17.937  66.086  1.00  0.00    -0.208 C  
HETATM   32  C   UNL     1     -10.018  18.332  67.597  1.00  0.00    -0.348 C  
ENDBRANCH  23  24
ENDBRANCH  22  23
ENDBRANCH  21  22
ENDBRANCH  20  21
ENDBRANCH  19  20
ENDBRANCH  13  19
ENDBRANCH  12  13
ENDBRANCH   7  12
ENDBRANCH   2   3
TORSDOF 10
ENDMDL
MODEL      226
REMARK 921   NORMALIZED FREE ENERGY PREDICTED BY IDOCK:   -3.37 KCAL/MOL
REMARK 922        TOTAL FREE ENERGY PREDICTED BY IDOCK:   -6.62 KCAL/MOL
REMARK 923 INTER-LIGAND FREE ENERGY PREDICTED BY IDOCK:   -6.24 KCAL/MOL
REMARK 924 INTRA-LIGAND FREE ENERGY PREDICTED BY IDOCK:   -0.38 KCAL/MOL
REMARK 927      BINDING AFFINITY PREDICTED BY RF-SCORE:    0.00 PKD
ROOT
HETATM    1  C   UNL     1      -9.783   3.822  71.216  1.00  0.00    -0.175 C  
HETATM    2  O   UNL     1      -8.874   4.882  71.471  1.00  0.00    -0.129 OA 
ENDROOT
BRANCH   2   3
HETATM    3  C   UNL     1      -9.006   6.036  70.751  1.00  0.00    -0.149 A  
HETATM    4  C   UNL     1      -8.578   7.327  71.093  1.00  0.00    -0.130 A  
HETATM    5  C   UNL     1      -9.732   5.855  69.569  1.00  0.00    -0.190 A  
HETATM    6  C   UNL     1      -8.908   8.399  70.251  1.00  0.00    -0.142 A  
HETATM    7  C   UNL     1      -9.762   8.245  69.137  1.00  0.00    -0.171 A  
HETATM    8 BR   UNL     1     -10.993   6.519  67.140  1.00  0.00    -0.434 Br 
HETATM    9  C   UNL     1     -10.087   6.934  68.757  1.00  0.00    -0.166 A  
BRANCH   4  10
HETATM   10  O   UNL     1      -7.833   7.513  72.221  1.00  0.00    -0.092 OA 
HETATM   11  C   UNL     1      -6.828   8.525  72.140  1.00  0.00    -0.080 C  
ENDBRANCH   4  10
BRANCH   7  12
HETATM   12  C   UNL     1     -10.395   9.477  68.508  1.00  0.00    -0.207 C  
BRANCH  12  13
HETATM   13  N   UNL     1      -9.391  10.373  67.665  1.00  0.00    -0.148 N  
HETATM   14  O   UNL     1      -6.553  10.521  66.814  1.00  0.00    -0.075 OA 
HETATM   15  C   UNL     1      -8.220  10.877  68.570  1.00  0.00    -0.140 C  
HETATM   16  C   UNL     1      -7.083  11.485  67.725  1.00  0.00    -0.079 C  
HETATM   17  C   UNL     1      -8.732   9.438  66.604  1.00  0.00    -0.131 C  
HETATM   18  C   UNL     1      -7.543  10.078  65.885  1.00  0.00    -0.114 C  
BRANCH  13  19
HETATM   19  C   UNL     1     -10.139  11.579  66.999  1.00  0.00    -0.210 C  
BRANCH  19  20
HETATM   20  C   UNL     1     -10.246  12.775  67.967  1.00  0.00    -0.228 C  
BRANCH  20  21
HETATM   21  O   UNL     1     -10.811  13.950  67.394  1.00  0.00    -0.279 OA 
BRANCH  21  22
HETATM   22  C   UNL     1      -9.817  14.754  66.703  1.00  0.00    -0.259 C  
BRANCH  22  23
HETATM   23  C   UNL     1      -8.763  15.335  67.650  1.00  0.00    -0.179 C  
BRANCH  23  24
HETATM   24  C   UNL     1      -8.437  16.833  67.508  1.00  0.00    -0.203 C  
HETATM   25  C   UNL     1      -7.557  17.016  66.240  1.00  0.00    -0.340 C  
HETATM   26  C   UNL     1      -6.073  17.304  66.506  1.00  0.00    -0.251 C  
HETATM   27  C   UNL     1      -5.844  17.868  67.909  1.00  0.00    -0.156 C  
HETATM   28  C   UNL     1      -6.304  16.810  68.955  1.00  0.00    -0.187 C  
HETATM   29  C   UNL     1      -7.722  17.426  68.750  1.00  0.00    -0.258 C  
HETATM   30  C   UNL     1      -6.954  18.815  68.528  1.00  0.00    -0.288 C  
HETATM   31  C   UNL     1      -7.615  19.872  67.640  1.00  0.00    -0.324 C  
HETATM   32  C   UNL     1      -6.460  19.555  69.792  1.00  0.00    -0.328 C  
ENDBRANCH  23  24
ENDBRANCH  22  23
ENDBRANCH  21  22
ENDBRANCH  20  21
ENDBRANCH  19  20
ENDBRANCH  13  19
ENDBRANCH  12  13
ENDBRANCH   7  12
ENDBRANCH   2   3
TORSDOF 10
ENDMDL
MODEL      227
REMARK 921   NORMALIZED FREE ENERGY PREDICTED BY IDOCK:   -3.36 KCAL/MOL
REMARK 922        TOTAL FREE ENERGY PREDICTED BY IDOCK:   -6.60 KCAL/MOL
REMARK 923 INTER-LIGAND FREE ENERGY PREDICTED BY IDOCK:   -5.38 KCAL/MOL
REMARK 924 INTRA-LIGAND FREE ENERGY PREDICTED BY IDOCK:   -1.22 KCAL/MOL
REMARK 927      BINDING AFFINITY PREDICTED BY RF-SCORE:    0.00 PKD
ROOT
HETATM    1  C   UNL     1     -13.753   9.373  72.088  1.00  0.00    -0.420 C  
HETATM    2  O   UNL     1     -13.156  10.378  71.282  1.00  0.00    -0.378 OA 
ENDROOT
BRANCH   2   3
HETATM    3  C   UNL     1     -11.941  10.115  70.713  1.00  0.00    -0.348 A  
HETATM    4  C   UNL     1     -11.463  10.521  69.460  1.00  0.00    -0.272 A  
HETATM    5  C   UNL     1     -11.149   9.270  71.499  1.00  0.00    -0.443 A  
HETATM    6  C   UNL     1     -10.217  10.051  69.021  1.00  0.00    -0.216 A  
HETATM    7  C   UNL     1      -9.481   9.086  69.743  1.00  0.00    -0.181 A  
HETATM    8 BR   UNL     1      -8.924   7.718  72.252  1.00  0.00    -0.214 Br 
HETATM    9  C   UNL     1      -9.926   8.779  71.037  1.00  0.00    -0.234 A  
BRANCH   4  10
HETATM   10  O   UNL     1     -12.206  11.379  68.701  1.00  0.00    -0.532 OA 
HETATM   11  C   UNL     1     -11.793  12.746  68.727  1.00  0.00    -0.307 C  
ENDBRANCH   4  10
BRANCH   7  12
HETATM   12  C   UNL     1      -8.358   8.333  69.046  1.00  0.00    -0.120 C  
BRANCH  12  13
HETATM   13  N   UNL     1      -7.043   9.190  68.803  1.00  0.00    -0.072 N  
HETATM   14  O   UNL     1      -6.103  11.993  68.561  1.00  0.00    -0.049 OA 
HETATM   15  C   UNL     1      -7.198  10.069  67.518  1.00  0.00    -0.089 C  
HETATM   16  C   UNL     1      -6.078  11.125  67.428  1.00  0.00    -0.061 C  
HETATM   17  C   UNL     1      -6.933  10.195  69.991  1.00  0.00    -0.145 C  
HETATM   18  C   UNL     1      -5.873  11.277  69.775  1.00  0.00    -0.091 C  
BRANCH  13  19
HETATM   19  C   UNL     1      -5.782   8.266  68.698  1.00  0.00    -0.037 C  
BRANCH  19  20
HETATM   20  C   UNL     1      -5.858   7.353  67.457  1.00  0.00    -0.034 C  
BRANCH  20  21
HETATM   21  O   UNL     1      -5.552   5.986  67.710  1.00  0.00    -0.008 OA 
BRANCH  21  22
HETATM   22  C   UNL     1      -6.051   5.544  69.002  1.00  0.00    -0.025 C  
BRANCH  22  23
HETATM   23  C   UNL     1      -6.760   4.190  68.932  1.00  0.00    -0.046 C  
BRANCH  23  24
HETATM   24  C   UNL     1      -7.082   3.492  70.266  1.00  0.00    -0.038 C  
HETATM   25  C   UNL     1      -7.494   2.026  69.954  1.00  0.00    -0.043 C  
HETATM   26  C   UNL     1      -8.993   1.723  70.093  1.00  0.00    -0.138 C  
HETATM   27  C   UNL     1      -9.700   2.737  70.994  1.00  0.00    -0.160 C  
HETATM   28  C   UNL     1      -9.572   4.150  70.354  1.00  0.00    -0.266 C  
HETATM   29  C   UNL     1      -8.193   4.204  71.080  1.00  0.00    -0.075 C  
HETATM   30  C   UNL     1      -8.900   3.333  72.226  1.00  0.00    -0.116 C  
HETATM   31  C   UNL     1      -8.024   2.403  73.070  1.00  0.00    -0.050 C  
HETATM   32  C   UNL     1      -9.816   4.086  73.217  1.00  0.00    -0.173 C  
ENDBRANCH  23  24
ENDBRANCH  22  23
ENDBRANCH  21  22
ENDBRANCH  20  21
ENDBRANCH  19  20
ENDBRANCH  13  19
ENDBRANCH  12  13
ENDBRANCH   7  12
ENDBRANCH   2   3
TORSDOF 10
ENDMDL
MODEL      228
REMARK 921   NORMALIZED FREE ENERGY PREDICTED BY IDOCK:   -3.36 KCAL/MOL
REMARK 922        TOTAL FREE ENERGY PREDICTED BY IDOCK:   -6.60 KCAL/MOL
REMARK 923 INTER-LIGAND FREE ENERGY PREDICTED BY IDOCK:   -6.40 KCAL/MOL
REMARK 924 INTRA-LIGAND FREE ENERGY PREDICTED BY IDOCK:   -0.21 KCAL/MOL
REMARK 927      BINDING AFFINITY PREDICTED BY RF-SCORE:    0.00 PKD
ROOT
HETATM    1  C   UNL     1      -6.776   5.219  66.847  1.00  0.00    -0.061 C  
HETATM    2  O   UNL     1      -7.349   6.001  67.884  1.00  0.00    -0.080 OA 
ENDROOT
BRANCH   2   3
HETATM    3  C   UNL     1      -7.823   7.244  67.570  1.00  0.00    -0.112 A  
HETATM    4  C   UNL     1      -9.057   7.585  66.999  1.00  0.00    -0.135 A  
HETATM    5  C   UNL     1      -6.884   8.255  67.805  1.00  0.00    -0.070 A  
HETATM    6  C   UNL     1      -9.305   8.922  66.660  1.00  0.00    -0.237 A  
HETATM    7  C   UNL     1      -8.310   9.920  66.760  1.00  0.00    -0.125 A  
HETATM    8 BR   UNL     1      -5.797  10.851  67.898  1.00  0.00    -0.046 Br 
HETATM    9  C   UNL     1      -7.127   9.578  67.431  1.00  0.00    -0.086 A  
BRANCH   4  10
HETATM   10  O   UNL     1      -9.999   6.616  66.803  1.00  0.00    -0.174 OA 
HETATM   11  C   UNL     1     -10.828   6.322  67.927  1.00  0.00    -0.333 C  
ENDBRANCH   4  10
BRANCH   7  12
HETATM   12  C   UNL     1      -8.502  11.237  66.023  1.00  0.00    -0.102 C  
BRANCH  12  13
HETATM   13  N   UNL     1      -9.404  12.295  66.790  1.00  0.00    -0.212 N  
HETATM   14  O   UNL     1     -11.648  12.475  68.723  1.00  0.00    -0.275 OA 
HETATM   15  C   UNL     1     -10.910  12.093  66.420  1.00  0.00    -0.271 C  
HETATM   16  C   UNL     1     -11.828  12.890  67.368  1.00  0.00    -0.360 C  
HETATM   17  C   UNL     1      -9.295  11.963  68.311  1.00  0.00    -0.193 C  
HETATM   18  C   UNL     1     -10.313  12.715  69.170  1.00  0.00     0.190 C  
BRANCH  13  19
HETATM   19  C   UNL     1      -8.944  13.759  66.475  1.00  0.00    -0.057 C  
BRANCH  19  20
HETATM   20  C   UNL     1      -9.821  14.399  65.379  1.00  0.00    -0.230 C  
BRANCH  20  21
HETATM   21  O   UNL     1     -10.745  15.372  65.855  1.00  0.00    -0.315 OA 
BRANCH  21  22
HETATM   22  C   UNL     1     -10.778  16.554  65.010  1.00  0.00    -0.209 C  
BRANCH  22  23
HETATM   23  C   UNL     1     -10.381  17.829  65.757  1.00  0.00    -0.190 C  
BRANCH  23  24
HETATM   24  C   UNL     1      -9.225  17.722  66.769  1.00  0.00    -0.281 C  
HETATM   25  C   UNL     1      -9.837  17.697  68.198  1.00  0.00    -0.318 C  
HETATM   26  C   UNL     1      -9.667  18.990  69.007  1.00  0.00    -0.388 C  
HETATM   27  C   UNL     1      -8.509  19.842  68.487  1.00  0.00    -0.269 C  
HETATM   28  C   UNL     1      -8.813  20.255  67.017  1.00  0.00    -0.427 C  
HETATM   29  C   UNL     1      -8.192  18.872  66.645  1.00  0.00    -0.295 C  
HETATM   30  C   UNL     1      -7.233  19.101  67.909  1.00  0.00    -0.269 C  
HETATM   31  C   UNL     1      -6.690  17.868  68.636  1.00  0.00    -0.239 C  
HETATM   32  C   UNL     1      -6.032  20.056  67.717  1.00  0.00    -0.228 C  
ENDBRANCH  23  24
ENDBRANCH  22  23
ENDBRANCH  21  22
ENDBRANCH  20  21
ENDBRANCH  19  20
ENDBRANCH  13  19
ENDBRANCH  12  13
ENDBRANCH   7  12
ENDBRANCH   2   3
TORSDOF 10
ENDMDL
MODEL      229
REMARK 921   NORMALIZED FREE ENERGY PREDICTED BY IDOCK:   -3.33 KCAL/MOL
REMARK 922        TOTAL FREE ENERGY PREDICTED BY IDOCK:   -6.56 KCAL/MOL
REMARK 923 INTER-LIGAND FREE ENERGY PREDICTED BY IDOCK:   -5.76 KCAL/MOL
REMARK 924 INTRA-LIGAND FREE ENERGY PREDICTED BY IDOCK:   -0.80 KCAL/MOL
REMARK 927      BINDING AFFINITY PREDICTED BY RF-SCORE:    0.00 PKD
ROOT
HETATM    1  C   UNL     1      -7.175   3.156  68.065  1.00  0.00    -0.050 C  
HETATM    2  O   UNL     1      -8.313   3.728  67.436  1.00  0.00    -0.093 OA 
ENDROOT
BRANCH   2   3
HETATM    3  C   UNL     1      -9.219   4.391  68.215  1.00  0.00    -0.137 A  
HETATM    4  C   UNL     1     -10.027   5.483  67.869  1.00  0.00    -0.149 A  
HETATM    5  C   UNL     1      -9.242   3.923  69.534  1.00  0.00    -0.226 A  
HETATM    6  C   UNL     1     -10.819   6.085  68.857  1.00  0.00    -0.400 A  
HETATM    7  C   UNL     1     -10.737   5.711  70.217  1.00  0.00    -0.364 A  
HETATM    8 BR   UNL     1     -10.006   3.747  72.238  1.00  0.00    -0.231 Br 
HETATM    9  C   UNL     1     -10.006   4.553  70.518  1.00  0.00    -0.208 A  
BRANCH   4  10
HETATM   10  O   UNL     1     -10.047   5.924  66.577  1.00  0.00    -0.172 OA 
HETATM   11  C   UNL     1     -10.707   5.070  65.641  1.00  0.00    -0.005 C  
ENDBRANCH   4  10
BRANCH   7  12
HETATM   12  C   UNL     1     -11.305   6.640  71.279  1.00  0.00    -0.299 C  
BRANCH  12  13
HETATM   13  N   UNL     1     -10.244   7.636  71.916  1.00  0.00    -0.190 N  
HETATM   14  O   UNL     1      -7.578   7.679  73.216  1.00  0.00    -0.092 OA 
HETATM   15  C   UNL     1      -9.983   7.266  73.412  1.00  0.00    -0.296 C  
HETATM   16  C   UNL     1      -8.749   8.010  73.963  1.00  0.00    -0.202 C  
HETATM   17  C   UNL     1      -8.892   7.389  71.178  1.00  0.00    -0.142 C  
HETATM   18  C   UNL     1      -7.700   8.073  71.849  1.00  0.00    -0.097 C  
BRANCH  13  19
HETATM   19  C   UNL     1     -10.721   9.123  71.784  1.00  0.00    -0.335 C  
BRANCH  19  20
HETATM   20  C   UNL     1     -12.101   9.211  71.101  1.00  0.00    -0.299 C  
BRANCH  20  21
HETATM   21  O   UNL     1     -12.444  10.509  70.626  1.00  0.00    -0.317 OA 
BRANCH  21  22
HETATM   22  C   UNL     1     -11.284  11.378  70.528  1.00  0.00     0.494 C  
BRANCH  22  23
HETATM   23  C   UNL     1     -11.348  12.319  69.323  1.00  0.00    -0.317 C  
BRANCH  23  24
HETATM   24  C   UNL     1     -10.647  11.859  68.031  1.00  0.00    -0.234 C  
HETATM   25  C   UNL     1     -11.068  10.388  67.754  1.00  0.00    -0.365 C  
HETATM   26  C   UNL     1      -9.988   9.334  68.036  1.00  0.00    -0.216 C  
HETATM   27  C   UNL     1      -8.583   9.937  68.024  1.00  0.00    -0.121 C  
HETATM   28  C   UNL     1      -8.488  11.006  69.151  1.00  0.00    -0.022 C  
HETATM   29  C   UNL     1      -9.102  11.976  68.095  1.00  0.00    -0.191 C  
HETATM   30  C   UNL     1      -8.283  11.121  67.014  1.00  0.00    -0.146 C  
HETATM   31  C   UNL     1      -8.832  11.044  65.587  1.00  0.00    -0.187 C  
HETATM   32  C   UNL     1      -6.771  11.417  66.883  1.00  0.00    -0.145 C  
ENDBRANCH  23  24
ENDBRANCH  22  23
ENDBRANCH  21  22
ENDBRANCH  20  21
ENDBRANCH  19  20
ENDBRANCH  13  19
ENDBRANCH  12  13
ENDBRANCH   7  12
ENDBRANCH   2   3
TORSDOF 10
ENDMDL
MODEL      230
REMARK 921   NORMALIZED FREE ENERGY PREDICTED BY IDOCK:   -3.33 KCAL/MOL
REMARK 922        TOTAL FREE ENERGY PREDICTED BY IDOCK:   -6.56 KCAL/MOL
REMARK 923 INTER-LIGAND FREE ENERGY PREDICTED BY IDOCK:   -6.26 KCAL/MOL
REMARK 924 INTRA-LIGAND FREE ENERGY PREDICTED BY IDOCK:   -0.29 KCAL/MOL
REMARK 927      BINDING AFFINITY PREDICTED BY RF-SCORE:    0.00 PKD
ROOT
HETATM    1  C   UNL     1     -13.124  13.882  65.086  1.00  0.00    -0.088 C  
HETATM    2  O   UNL     1     -12.394  12.919  64.340  1.00  0.00    -0.427 OA 
ENDROOT
BRANCH   2   3
HETATM    3  C   UNL     1     -11.429  12.197  64.983  1.00  0.00    -0.323 A  
HETATM    4  C   UNL     1     -10.370  11.469  64.423  1.00  0.00    -0.312 A  
HETATM    5  C   UNL     1     -11.619  12.156  66.369  1.00  0.00    -0.429 A  
HETATM    6  C   UNL     1      -9.547  10.707  65.264  1.00  0.00    -0.293 A  
HETATM    7  C   UNL     1      -9.821  10.546  66.640  1.00  0.00    -0.246 A  
HETATM    8 BR   UNL     1     -11.137  11.485  69.061  1.00  0.00    -0.327 Br 
HETATM    9  C   UNL     1     -10.816  11.365  67.193  1.00  0.00    -0.268 A  
BRANCH   4  10
HETATM   10  O   UNL     1     -10.146  11.533  63.078  1.00  0.00    -0.346 OA 
HETATM   11  C   UNL     1      -8.921  10.955  62.625  1.00  0.00    -0.319 C  
ENDBRANCH   4  10
BRANCH   7  12
HETATM   12  C   UNL     1      -9.147   9.417  67.406  1.00  0.00    -0.126 C  
BRANCH  12  13
HETATM   13  N   UNL     1      -7.766   9.814  68.081  1.00  0.00    -0.082 N  
HETATM   14  O   UNL     1      -5.750   8.820  70.017  1.00  0.00    -0.028 OA 
HETATM   15  C   UNL     1      -7.922   9.882  69.636  1.00  0.00    -0.162 C  
HETATM   16  C   UNL     1      -6.548   9.962  70.330  1.00  0.00    -0.125 C  
HETATM   17  C   UNL     1      -6.776   8.640  67.808  1.00  0.00    -0.066 C  
HETATM   18  C   UNL     1      -5.481   8.737  68.617  1.00  0.00    -0.037 C  
BRANCH  13  19
HETATM   19  C   UNL     1      -7.234  11.174  67.514  1.00  0.00    -0.101 C  
BRANCH  19  20
HETATM   20  C   UNL     1      -7.675  12.360  68.397  1.00  0.00    -0.144 C  
BRANCH  20  21
HETATM   21  O   UNL     1      -6.876  13.530  68.255  1.00  0.00    -0.085 OA 
BRANCH  21  22
HETATM   22  C   UNL     1      -7.405  14.648  69.020  1.00  0.00    -0.134 C  
BRANCH  22  23
HETATM   23  C   UNL     1      -6.334  15.682  69.376  1.00  0.00    -0.150 C  
BRANCH  23  24
HETATM   24  C   UNL     1      -6.772  17.156  69.445  1.00  0.00    -0.199 C  
HETATM   25  C   UNL     1      -8.175  17.272  68.785  1.00  0.00    -0.231 C  
HETATM   26  C   UNL     1      -8.194  17.928  67.397  1.00  0.00    -0.224 C  
HETATM   27  C   UNL     1      -6.958  18.796  67.158  1.00  0.00    -0.206 C  
HETATM   28  C   UNL     1      -5.691  17.893  67.224  1.00  0.00    -0.154 C  
HETATM   29  C   UNL     1      -5.774  18.127  68.765  1.00  0.00    -0.191 C  
HETATM   30  C   UNL     1      -6.341  19.579  68.390  1.00  0.00    -0.277 C  
HETATM   31  C   UNL     1      -7.280  20.266  69.385  1.00  0.00     0.103 C  
HETATM   32  C   UNL     1      -5.311  20.646  67.955  1.00  0.00    -0.270 C  
ENDBRANCH  23  24
ENDBRANCH  22  23
ENDBRANCH  21  22
ENDBRANCH  20  21
ENDBRANCH  19  20
ENDBRANCH  13  19
ENDBRANCH  12  13
ENDBRANCH   7  12
ENDBRANCH   2   3
TORSDOF 10
ENDMDL
MODEL      231
REMARK 921   NORMALIZED FREE ENERGY PREDICTED BY IDOCK:   -3.32 KCAL/MOL
REMARK 922        TOTAL FREE ENERGY PREDICTED BY IDOCK:   -6.53 KCAL/MOL
REMARK 923 INTER-LIGAND FREE ENERGY PREDICTED BY IDOCK:   -6.15 KCAL/MOL
REMARK 924 INTRA-LIGAND FREE ENERGY PREDICTED BY IDOCK:   -0.38 KCAL/MOL
REMARK 927      BINDING AFFINITY PREDICTED BY RF-SCORE:    0.00 PKD
ROOT
HETATM    1  C   UNL     1      -6.840   6.361  66.914  1.00  0.00    -0.066 C  
HETATM    2  O   UNL     1      -6.847   7.717  67.335  1.00  0.00    -0.065 OA 
ENDROOT
BRANCH   2   3
HETATM    3  C   UNL     1      -7.974   8.458  67.116  1.00  0.00    -0.104 A  
HETATM    4  C   UNL     1      -8.326   9.187  65.972  1.00  0.00    -0.121 A  
HETATM    5  C   UNL     1      -8.808   8.516  68.239  1.00  0.00    -0.142 A  
HETATM    6  C   UNL     1      -9.489   9.969  65.993  1.00  0.00    -0.251 A  
HETATM    7  C   UNL     1     -10.255  10.147  67.167  1.00  0.00    -0.278 A  
HETATM    8 BR   UNL     1     -11.025   9.230  69.821  1.00  0.00    -0.176 Br 
HETATM    9  C   UNL     1      -9.945   9.327  68.262  1.00  0.00    -0.173 A  
BRANCH   4  10
HETATM   10  O   UNL     1      -7.544   9.106  64.855  1.00  0.00    -0.102 OA 
HETATM   11  C   UNL     1      -8.159   8.513  63.711  1.00  0.00    -0.154 C  
ENDBRANCH   4  10
BRANCH   7  12
HETATM   12  C   UNL     1     -11.253  11.293  67.238  1.00  0.00    -0.296 C  
BRANCH  12  13
HETATM   13  N   UNL     1     -10.597  12.738  67.192  1.00  0.00    -0.236 N  
HETATM   14  O   UNL     1     -11.178  15.534  66.386  1.00  0.00    -0.240 OA 
HETATM   15  C   UNL     1     -10.547  13.265  65.720  1.00  0.00    -0.284 C  
HETATM   16  C   UNL     1     -10.204  14.767  65.677  1.00  0.00    -0.358 C  
HETATM   17  C   UNL     1     -11.566  13.698  67.950  1.00  0.00    -0.341 C  
HETATM   18  C   UNL     1     -11.220  15.177  67.768  1.00  0.00    -0.323 C  
BRANCH  13  19
HETATM   19  C   UNL     1      -9.166  12.726  67.829  1.00  0.00    -0.199 C  
BRANCH  19  20
HETATM   20  C   UNL     1      -8.076  12.967  66.764  1.00  0.00     0.154 C  
BRANCH  20  21
HETATM   21  O   UNL     1      -6.910  13.623  67.249  1.00  0.00    -0.181 OA 
BRANCH  21  22
HETATM   22  C   UNL     1      -7.230  14.672  68.203  1.00  0.00    -0.124 C  
BRANCH  22  23
HETATM   23  C   UNL     1      -6.039  15.584  68.504  1.00  0.00    -0.096 C  
BRANCH  23  24
HETATM   24  C   UNL     1      -6.347  16.990  69.050  1.00  0.00    -0.198 C  
HETATM   25  C   UNL     1      -7.887  17.200  68.994  1.00  0.00    -0.151 C  
HETATM   26  C   UNL     1      -8.380  18.145  67.889  1.00  0.00    -0.254 C  
HETATM   27  C   UNL     1      -7.276  19.087  67.408  1.00  0.00    -0.228 C  
HETATM   28  C   UNL     1      -6.120  18.237  66.805  1.00  0.00    -0.182 C  
HETATM   29  C   UNL     1      -5.620  18.122  68.278  1.00  0.00    -0.169 C  
HETATM   30  C   UNL     1      -6.212  19.600  68.465  1.00  0.00    -0.279 C  
HETATM   31  C   UNL     1      -6.686  20.017  69.860  1.00  0.00    -0.254 C  
HETATM   32  C   UNL     1      -5.361  20.772  67.926  1.00  0.00    -0.278 C  
ENDBRANCH  23  24
ENDBRANCH  22  23
ENDBRANCH  21  22
ENDBRANCH  20  21
ENDBRANCH  19  20
ENDBRANCH  13  19
ENDBRANCH  12  13
ENDBRANCH   7  12
ENDBRANCH   2   3
TORSDOF 10
ENDMDL
MODEL      232
REMARK 921   NORMALIZED FREE ENERGY PREDICTED BY IDOCK:   -3.31 KCAL/MOL
REMARK 922        TOTAL FREE ENERGY PREDICTED BY IDOCK:   -6.52 KCAL/MOL
REMARK 923 INTER-LIGAND FREE ENERGY PREDICTED BY IDOCK:   -7.25 KCAL/MOL
REMARK 924 INTRA-LIGAND FREE ENERGY PREDICTED BY IDOCK:    0.73 KCAL/MOL
REMARK 927      BINDING AFFINITY PREDICTED BY RF-SCORE:    0.00 PKD
ROOT
HETATM    1  C   UNL     1     -12.506  11.634  70.730  1.00  0.00    -0.330 C  
HETATM    2  O   UNL     1     -12.712  12.910  71.319  1.00  0.00    -0.367 OA 
ENDROOT
BRANCH   2   3
HETATM    3  C   UNL     1     -11.954  13.958  70.876  1.00  0.00    -0.231 A  
HETATM    4  C   UNL     1     -12.006  15.299  71.279  1.00  0.00    -0.353 A  
HETATM    5  C   UNL     1     -11.088  13.596  69.838  1.00  0.00     0.086 A  
HETATM    6  C   UNL     1     -11.205  16.241  70.618  1.00  0.00    -0.310 A  
HETATM    7  C   UNL     1     -10.440  15.909  69.478  1.00  0.00    -0.281 A  
HETATM    8 BR   UNL     1      -9.126  13.893  67.840  1.00  0.00    -0.204 Br 
HETATM    9  C   UNL     1     -10.322  14.548  69.162  1.00  0.00    -0.189 A  
BRANCH   4  10
HETATM   10  O   UNL     1     -12.816  15.659  72.318  1.00  0.00    -0.382 OA 
HETATM   11  C   UNL     1     -12.327  15.344  73.622  1.00  0.00    -0.576 C  
ENDBRANCH   4  10
BRANCH   7  12
HETATM   12  C   UNL     1      -9.919  17.023  68.583  1.00  0.00    -0.294 C  
BRANCH  12  13
HETATM   13  N   UNL     1      -8.336  17.102  68.486  1.00  0.00    -0.254 N  
HETATM   14  O   UNL     1      -5.924  17.600  70.140  1.00  0.00    -0.236 OA 
HETATM   15  C   UNL     1      -7.835  18.519  68.919  1.00  0.00    -0.218 C  
HETATM   16  C   UNL     1      -6.308  18.531  69.128  1.00  0.00    -0.253 C  
HETATM   17  C   UNL     1      -7.768  16.111  69.549  1.00  0.00    -0.022 C  
HETATM   18  C   UNL     1      -6.263  16.261  69.776  1.00  0.00    -0.192 C  
BRANCH  13  19
HETATM   19  C   UNL     1      -7.843  16.755  67.040  1.00  0.00    -0.194 C  
BRANCH  19  20
HETATM   20  C   UNL     1      -8.816  17.297  65.972  1.00  0.00    -0.084 C  
BRANCH  20  21
HETATM   21  O   UNL     1      -9.473  16.292  65.207  1.00  0.00    -0.316 OA 
BRANCH  21  22
HETATM   22  C   UNL     1     -10.893  16.217  65.508  1.00  0.00    -0.245 C  
BRANCH  22  23
HETATM   23  C   UNL     1     -11.749  15.956  64.266  1.00  0.00    -0.132 C  
BRANCH  23  24
HETATM   24  C   UNL     1     -12.336  14.542  64.099  1.00  0.00    -0.317 C  
HETATM   25  C   UNL     1     -12.910  14.095  65.473  1.00  0.00    -0.404 C  
HETATM   26  C   UNL     1     -12.080  13.041  66.218  1.00  0.00    -0.453 C  
HETATM   27  C   UNL     1     -11.164  12.262  65.274  1.00  0.00    -0.372 C  
HETATM   28  C   UNL     1     -10.163  13.255  64.614  1.00  0.00    -0.334 C  
HETATM   29  C   UNL     1     -11.305  13.506  63.582  1.00  0.00     0.009 C  
HETATM   30  C   UNL     1     -11.679  11.963  63.805  1.00  0.00    -0.554 C  
HETATM   31  C   UNL     1     -13.134  11.535  63.595  1.00  0.00     0.309 C  
HETATM   32  C   UNL     1     -10.808  10.916  63.075  1.00  0.00     0.442 C  
ENDBRANCH  23  24
ENDBRANCH  22  23
ENDBRANCH  21  22
ENDBRANCH  20  21
ENDBRANCH  19  20
ENDBRANCH  13  19
ENDBRANCH  12  13
ENDBRANCH   7  12
ENDBRANCH   2   3
TORSDOF 10
ENDMDL
MODEL      233
REMARK 921   NORMALIZED FREE ENERGY PREDICTED BY IDOCK:   -3.31 KCAL/MOL
REMARK 922        TOTAL FREE ENERGY PREDICTED BY IDOCK:   -6.52 KCAL/MOL
REMARK 923 INTER-LIGAND FREE ENERGY PREDICTED BY IDOCK:   -4.96 KCAL/MOL
REMARK 924 INTRA-LIGAND FREE ENERGY PREDICTED BY IDOCK:   -1.55 KCAL/MOL
REMARK 927      BINDING AFFINITY PREDICTED BY RF-SCORE:    0.00 PKD
ROOT
HETATM    1  C   UNL     1      -5.588  10.494  62.479  1.00  0.00    -0.141 C  
HETATM    2  O   UNL     1      -6.923  10.538  62.963  1.00  0.00    -0.114 OA 
ENDROOT
BRANCH   2   3
HETATM    3  C   UNL     1      -7.305   9.613  63.894  1.00  0.00    -0.120 A  
HETATM    4  C   UNL     1      -8.273   9.742  64.899  1.00  0.00    -0.142 A  
HETATM    5  C   UNL     1      -6.546   8.439  63.832  1.00  0.00    -0.075 A  
HETATM    6  C   UNL     1      -8.439   8.701  65.823  1.00  0.00    -0.165 A  
HETATM    7  C   UNL     1      -7.580   7.580  65.855  1.00  0.00    -0.088 A  
HETATM    8 BR   UNL     1      -5.659   5.854  64.511  1.00  0.00    -0.017 Br 
HETATM    9  C   UNL     1      -6.693   7.424  64.780  1.00  0.00    -0.047 A  
BRANCH   4  10
HETATM   10  O   UNL     1      -9.050  10.864  64.946  1.00  0.00    -0.197 OA 
HETATM   11  C   UNL     1     -10.198  10.859  64.095  1.00  0.00    -0.359 C  
ENDBRANCH   4  10
BRANCH   7  12
HETATM   12  C   UNL     1      -7.553   6.699  67.095  1.00  0.00    -0.096 C  
BRANCH  12  13
HETATM   13  N   UNL     1      -8.628   5.531  67.096  1.00  0.00    -0.110 N  
HETATM   14  O   UNL     1      -9.411   3.085  65.610  1.00  0.00    -0.150 OA 
HETATM   15  C   UNL     1      -9.428   5.529  65.752  1.00  0.00    -0.052 C  
HETATM   16  C   UNL     1     -10.255   4.237  65.598  1.00  0.00    -0.197 C  
HETATM   17  C   UNL     1      -7.836   4.187  67.118  1.00  0.00    -0.096 C  
HETATM   18  C   UNL     1      -8.712   2.962  66.850  1.00  0.00    -0.128 C  
BRANCH  13  19
HETATM   19  C   UNL     1      -9.597   5.661  68.320  1.00  0.00    -0.121 C  
BRANCH  19  20
HETATM   20  C   UNL     1     -10.638   6.777  68.096  1.00  0.00    -0.230 C  
BRANCH  20  21
HETATM   21  O   UNL     1     -11.035   7.461  69.279  1.00  0.00    -0.180 OA 
BRANCH  21  22
HETATM   22  C   UNL     1      -9.896   7.854  70.092  1.00  0.00    -0.184 C  
BRANCH  22  23
HETATM   23  C   UNL     1      -9.124   9.035  69.500  1.00  0.00    -0.151 C  
BRANCH  23  24
HETATM   24  C   UNL     1      -9.723  10.439  69.697  1.00  0.00    -0.158 C  
HETATM   25  C   UNL     1     -10.998  10.299  70.576  1.00  0.00    -0.343 C  
HETATM   26  C   UNL     1     -12.329  10.461  69.829  1.00  0.00    -0.122 C  
HETATM   27  C   UNL     1     -12.159  11.232  68.519  1.00  0.00    -0.161 C  
HETATM   28  C   UNL     1     -11.203  10.431  67.588  1.00  0.00    -0.287 C  
HETATM   29  C   UNL     1     -10.061  11.156  68.365  1.00  0.00    -0.193 C  
HETATM   30  C   UNL     1     -11.080  12.391  68.464  1.00  0.00    -0.296 C  
HETATM   31  C   UNL     1     -10.945  13.344  69.654  1.00  0.00     0.075 C  
HETATM   32  C   UNL     1     -11.231  13.280  67.209  1.00  0.00    -0.320 C  
ENDBRANCH  23  24
ENDBRANCH  22  23
ENDBRANCH  21  22
ENDBRANCH  20  21
ENDBRANCH  19  20
ENDBRANCH  13  19
ENDBRANCH  12  13
ENDBRANCH   7  12
ENDBRANCH   2   3
TORSDOF 10
ENDMDL
MODEL      234
REMARK 921   NORMALIZED FREE ENERGY PREDICTED BY IDOCK:   -3.29 KCAL/MOL
REMARK 922        TOTAL FREE ENERGY PREDICTED BY IDOCK:   -6.48 KCAL/MOL
REMARK 923 INTER-LIGAND FREE ENERGY PREDICTED BY IDOCK:   -6.36 KCAL/MOL
REMARK 924 INTRA-LIGAND FREE ENERGY PREDICTED BY IDOCK:   -0.12 KCAL/MOL
REMARK 927      BINDING AFFINITY PREDICTED BY RF-SCORE:    0.00 PKD
ROOT
HETATM    1  C   UNL     1     -11.299  12.699  65.220  1.00  0.00    -0.315 C  
HETATM    2  O   UNL     1     -11.748  13.171  66.481  1.00  0.00    -0.345 OA 
ENDROOT
BRANCH   2   3
HETATM    3  C   UNL     1     -11.661  12.330  67.556  1.00  0.00    -0.332 A  
HETATM    4  C   UNL     1     -12.007  12.587  68.889  1.00  0.00    -0.236 A  
HETATM    5  C   UNL     1     -11.077  11.100  67.232  1.00  0.00    -0.366 A  
HETATM    6  C   UNL     1     -11.739  11.613  69.862  1.00  0.00    -0.414 A  
HETATM    7  C   UNL     1     -11.020  10.433  69.567  1.00  0.00    -0.307 A  
HETATM    8 BR   UNL     1     -10.076   8.495  67.610  1.00  0.00    -0.291 Br 
HETATM    9  C   UNL     1     -10.781  10.152  68.214  1.00  0.00    -0.238 A  
BRANCH   4  10
HETATM   10  O   UNL     1     -12.615  13.765  69.213  1.00  0.00    -0.116 OA 
HETATM   11  C   UNL     1     -11.752  14.798  69.690  1.00  0.00    -0.314 C  
ENDBRANCH   4  10
BRANCH   7  12
HETATM   12  C   UNL     1     -10.423   9.622  70.707  1.00  0.00    -0.305 C  
BRANCH  12  13
HETATM   13  N   UNL     1     -11.494   8.904  71.634  1.00  0.00    -0.313 N  
HETATM   14  O   UNL     1     -14.270   7.856  71.606  1.00  0.00    -0.413 OA 
HETATM   15  C   UNL     1     -12.776   9.789  71.768  1.00  0.00    -0.426 C  
HETATM   16  C   UNL     1     -13.937   8.995  72.400  1.00  0.00    -0.448 C  
HETATM   17  C   UNL     1     -11.949   7.614  70.884  1.00  0.00    -0.229 C  
HETATM   18  C   UNL     1     -13.173   6.946  71.512  1.00  0.00    -0.251 C  
BRANCH  13  19
HETATM   19  C   UNL     1     -10.890   8.581  73.043  1.00  0.00     0.441 C  
BRANCH  19  20
HETATM   20  C   UNL     1      -9.598   7.747  72.921  1.00  0.00    -0.242 C  
BRANCH  20  21
HETATM   21  O   UNL     1      -8.397   8.485  73.117  1.00  0.00    -0.369 OA 
BRANCH  21  22
HETATM   22  C   UNL     1      -7.241   7.618  73.274  1.00  0.00    -0.089 C  
BRANCH  22  23
HETATM   23  C   UNL     1      -6.084   7.998  72.348  1.00  0.00    -0.047 C  
BRANCH  23  24
HETATM   24  C   UNL     1      -5.860   7.120  71.103  1.00  0.00    -0.036 C  
HETATM   25  C   UNL     1      -7.054   7.346  70.134  1.00  0.00    -0.064 C  
HETATM   26  C   UNL     1      -8.065   6.193  70.060  1.00  0.00    -0.119 C  
HETATM   27  C   UNL     1      -7.457   4.869  70.524  1.00  0.00    -0.058 C  
HETATM   28  C   UNL     1      -7.027   5.010  72.013  1.00  0.00    -0.066 C  
HETATM   29  C   UNL     1      -5.710   5.613  71.433  1.00  0.00    -0.020 C  
HETATM   30  C   UNL     1      -5.927   4.596  70.212  1.00  0.00    -0.017 C  
HETATM   31  C   UNL     1      -5.362   4.981  68.843  1.00  0.00    -0.004 C  
HETATM   32  C   UNL     1      -5.530   3.120  70.447  1.00  0.00    -0.012 C  
ENDBRANCH  23  24
ENDBRANCH  22  23
ENDBRANCH  21  22
ENDBRANCH  20  21
ENDBRANCH  19  20
ENDBRANCH  13  19
ENDBRANCH  12  13
ENDBRANCH   7  12
ENDBRANCH   2   3
TORSDOF 10
ENDMDL
MODEL      235
REMARK 921   NORMALIZED FREE ENERGY PREDICTED BY IDOCK:   -3.23 KCAL/MOL
REMARK 922        TOTAL FREE ENERGY PREDICTED BY IDOCK:   -6.39 KCAL/MOL
REMARK 923 INTER-LIGAND FREE ENERGY PREDICTED BY IDOCK:   -6.00 KCAL/MOL
REMARK 924 INTRA-LIGAND FREE ENERGY PREDICTED BY IDOCK:   -0.39 KCAL/MOL
REMARK 927      BINDING AFFINITY PREDICTED BY RF-SCORE:    0.00 PKD
ROOT
HETATM    1  C   UNL     1      -5.197   9.388  70.097  1.00  0.00    -0.028 C  
HETATM    2  O   UNL     1      -6.543   9.838  70.046  1.00  0.00    -0.059 OA 
ENDROOT
BRANCH   2   3
HETATM    3  C   UNL     1      -6.854  10.854  69.186  1.00  0.00    -0.086 A  
HETATM    4  C   UNL     1      -6.862  12.233  69.437  1.00  0.00     0.007 A  
HETATM    5  C   UNL     1      -7.281  10.391  67.936  1.00  0.00    -0.085 A  
HETATM    6  C   UNL     1      -7.316  13.105  68.438  1.00  0.00    -0.116 A  
HETATM    7  C   UNL     1      -7.883  12.637  67.232  1.00  0.00    -0.155 A  
HETATM    8 BR   UNL     1      -8.221  10.499  65.284  1.00  0.00    -0.112 Br 
HETATM    9  C   UNL     1      -7.766  11.266  66.961  1.00  0.00    -0.147 A  
BRANCH   4  10
HETATM   10  O   UNL     1      -6.409  12.702  70.637  1.00  0.00    -0.059 OA 
HETATM   11  C   UNL     1      -5.866  14.022  70.621  1.00  0.00    -0.192 C  
ENDBRANCH   4  10
BRANCH   7  12
HETATM   12  C   UNL     1      -8.705  13.590  66.377  1.00  0.00     0.247 C  
BRANCH  12  13
HETATM   13  N   UNL     1     -10.276  13.437  66.547  1.00  0.00    -0.276 N  
HETATM   14  O   UNL     1     -12.787  13.301  64.974  1.00  0.00    -0.686 OA 
HETATM   15  C   UNL     1     -11.011  14.678  65.944  1.00  0.00    -0.332 C  
HETATM   16  C   UNL     1     -12.526  14.422  65.819  1.00  0.00    -0.319 C  
HETATM   17  C   UNL     1     -10.710  12.222  65.670  1.00  0.00    -0.267 C  
HETATM   18  C   UNL     1     -12.226  12.101  65.507  1.00  0.00    -0.018 C  
BRANCH  13  19
HETATM   19  C   UNL     1     -10.660  13.239  68.054  1.00  0.00    -0.240 C  
BRANCH  19  20
HETATM   20  C   UNL     1     -10.957  11.758  68.367  1.00  0.00    -0.231 C  
BRANCH  20  21
HETATM   21  O   UNL     1     -10.680  11.371  69.709  1.00  0.00    -0.068 OA 
BRANCH  21  22
HETATM   22  C   UNL     1     -11.222  10.060  70.022  1.00  0.00    -0.288 C  
BRANCH  22  23
HETATM   23  C   UNL     1     -10.404   9.317  71.081  1.00  0.00    -0.392 C  
BRANCH  23  24
HETATM   24  C   UNL     1      -9.649   8.053  70.630  1.00  0.00    -0.172 C  
HETATM   25  C   UNL     1      -9.903   7.858  69.109  1.00  0.00    -0.174 C  
HETATM   26  C   UNL     1     -10.865   6.718  68.746  1.00  0.00    -0.280 C  
HETATM   27  C   UNL     1     -10.974   5.683  69.866  1.00  0.00    -0.309 C  
HETATM   28  C   UNL     1     -11.542   6.379  71.137  1.00  0.00    -0.378 C  
HETATM   29  C   UNL     1     -10.060   6.780  71.413  1.00  0.00    -0.198 C  
HETATM   30  C   UNL     1      -9.683   5.377  70.734  1.00  0.00    -0.239 C  
HETATM   31  C   UNL     1      -8.325   5.255  70.037  1.00  0.00    -0.098 C  
HETATM   32  C   UNL     1      -9.842   4.109  71.603  1.00  0.00    -0.254 C  
ENDBRANCH  23  24
ENDBRANCH  22  23
ENDBRANCH  21  22
ENDBRANCH  20  21
ENDBRANCH  19  20
ENDBRANCH  13  19
ENDBRANCH  12  13
ENDBRANCH   7  12
ENDBRANCH   2   3
TORSDOF 10
ENDMDL
MODEL      236
REMARK 921   NORMALIZED FREE ENERGY PREDICTED BY IDOCK:   -3.23 KCAL/MOL
REMARK 922        TOTAL FREE ENERGY PREDICTED BY IDOCK:   -6.39 KCAL/MOL
REMARK 923 INTER-LIGAND FREE ENERGY PREDICTED BY IDOCK:   -5.78 KCAL/MOL
REMARK 924 INTRA-LIGAND FREE ENERGY PREDICTED BY IDOCK:   -0.61 KCAL/MOL
REMARK 927      BINDING AFFINITY PREDICTED BY RF-SCORE:    0.00 PKD
ROOT
HETATM    1  C   UNL     1      -8.792   1.519  67.688  1.00  0.00    -0.113 C  
HETATM    2  O   UNL     1      -9.235   2.180  68.865  1.00  0.00    -0.127 OA 
ENDROOT
BRANCH   2   3
HETATM    3  C   UNL     1      -9.403   3.536  68.821  1.00  0.00    -0.166 A  
HETATM    4  C   UNL     1      -9.940   4.376  69.806  1.00  0.00    -0.154 A  
HETATM    5  C   UNL     1      -9.045   4.085  67.584  1.00  0.00    -0.172 A  
HETATM    6  C   UNL     1     -10.120   5.736  69.517  1.00  0.00    -0.278 A  
HETATM    7  C   UNL     1      -9.898   6.266  68.227  1.00  0.00    -0.134 A  
HETATM    8 BR   UNL     1      -8.640   6.050  65.609  1.00  0.00    -0.140 Br 
HETATM    9  C   UNL     1      -9.263   5.433  67.294  1.00  0.00    -0.111 A  
BRANCH   4  10
HETATM   10  O   UNL     1     -10.255   3.863  71.031  1.00  0.00    -0.056 OA 
HETATM   11  C   UNL     1      -9.671   4.529  72.151  1.00  0.00    -0.163 C  
ENDBRANCH   4  10
BRANCH   7  12
HETATM   12  C   UNL     1     -10.476   7.628  67.872  1.00  0.00    -0.207 C  
BRANCH  12  13
HETATM   13  N   UNL     1      -9.793   8.848  68.624  1.00  0.00    -0.163 N  
HETATM   14  O   UNL     1      -7.899   9.464  70.823  1.00  0.00    -0.175 OA 
HETATM   15  C   UNL     1     -10.162   8.825  70.143  1.00  0.00    -0.190 C  
HETATM   16  C   UNL     1      -9.281   9.803  70.946  1.00  0.00     0.342 C  
HETATM   17  C   UNL     1      -8.252   8.613  68.561  1.00  0.00    -0.122 C  
HETATM   18  C   UNL     1      -7.457   9.553  69.468  1.00  0.00    -0.092 C  
BRANCH  13  19
HETATM   19  C   UNL     1     -10.205  10.211  67.971  1.00  0.00    -0.173 C  
BRANCH  19  20
HETATM   20  C   UNL     1     -11.655  10.592  68.335  1.00  0.00    -0.128 C  
BRANCH  20  21
HETATM   21  O   UNL     1     -11.787  11.834  69.017  1.00  0.00    -0.295 OA 
BRANCH  21  22
HETATM   22  C   UNL     1     -11.393  12.959  68.185  1.00  0.00    -0.289 C  
BRANCH  22  23
HETATM   23  C   UNL     1     -10.683  14.061  68.975  1.00  0.00    -0.232 C  
BRANCH  23  24
HETATM   24  C   UNL     1     -10.776  15.496  68.423  1.00  0.00    -0.263 C  
HETATM   25  C   UNL     1     -11.421  15.427  67.010  1.00  0.00    -0.103 C  
HETATM   26  C   UNL     1     -10.456  15.650  65.838  1.00  0.00    -0.358 C  
HETATM   27  C   UNL     1      -9.195  16.400  66.269  1.00  0.00    -0.350 C  
HETATM   28  C   UNL     1      -8.442  15.545  67.330  1.00  0.00    -0.216 C  
HETATM   29  C   UNL     1      -9.405  16.218  68.356  1.00  0.00    -0.210 C  
HETATM   30  C   UNL     1      -9.328  17.503  67.400  1.00  0.00    -0.249 C  
HETATM   31  C   UNL     1     -10.524  18.458  67.377  1.00  0.00    -0.443 C  
HETATM   32  C   UNL     1      -8.066  18.389  67.513  1.00  0.00    -0.253 C  
ENDBRANCH  23  24
ENDBRANCH  22  23
ENDBRANCH  21  22
ENDBRANCH  20  21
ENDBRANCH  19  20
ENDBRANCH  13  19
ENDBRANCH  12  13
ENDBRANCH   7  12
ENDBRANCH   2   3
TORSDOF 10
ENDMDL
MODEL      237
REMARK 921   NORMALIZED FREE ENERGY PREDICTED BY IDOCK:   -3.20 KCAL/MOL
REMARK 922        TOTAL FREE ENERGY PREDICTED BY IDOCK:   -6.35 KCAL/MOL
REMARK 923 INTER-LIGAND FREE ENERGY PREDICTED BY IDOCK:   -5.44 KCAL/MOL
REMARK 924 INTRA-LIGAND FREE ENERGY PREDICTED BY IDOCK:   -0.90 KCAL/MOL
REMARK 927      BINDING AFFINITY PREDICTED BY RF-SCORE:    0.00 PKD
ROOT
HETATM    1  C   UNL     1      -9.652   3.265  68.614  1.00  0.00    -0.046 C  
HETATM    2  O   UNL     1     -10.116   4.464  68.010  1.00  0.00    -0.061 OA 
ENDROOT
BRANCH   2   3
HETATM    3  C   UNL     1      -9.630   5.654  68.474  1.00  0.00    -0.130 A  
HETATM    4  C   UNL     1     -10.169   6.483  69.468  1.00  0.00    -0.186 A  
HETATM    5  C   UNL     1      -8.492   6.079  67.780  1.00  0.00    -0.107 A  
HETATM    6  C   UNL     1      -9.564   7.722  69.722  1.00  0.00    -0.167 A  
HETATM    7  C   UNL     1      -8.506   8.220  68.929  1.00  0.00    -0.128 A  
HETATM    8 BR   UNL     1      -6.325   7.728  67.063  1.00  0.00    -0.056 Br 
HETATM    9  C   UNL     1      -7.919   7.331  68.016  1.00  0.00    -0.119 A  
BRANCH   4  10
HETATM   10  O   UNL     1     -11.254   6.063  70.182  1.00  0.00    -0.363 OA 
HETATM   11  C   UNL     1     -10.994   5.669  71.529  1.00  0.00    -0.200 C  
ENDBRANCH   4  10
BRANCH   7  12
HETATM   12  C   UNL     1      -8.161   9.700  68.992  1.00  0.00    -0.113 C  
BRANCH  12  13
HETATM   13  N   UNL     1      -8.844  10.583  67.863  1.00  0.00    -0.132 N  
HETATM   14  O   UNL     1     -11.504  11.432  66.860  1.00  0.00    -0.445 OA 
HETATM   15  C   UNL     1      -9.780   9.699  66.974  1.00  0.00    -0.181 C  
HETATM   16  C   UNL     1     -10.680  10.570  66.075  1.00  0.00    -0.016 C  
HETATM   17  C   UNL     1      -9.784  11.596  68.587  1.00  0.00    -0.143 C  
HETATM   18  C   UNL     1     -10.721  12.341  67.635  1.00  0.00    -0.220 C  
BRANCH  13  19
HETATM   19  C   UNL     1      -7.765  11.307  66.987  1.00  0.00    -0.147 C  
BRANCH  19  20
HETATM   20  C   UNL     1      -6.492  11.610  67.804  1.00  0.00    -0.067 C  
BRANCH  20  21
HETATM   21  O   UNL     1      -6.138  12.988  67.856  1.00  0.00    -0.100 OA 
BRANCH  21  22
HETATM   22  C   UNL     1      -6.825  13.689  68.929  1.00  0.00    -0.110 C  
BRANCH  22  23
HETATM   23  C   UNL     1      -6.200  15.050  69.244  1.00  0.00    -0.111 C  
BRANCH  23  24
HETATM   24  C   UNL     1      -7.047  16.301  68.946  1.00  0.00    -0.182 C  
HETATM   25  C   UNL     1      -8.126  15.912  67.895  1.00  0.00    -0.149 C  
HETATM   26  C   UNL     1      -7.879  16.443  66.476  1.00  0.00    -0.323 C  
HETATM   27  C   UNL     1      -6.944  17.652  66.473  1.00  0.00    -0.276 C  
HETATM   28  C   UNL     1      -5.564  17.220  67.049  1.00  0.00    -0.196 C  
HETATM   29  C   UNL     1      -6.211  17.504  68.440  1.00  0.00    -0.175 C  
HETATM   30  C   UNL     1      -7.022  18.665  67.689  1.00  0.00    -0.213 C  
HETATM   31  C   UNL     1      -8.392  19.064  68.244  1.00  0.00    -0.369 C  
HETATM   32  C   UNL     1      -6.265  19.984  67.410  1.00  0.00    -0.211 C  
ENDBRANCH  23  24
ENDBRANCH  22  23
ENDBRANCH  21  22
ENDBRANCH  20  21
ENDBRANCH  19  20
ENDBRANCH  13  19
ENDBRANCH  12  13
ENDBRANCH   7  12
ENDBRANCH   2   3
TORSDOF 10
ENDMDL
MODEL      238
REMARK 921   NORMALIZED FREE ENERGY PREDICTED BY IDOCK:   -3.20 KCAL/MOL
REMARK 922        TOTAL FREE ENERGY PREDICTED BY IDOCK:   -6.35 KCAL/MOL
REMARK 923 INTER-LIGAND FREE ENERGY PREDICTED BY IDOCK:   -5.68 KCAL/MOL
REMARK 924 INTRA-LIGAND FREE ENERGY PREDICTED BY IDOCK:   -0.66 KCAL/MOL
REMARK 927      BINDING AFFINITY PREDICTED BY RF-SCORE:    0.00 PKD
ROOT
HETATM    1  C   UNL     1     -12.197  14.424  69.970  1.00  0.00    -0.351 C  
HETATM    2  O   UNL     1     -12.263  13.299  69.106  1.00  0.00    -0.266 OA 
ENDROOT
BRANCH   2   3
HETATM    3  C   UNL     1     -11.643  12.145  69.497  1.00  0.00    -0.315 A  
HETATM    4  C   UNL     1     -10.448  11.595  69.014  1.00  0.00    -0.128 A  
HETATM    5  C   UNL     1     -12.380  11.432  70.450  1.00  0.00    -0.404 A  
HETATM    6  C   UNL     1     -10.038  10.339  69.483  1.00  0.00    -0.260 A  
HETATM    7  C   UNL     1     -10.848   9.552  70.331  1.00  0.00    -0.338 A  
HETATM    8 BR   UNL     1     -13.034   9.364  72.245  1.00  0.00    -0.452 Br 
HETATM    9  C   UNL     1     -11.982  10.166  70.882  1.00  0.00    -0.365 A  
BRANCH   4  10
HETATM   10  O   UNL     1      -9.697  12.298  68.116  1.00  0.00    -0.202 OA 
HETATM   11  C   UNL     1      -8.284  12.248  68.317  1.00  0.00    -0.167 C  
ENDBRANCH   4  10
BRANCH   7  12
HETATM   12  C   UNL     1     -10.544   8.069  70.484  1.00  0.00    -0.220 C  
BRANCH  12  13
HETATM   13  N   UNL     1      -9.311   7.745  71.431  1.00  0.00    -0.140 N  
HETATM   14  O   UNL     1      -8.583   6.211  73.864  1.00  0.00    -0.119 OA 
HETATM   15  C   UNL     1      -9.614   8.208  72.894  1.00  0.00    -0.275 C  
HETATM   16  C   UNL     1      -8.578   7.638  73.884  1.00  0.00    -0.237 C  
HETATM   17  C   UNL     1      -9.188   6.191  71.497  1.00  0.00    -0.146 C  
HETATM   18  C   UNL     1      -8.222   5.704  72.578  1.00  0.00    -0.114 C  
BRANCH  13  19
HETATM   19  C   UNL     1      -8.000   8.415  70.895  1.00  0.00    -0.108 C  
BRANCH  19  20
HETATM   20  C   UNL     1      -7.563   7.794  69.552  1.00  0.00    -0.100 C  
BRANCH  20  21
HETATM   21  O   UNL     1      -6.190   7.421  69.493  1.00  0.00    -0.030 OA 
BRANCH  21  22
HETATM   22  C   UNL     1      -5.717   7.296  68.124  1.00  0.00    -0.023 C  
BRANCH  22  23
HETATM   23  C   UNL     1      -6.757   7.741  67.094  1.00  0.00    -0.068 C  
BRANCH  23  24
HETATM   24  C   UNL     1      -7.198   6.705  66.044  1.00  0.00    -0.071 C  
HETATM   25  C   UNL     1      -8.742   6.806  65.887  1.00  0.00    -0.147 C  
HETATM   26  C   UNL     1      -9.541   5.658  66.519  1.00  0.00    -0.171 C  
HETATM   27  C   UNL     1      -8.687   4.404  66.711  1.00  0.00    -0.112 C  
HETATM   28  C   UNL     1      -7.516   4.739  67.680  1.00  0.00    -0.078 C  
HETATM   29  C   UNL     1      -6.786   5.254  66.401  1.00  0.00    -0.059 C  
HETATM   30  C   UNL     1      -7.570   4.085  65.633  1.00  0.00    -0.085 C  
HETATM   31  C   UNL     1      -7.885   4.282  64.148  1.00  0.00    -0.085 C  
HETATM   32  C   UNL     1      -7.008   2.652  65.772  1.00  0.00    -0.048 C  
ENDBRANCH  23  24
ENDBRANCH  22  23
ENDBRANCH  21  22
ENDBRANCH  20  21
ENDBRANCH  19  20
ENDBRANCH  13  19
ENDBRANCH  12  13
ENDBRANCH   7  12
ENDBRANCH   2   3
TORSDOF 10
ENDMDL
MODEL      239
REMARK 921   NORMALIZED FREE ENERGY PREDICTED BY IDOCK:   -3.16 KCAL/MOL
REMARK 922        TOTAL FREE ENERGY PREDICTED BY IDOCK:   -6.28 KCAL/MOL
REMARK 923 INTER-LIGAND FREE ENERGY PREDICTED BY IDOCK:   -5.61 KCAL/MOL
REMARK 924 INTRA-LIGAND FREE ENERGY PREDICTED BY IDOCK:   -0.67 KCAL/MOL
REMARK 927      BINDING AFFINITY PREDICTED BY RF-SCORE:    0.00 PKD
ROOT
HETATM    1  C   UNL     1     -11.644   6.093  70.572  1.00  0.00    -0.191 C  
HETATM    2  O   UNL     1     -10.567   6.096  71.499  1.00  0.00    -0.224 OA 
ENDROOT
BRANCH   2   3
HETATM    3  C   UNL     1      -9.465   6.850  71.208  1.00  0.00    -0.165 A  
HETATM    4  C   UNL     1      -9.249   8.210  71.471  1.00  0.00    -0.161 A  
HETATM    5  C   UNL     1      -8.496   6.137  70.493  1.00  0.00    -0.137 A  
HETATM    6  C   UNL     1      -8.081   8.819  70.993  1.00  0.00    -0.186 A  
HETATM    7  C   UNL     1      -7.172   8.143  70.149  1.00  0.00    -0.056 A  
HETATM    8 BR   UNL     1      -6.088   5.644  69.120  1.00  0.00    -0.026 Br 
HETATM    9  C   UNL     1      -7.354   6.762  69.989  1.00  0.00    -0.085 A  
BRANCH   4  10
HETATM   10  O   UNL     1     -10.166   8.908  72.204  1.00  0.00    -0.321 OA 
HETATM   11  C   UNL     1     -11.227   9.508  71.460  1.00  0.00    -0.367 C  
ENDBRANCH   4  10
BRANCH   7  12
HETATM   12  C   UNL     1      -6.156   8.949  69.353  1.00  0.00    -0.040 C  
BRANCH  12  13
HETATM   13  N   UNL     1      -6.545   9.178  67.831  1.00  0.00    -0.063 N  
HETATM   14  O   UNL     1      -5.599  10.522  65.361  1.00  0.00    -0.103 OA 
HETATM   15  C   UNL     1      -6.708  10.705  67.536  1.00  0.00    -0.070 C  
HETATM   16  C   UNL     1      -6.783  10.974  66.020  1.00  0.00    -0.024 C  
HETATM   17  C   UNL     1      -5.326   8.711  66.977  1.00  0.00    -0.037 C  
HETATM   18  C   UNL     1      -5.427   9.112  65.504  1.00  0.00    -0.037 C  
BRANCH  13  19
HETATM   19  C   UNL     1      -7.853   8.396  67.463  1.00  0.00    -0.099 C  
BRANCH  19  20
HETATM   20  C   UNL     1      -9.060   9.349  67.341  1.00  0.00    -0.126 C  
BRANCH  20  21
HETATM   21  O   UNL     1     -10.284   8.819  67.839  1.00  0.00    -0.196 OA 
BRANCH  21  22
HETATM   22  C   UNL     1     -11.263   9.860  68.102  1.00  0.00    -0.077 C  
BRANCH  22  23
HETATM   23  C   UNL     1     -11.266  10.955  67.032  1.00  0.00    -0.211 C  
BRANCH  23  24
HETATM   24  C   UNL     1     -11.666  12.374  67.477  1.00  0.00    -0.425 C  
HETATM   25  C   UNL     1     -11.958  13.213  66.200  1.00  0.00    -0.478 C  
HETATM   26  C   UNL     1     -10.885  14.248  65.836  1.00  0.00    -0.300 C  
HETATM   27  C   UNL     1     -10.021  14.623  67.041  1.00  0.00    -0.246 C  
HETATM   28  C   UNL     1      -9.281  13.349  67.542  1.00  0.00    -0.219 C  
HETATM   29  C   UNL     1     -10.589  13.073  68.346  1.00  0.00    -0.264 C  
HETATM   30  C   UNL     1     -10.704  14.667  68.470  1.00  0.00    -0.248 C  
HETATM   31  C   UNL     1     -12.099  15.281  68.615  1.00  0.00    -0.160 C  
HETATM   32  C   UNL     1      -9.814  15.356  69.530  1.00  0.00    -0.262 C  
ENDBRANCH  23  24
ENDBRANCH  22  23
ENDBRANCH  21  22
ENDBRANCH  20  21
ENDBRANCH  19  20
ENDBRANCH  13  19
ENDBRANCH  12  13
ENDBRANCH   7  12
ENDBRANCH   2   3
TORSDOF 10
ENDMDL
MODEL      240
REMARK 921   NORMALIZED FREE ENERGY PREDICTED BY IDOCK:   -3.15 KCAL/MOL
REMARK 922        TOTAL FREE ENERGY PREDICTED BY IDOCK:   -6.27 KCAL/MOL
REMARK 923 INTER-LIGAND FREE ENERGY PREDICTED BY IDOCK:   -5.90 KCAL/MOL
REMARK 924 INTRA-LIGAND FREE ENERGY PREDICTED BY IDOCK:   -0.37 KCAL/MOL
REMARK 927      BINDING AFFINITY PREDICTED BY RF-SCORE:    0.00 PKD
ROOT
HETATM    1  C   UNL     1     -10.553   6.152  73.476  1.00  0.00    -0.266 C  
HETATM    2  O   UNL     1      -9.671   7.251  73.302  1.00  0.00    -0.185 OA 
ENDROOT
BRANCH   2   3
HETATM    3  C   UNL     1      -9.854   8.064  72.219  1.00  0.00    -0.236 A  
HETATM    4  C   UNL     1      -8.931   8.399  71.218  1.00  0.00    -0.178 A  
HETATM    5  C   UNL     1     -11.119   8.664  72.202  1.00  0.00    -0.434 A  
HETATM    6  C   UNL     1      -9.294   9.340  70.244  1.00  0.00    -0.277 A  
HETATM    7  C   UNL     1     -10.511  10.055  70.306  1.00  0.00    -0.331 A  
HETATM    8 BR   UNL     1     -13.239  10.282  71.299  1.00  0.00    -0.405 Br 
HETATM    9  C   UNL     1     -11.456   9.627  71.249  1.00  0.00    -0.392 A  
BRANCH   4  10
HETATM   10  O   UNL     1      -7.709   7.791  71.198  1.00  0.00    -0.081 OA 
HETATM   11  C   UNL     1      -6.638   8.532  71.782  1.00  0.00    -0.072 C  
ENDBRANCH   4  10
BRANCH   7  12
HETATM   12  C   UNL     1     -10.675  11.317  69.472  1.00  0.00    -0.095 C  
BRANCH  12  13
HETATM   13  N   UNL     1     -10.709  11.069  67.904  1.00  0.00    -0.203 N  
HETATM   14  O   UNL     1     -10.027  12.368  65.325  1.00  0.00    -0.263 OA 
HETATM   15  C   UNL     1     -11.585  12.156  67.201  1.00  0.00    -0.335 C  
HETATM   16  C   UNL     1     -11.391  12.126  65.672  1.00  0.00    -0.347 C  
HETATM   17  C   UNL     1      -9.257  11.293  67.379  1.00  0.00    -0.162 C  
HETATM   18  C   UNL     1      -9.166  11.358  65.854  1.00  0.00    -0.216 C  
BRANCH  13  19
HETATM   19  C   UNL     1     -11.235   9.630  67.575  1.00  0.00     0.231 C  
BRANCH  19  20
HETATM   20  C   UNL     1     -10.149   8.780  66.884  1.00  0.00    -0.278 C  
BRANCH  20  21
HETATM   21  O   UNL     1      -9.916   7.513  67.490  1.00  0.00    -0.150 OA 
BRANCH  21  22
HETATM   22  C   UNL     1     -10.824   6.494  66.992  1.00  0.00    -0.395 C  
BRANCH  22  23
HETATM   23  C   UNL     1     -10.185   5.104  66.940  1.00  0.00    -0.279 C  
BRANCH  23  24
HETATM   24  C   UNL     1      -8.662   5.036  66.723  1.00  0.00    -0.108 C  
HETATM   25  C   UNL     1      -8.335   3.679  66.036  1.00  0.00    -0.106 C  
HETATM   26  C   UNL     1      -7.677   2.629  66.941  1.00  0.00    -0.071 C  
HETATM   27  C   UNL     1      -7.001   3.264  68.157  1.00  0.00    -0.050 C  
HETATM   28  C   UNL     1      -8.082   3.992  69.007  1.00  0.00    -0.075 C  
HETATM   29  C   UNL     1      -7.847   5.188  68.033  1.00  0.00    -0.087 C  
HETATM   30  C   UNL     1      -6.325   4.687  67.982  1.00  0.00    -0.037 C  
HETATM   31  C   UNL     1      -5.511   4.978  66.718  1.00  0.00    -0.013 C  
HETATM   32  C   UNL     1      -5.420   5.063  69.178  1.00  0.00    -0.008 C  
ENDBRANCH  23  24
ENDBRANCH  22  23
ENDBRANCH  21  22
ENDBRANCH  20  21
ENDBRANCH  19  20
ENDBRANCH  13  19
ENDBRANCH  12  13
ENDBRANCH   7  12
ENDBRANCH   2   3
TORSDOF 10
ENDMDL
MODEL      241
REMARK 921   NORMALIZED FREE ENERGY PREDICTED BY IDOCK:   -3.13 KCAL/MOL
REMARK 922        TOTAL FREE ENERGY PREDICTED BY IDOCK:   -6.23 KCAL/MOL
REMARK 923 INTER-LIGAND FREE ENERGY PREDICTED BY IDOCK:   -6.46 KCAL/MOL
REMARK 924 INTRA-LIGAND FREE ENERGY PREDICTED BY IDOCK:    0.22 KCAL/MOL
REMARK 927      BINDING AFFINITY PREDICTED BY RF-SCORE:    0.00 PKD
ROOT
HETATM    1  C   UNL     1     -11.542  15.635  72.713  1.00  0.00    -0.340 C  
HETATM    2  O   UNL     1     -11.274  16.050  71.382  1.00  0.00    -0.324 OA 
ENDROOT
BRANCH   2   3
HETATM    3  C   UNL     1     -11.429  15.138  70.375  1.00  0.00    -0.286 A  
HETATM    4  C   UNL     1     -12.429  14.167  70.230  1.00  0.00    -0.353 A  
HETATM    5  C   UNL     1     -10.386  15.181  69.443  1.00  0.00    -0.259 A  
HETATM    6  C   UNL     1     -12.344  13.256  69.168  1.00  0.00    -0.016 A  
HETATM    7  C   UNL     1     -11.221  13.201  68.312  1.00  0.00    -0.307 A  
HETATM    8 BR   UNL     1      -8.872  14.488  67.172  1.00  0.00    -0.258 Br 
HETATM    9  C   UNL     1     -10.291  14.245  68.411  1.00  0.00    -0.247 A  
BRANCH   4  10
HETATM   10  O   UNL     1     -13.475  14.140  71.107  1.00  0.00    -0.318 OA 
HETATM   11  C   UNL     1     -13.543  12.993  71.955  1.00  0.00    -0.441 C  
ENDBRANCH   4  10
BRANCH   7  12
HETATM   12  C   UNL     1     -11.002  11.966  67.451  1.00  0.00    -0.263 C  
BRANCH  12  13
HETATM   13  N   UNL     1     -10.661  10.648  68.268  1.00  0.00    -0.202 N  
HETATM   14  O   UNL     1      -9.945   9.714  70.991  1.00  0.00    -0.247 OA 
HETATM   15  C   UNL     1      -9.231  10.750  68.891  1.00  0.00    -0.173 C  
HETATM   16  C   UNL     1      -8.994   9.634  69.929  1.00  0.00    -0.221 C  
HETATM   17  C   UNL     1     -11.646  10.597  69.476  1.00  0.00    -0.288 C  
HETATM   18  C   UNL     1     -11.279   9.535  70.514  1.00  0.00    -0.287 C  
BRANCH  13  19
HETATM   19  C   UNL     1     -10.783   9.377  67.358  1.00  0.00    -0.210 C  
BRANCH  19  20
HETATM   20  C   UNL     1      -9.444   9.054  66.664  1.00  0.00    -0.194 C  
BRANCH  20  21
HETATM   21  O   UNL     1      -8.945   7.745  66.922  1.00  0.00    -0.124 OA 
BRANCH  21  22
HETATM   22  C   UNL     1      -7.496   7.684  66.825  1.00  0.00    -0.093 C  
BRANCH  22  23
HETATM   23  C   UNL     1      -6.879   6.672  67.793  1.00  0.00    -0.080 C  
BRANCH  23  24
HETATM   24  C   UNL     1      -7.836   5.939  68.752  1.00  0.00    -0.095 C  
HETATM   25  C   UNL     1      -7.288   6.106  70.197  1.00  0.00    -0.082 C  
HETATM   26  C   UNL     1      -6.640   4.852  70.802  1.00  0.00    -0.031 C  
HETATM   27  C   UNL     1      -7.111   3.574  70.107  1.00  0.00    -0.041 C  
HETATM   28  C   UNL     1      -6.691   3.634  68.610  1.00  0.00    -0.045 C  
HETATM   29  C   UNL     1      -8.014   4.437  68.413  1.00  0.00    -0.078 C  
HETATM   30  C   UNL     1      -8.605   3.512  69.581  1.00  0.00    -0.111 C  
HETATM   31  C   UNL     1      -9.729   4.080  70.452  1.00  0.00    -0.263 C  
HETATM   32  C   UNL     1      -9.037   2.079  69.194  1.00  0.00    -0.177 C  
ENDBRANCH  23  24
ENDBRANCH  22  23
ENDBRANCH  21  22
ENDBRANCH  20  21
ENDBRANCH  19  20
ENDBRANCH  13  19
ENDBRANCH  12  13
ENDBRANCH   7  12
ENDBRANCH   2   3
TORSDOF 10
ENDMDL
MODEL      242
REMARK 921   NORMALIZED FREE ENERGY PREDICTED BY IDOCK:   -3.11 KCAL/MOL
REMARK 922        TOTAL FREE ENERGY PREDICTED BY IDOCK:   -6.21 KCAL/MOL
REMARK 923 INTER-LIGAND FREE ENERGY PREDICTED BY IDOCK:   -5.86 KCAL/MOL
REMARK 924 INTRA-LIGAND FREE ENERGY PREDICTED BY IDOCK:   -0.34 KCAL/MOL
REMARK 927      BINDING AFFINITY PREDICTED BY RF-SCORE:    0.00 PKD
ROOT
HETATM    1  C   UNL     1     -10.988   9.444  70.796  1.00  0.00    -0.304 C  
HETATM    2  O   UNL     1      -9.846   8.814  71.360  1.00  0.00    -0.228 OA 
ENDROOT
BRANCH   2   3
HETATM    3  C   UNL     1      -8.928   8.260  70.512  1.00  0.00    -0.147 A  
HETATM    4  C   UNL     1      -7.740   8.825  70.029  1.00  0.00    -0.082 A  
HETATM    5  C   UNL     1      -9.316   6.998  70.046  1.00  0.00    -0.158 A  
HETATM    6  C   UNL     1      -6.987   8.121  69.080  1.00  0.00    -0.061 A  
HETATM    7  C   UNL     1      -7.446   6.917  68.498  1.00  0.00    -0.096 A  
HETATM    8 BR   UNL     1      -9.179   4.581  68.609  1.00  0.00    -0.198 Br 
HETATM    9  C   UNL     1      -8.578   6.322  69.073  1.00  0.00    -0.123 A  
BRANCH   4  10
HETATM   10  O   UNL     1      -7.327  10.036  70.507  1.00  0.00    -0.261 OA 
HETATM   11  C   UNL     1      -5.936  10.320  70.356  1.00  0.00    -0.096 C  
ENDBRANCH   4  10
BRANCH   7  12
HETATM   12  C   UNL     1      -6.798   6.416  67.217  1.00  0.00    -0.069 C  
BRANCH  12  13
HETATM   13  N   UNL     1      -7.035   7.347  65.953  1.00  0.00    -0.060 N  
HETATM   14  O   UNL     1      -5.640   8.456  63.581  1.00  0.00    -0.064 OA 
HETATM   15  C   UNL     1      -6.062   8.571  65.989  1.00  0.00    -0.048 C  
HETATM   16  C   UNL     1      -6.056   9.318  64.640  1.00  0.00    -0.071 C  
HETATM   17  C   UNL     1      -6.624   6.519  64.697  1.00  0.00    -0.038 C  
HETATM   18  C   UNL     1      -6.535   7.355  63.419  1.00  0.00    -0.053 C  
BRANCH  13  19
HETATM   19  C   UNL     1      -8.527   7.823  65.878  1.00  0.00    -0.142 C  
BRANCH  19  20
HETATM   20  C   UNL     1      -8.630   9.360  65.962  1.00  0.00    -0.142 C  
BRANCH  20  21
HETATM   21  O   UNL     1      -9.823   9.903  65.407  1.00  0.00    -0.293 OA 
BRANCH  21  22
HETATM   22  C   UNL     1     -10.299  11.054  66.155  1.00  0.00    -0.251 C  
BRANCH  22  23
HETATM   23  C   UNL     1      -9.235  12.144  66.307  1.00  0.00    -0.183 C  
BRANCH  23  24
HETATM   24  C   UNL     1      -9.432  13.169  67.439  1.00  0.00    -0.214 C  
HETATM   25  C   UNL     1     -10.536  12.628  68.391  1.00  0.00    -0.248 C  
HETATM   26  C   UNL     1     -11.894  13.336  68.289  1.00  0.00    -0.389 C  
HETATM   27  C   UNL     1     -11.766  14.734  67.682  1.00  0.00    -0.364 C  
HETATM   28  C   UNL     1     -11.205  14.602  66.236  1.00  0.00    -0.340 C  
HETATM   29  C   UNL     1      -9.807  14.584  66.927  1.00  0.00    -0.265 C  
HETATM   30  C   UNL     1     -10.462  15.575  68.003  1.00  0.00    -0.259 C  
HETATM   31  C   UNL     1      -9.900  15.569  69.427  1.00  0.00    -0.283 C  
HETATM   32  C   UNL     1     -10.602  17.060  67.598  1.00  0.00    -0.333 C  
ENDBRANCH  23  24
ENDBRANCH  22  23
ENDBRANCH  21  22
ENDBRANCH  20  21
ENDBRANCH  19  20
ENDBRANCH  13  19
ENDBRANCH  12  13
ENDBRANCH   7  12
ENDBRANCH   2   3
TORSDOF 10
ENDMDL
MODEL      243
REMARK 921   NORMALIZED FREE ENERGY PREDICTED BY IDOCK:   -3.11 KCAL/MOL
REMARK 922        TOTAL FREE ENERGY PREDICTED BY IDOCK:   -6.20 KCAL/MOL
REMARK 923 INTER-LIGAND FREE ENERGY PREDICTED BY IDOCK:   -6.00 KCAL/MOL
REMARK 924 INTRA-LIGAND FREE ENERGY PREDICTED BY IDOCK:   -0.20 KCAL/MOL
REMARK 927      BINDING AFFINITY PREDICTED BY RF-SCORE:    0.00 PKD
ROOT
HETATM    1  C   UNL     1     -10.945   5.810  72.615  1.00  0.00    -0.268 C  
HETATM    2  O   UNL     1     -11.935   6.461  71.833  1.00  0.00    -0.329 OA 
ENDROOT
BRANCH   2   3
HETATM    3  C   UNL     1     -11.524   7.308  70.842  1.00  0.00    -0.292 A  
HETATM    4  C   UNL     1     -10.811   6.998  69.676  1.00  0.00    -0.247 A  
HETATM    5  C   UNL     1     -11.818   8.648  71.120  1.00  0.00    -0.331 A  
HETATM    6  C   UNL     1     -10.395   8.040  68.835  1.00  0.00    -0.222 A  
HETATM    7  C   UNL     1     -10.560   9.399  69.182  1.00  0.00    -0.234 A  
HETATM    8 BR   UNL     1     -11.923  11.437  70.753  1.00  0.00    -0.236 Br 
HETATM    9  C   UNL     1     -11.367   9.680  70.295  1.00  0.00    -0.257 A  
BRANCH   4  10
HETATM   10  O   UNL     1     -10.554   5.693  69.370  1.00  0.00    -0.272 OA 
HETATM   11  C   UNL     1      -9.319   5.446  68.697  1.00  0.00    -0.118 C  
ENDBRANCH   4  10
BRANCH   7  12
HETATM   12  C   UNL     1      -9.756  10.459  68.445  1.00  0.00    -0.158 C  
BRANCH  12  13
HETATM   13  N   UNL     1      -8.189  10.199  68.426  1.00  0.00    -0.109 N  
HETATM   14  O   UNL     1      -6.173   8.080  68.921  1.00  0.00    -0.038 OA 
HETATM   15  C   UNL     1      -7.694   9.762  69.843  1.00  0.00    -0.157 C  
HETATM   16  C   UNL     1      -6.254   9.214  69.785  1.00  0.00    -0.039 C  
HETATM   17  C   UNL     1      -7.946   8.970  67.496  1.00  0.00    -0.101 C  
HETATM   18  C   UNL     1      -6.522   8.419  67.579  1.00  0.00    -0.058 C  
BRANCH  13  19
HETATM   19  C   UNL     1      -7.416  11.469  67.932  1.00  0.00    -0.103 C  
BRANCH  19  20
HETATM   20  C   UNL     1      -7.911  12.742  68.651  1.00  0.00    -0.023 C  
BRANCH  20  21
HETATM   21  O   UNL     1      -6.881  13.523  69.246  1.00  0.00    -0.106 OA 
BRANCH  21  22
HETATM   22  C   UNL     1      -7.331  14.868  69.566  1.00  0.00    -0.178 C  
BRANCH  22  23
HETATM   23  C   UNL     1      -8.389  15.387  68.590  1.00  0.00    -0.168 C  
BRANCH  23  24
HETATM   24  C   UNL     1      -8.514  16.913  68.432  1.00  0.00    -0.239 C  
HETATM   25  C   UNL     1      -9.480  17.196  67.247  1.00  0.00    -0.245 C  
HETATM   26  C   UNL     1      -8.809  17.692  65.958  1.00  0.00    -0.048 C  
HETATM   27  C   UNL     1      -7.435  18.305  66.229  1.00  0.00    -0.295 C  
HETATM   28  C   UNL     1      -6.510  17.212  66.839  1.00  0.00    -0.239 C  
HETATM   29  C   UNL     1      -7.154  17.620  68.200  1.00  0.00    -0.216 C  
HETATM   30  C   UNL     1      -7.221  19.099  67.584  1.00  0.00    -0.246 C  
HETATM   31  C   UNL     1      -8.322  20.039  68.082  1.00  0.00    -0.217 C  
HETATM   32  C   UNL     1      -5.912  19.922  67.586  1.00  0.00    -0.212 C  
ENDBRANCH  23  24
ENDBRANCH  22  23
ENDBRANCH  21  22
ENDBRANCH  20  21
ENDBRANCH  19  20
ENDBRANCH  13  19
ENDBRANCH  12  13
ENDBRANCH   7  12
ENDBRANCH   2   3
TORSDOF 10
ENDMDL
MODEL      244
REMARK 921   NORMALIZED FREE ENERGY PREDICTED BY IDOCK:   -3.10 KCAL/MOL
REMARK 922        TOTAL FREE ENERGY PREDICTED BY IDOCK:   -6.19 KCAL/MOL
REMARK 923 INTER-LIGAND FREE ENERGY PREDICTED BY IDOCK:   -5.68 KCAL/MOL
REMARK 924 INTRA-LIGAND FREE ENERGY PREDICTED BY IDOCK:   -0.51 KCAL/MOL
REMARK 927      BINDING AFFINITY PREDICTED BY RF-SCORE:    0.00 PKD
ROOT
HETATM    1  C   UNL     1     -11.761  14.761  67.564  1.00  0.00    -0.348 C  
HETATM    2  O   UNL     1     -11.965  13.831  66.510  1.00  0.00    -0.387 OA 
ENDROOT
BRANCH   2   3
HETATM    3  C   UNL     1     -10.888  13.128  66.049  1.00  0.00    -0.272 A  
HETATM    4  C   UNL     1     -10.834  12.222  64.981  1.00  0.00    -0.298 A  
HETATM    5  C   UNL     1      -9.742  13.322  66.830  1.00  0.00    -0.258 A  
HETATM    6  C   UNL     1      -9.643  11.524  64.738  1.00  0.00    -0.198 A  
HETATM    7  C   UNL     1      -8.532  11.607  65.608  1.00  0.00     0.285 A  
HETATM    8 BR   UNL     1      -7.075  13.035  67.684  1.00  0.00    -0.161 Br 
HETATM    9  C   UNL     1      -8.573  12.594  66.602  1.00  0.00    -0.029 A  
BRANCH   4  10
HETATM   10  O   UNL     1     -11.931  12.054  64.185  1.00  0.00    -0.381 OA 
HETATM   11  C   UNL     1     -12.284  13.173  63.372  1.00  0.00    -0.444 C  
ENDBRANCH   4  10
BRANCH   7  12
HETATM   12  C   UNL     1      -7.441  10.551  65.522  1.00  0.00    -0.111 C  
BRANCH  12  13
HETATM   13  N   UNL     1      -7.803   9.173  66.223  1.00  0.00    -0.102 N  
HETATM   14  O   UNL     1      -8.557   6.372  65.602  1.00  0.00    -0.150 OA 
HETATM   15  C   UNL     1      -9.239   8.713  65.807  1.00  0.00    -0.181 C  
HETATM   16  C   UNL     1      -9.497   7.251  66.221  1.00  0.00    -0.073 C  
HETATM   17  C   UNL     1      -6.832   8.100  65.640  1.00  0.00    -0.066 C  
HETATM   18  C   UNL     1      -7.220   6.667  66.007  1.00  0.00    -0.071 C  
BRANCH  13  19
HETATM   19  C   UNL     1      -7.683   9.287  67.781  1.00  0.00    -0.088 C  
BRANCH  19  20
HETATM   20  C   UNL     1      -6.217   9.483  68.218  1.00  0.00    -0.052 C  
BRANCH  20  21
HETATM   21  O   UNL     1      -5.651   8.370  68.902  1.00  0.00    -0.037 OA 
BRANCH  21  22
HETATM   22  C   UNL     1      -6.614   7.717  69.773  1.00  0.00    -0.039 C  
BRANCH  22  23
HETATM   23  C   UNL     1      -7.333   8.697  70.703  1.00  0.00    -0.064 C  
BRANCH  23  24
HETATM   24  C   UNL     1      -8.671   8.240  71.312  1.00  0.00    -0.186 C  
HETATM   25  C   UNL     1      -9.229   7.085  70.433  1.00  0.00    -0.156 C  
HETATM   26  C   UNL     1     -10.420   7.458  69.540  1.00  0.00    -0.236 C  
HETATM   27  C   UNL     1     -11.151   8.699  70.051  1.00  0.00    -0.161 C  
HETATM   28  C   UNL     1     -10.166   9.904  70.032  1.00  0.00    -0.319 C  
HETATM   29  C   UNL     1      -9.715   9.380  71.430  1.00  0.00    -0.126 C  
HETATM   30  C   UNL     1     -11.241   8.926  71.617  1.00  0.00    -0.415 C  
HETATM   31  C   UNL     1     -11.533   7.733  72.530  1.00  0.00    -0.428 C  
HETATM   32  C   UNL     1     -12.260  10.025  71.997  1.00  0.00    -0.126 C  
ENDBRANCH  23  24
ENDBRANCH  22  23
ENDBRANCH  21  22
ENDBRANCH  20  21
ENDBRANCH  19  20
ENDBRANCH  13  19
ENDBRANCH  12  13
ENDBRANCH   7  12
ENDBRANCH   2   3
TORSDOF 10
ENDMDL
MODEL      245
REMARK 921   NORMALIZED FREE ENERGY PREDICTED BY IDOCK:   -3.09 KCAL/MOL
REMARK 922        TOTAL FREE ENERGY PREDICTED BY IDOCK:   -6.18 KCAL/MOL
REMARK 923 INTER-LIGAND FREE ENERGY PREDICTED BY IDOCK:   -5.15 KCAL/MOL
REMARK 924 INTRA-LIGAND FREE ENERGY PREDICTED BY IDOCK:   -1.03 KCAL/MOL
REMARK 927      BINDING AFFINITY PREDICTED BY RF-SCORE:    0.00 PKD
ROOT
HETATM    1  C   UNL     1      -9.978  13.831  66.803  1.00  0.00    -0.270 C  
HETATM    2  O   UNL     1      -9.592  13.094  67.954  1.00  0.00    -0.204 OA 
ENDROOT
BRANCH   2   3
HETATM    3  C   UNL     1      -9.967  11.783  68.039  1.00  0.00    -0.188 A  
HETATM    4  C   UNL     1     -11.186  11.256  68.488  1.00  0.00    -0.252 A  
HETATM    5  C   UNL     1      -8.937  10.903  67.691  1.00  0.00    -0.140 A  
HETATM    6  C   UNL     1     -11.329   9.865  68.594  1.00  0.00    -0.048 A  
HETATM    7  C   UNL     1     -10.249   8.980  68.383  1.00  0.00    -0.232 A  
HETATM    8 BR   UNL     1      -7.626   8.453  67.234  1.00  0.00    -0.098 Br 
HETATM    9  C   UNL     1      -9.077   9.521  67.835  1.00  0.00    -0.125 A  
BRANCH   4  10
HETATM   10  O   UNL     1     -12.215  12.101  68.792  1.00  0.00    -0.204 OA 
HETATM   11  C   UNL     1     -12.155  12.712  70.081  1.00  0.00    -0.294 C  
ENDBRANCH   4  10
BRANCH   7  12
HETATM   12  C   UNL     1     -10.351   7.548  68.888  1.00  0.00    -0.211 C  
BRANCH  12  13
HETATM   13  N   UNL     1      -9.835   7.337  70.375  1.00  0.00    -0.183 N  
HETATM   14  O   UNL     1      -9.599   8.738  72.979  1.00  0.00    -0.085 OA 
HETATM   15  C   UNL     1      -8.727   8.386  70.719  1.00  0.00    -0.150 C  
HETATM   16  C   UNL     1      -8.428   8.405  72.232  1.00  0.00    -0.177 C  
HETATM   17  C   UNL     1     -11.032   7.662  71.320  1.00  0.00    -0.238 C  
HETATM   18  C   UNL     1     -10.632   7.770  72.792  1.00  0.00    -0.341 C  
BRANCH  13  19
HETATM   19  C   UNL     1      -9.304   5.878  70.582  1.00  0.00    -0.160 C  
BRANCH  19  20
HETATM   20  C   UNL     1      -9.478   5.031  69.305  1.00  0.00    -0.137 C  
BRANCH  20  21
HETATM   21  O   UNL     1      -9.879   3.685  69.538  1.00  0.00    -0.118 OA 
BRANCH  21  22
HETATM   22  C   UNL     1      -9.269   2.761  68.596  1.00  0.00    -0.178 C  
BRANCH  22  23
HETATM   23  C   UNL     1      -8.066   3.366  67.869  1.00  0.00    -0.082 C  
BRANCH  23  24
HETATM   24  C   UNL     1      -7.946   3.095  66.358  1.00  0.00    -0.084 C  
HETATM   25  C   UNL     1      -6.706   3.868  65.828  1.00  0.00    -0.045 C  
HETATM   26  C   UNL     1      -7.020   5.121  64.998  1.00  0.00    -0.061 C  
HETATM   27  C   UNL     1      -8.433   5.081  64.415  1.00  0.00    -0.142 C  
HETATM   28  C   UNL     1      -9.456   5.036  65.587  1.00  0.00    -0.153 C  
HETATM   29  C   UNL     1      -9.213   3.495  65.560  1.00  0.00    -0.156 C  
HETATM   30  C   UNL     1      -9.025   3.677  63.978  1.00  0.00    -0.108 C  
HETATM   31  C   UNL     1      -8.126   2.683  63.239  1.00  0.00    -0.073 C  
HETATM   32  C   UNL     1     -10.309   3.817  63.129  1.00  0.00    -0.209 C  
ENDBRANCH  23  24
ENDBRANCH  22  23
ENDBRANCH  21  22
ENDBRANCH  20  21
ENDBRANCH  19  20
ENDBRANCH  13  19
ENDBRANCH  12  13
ENDBRANCH   7  12
ENDBRANCH   2   3
TORSDOF 10
ENDMDL
MODEL      246
REMARK 921   NORMALIZED FREE ENERGY PREDICTED BY IDOCK:   -3.07 KCAL/MOL
REMARK 922        TOTAL FREE ENERGY PREDICTED BY IDOCK:   -6.15 KCAL/MOL
REMARK 923 INTER-LIGAND FREE ENERGY PREDICTED BY IDOCK:   -6.01 KCAL/MOL
REMARK 924 INTRA-LIGAND FREE ENERGY PREDICTED BY IDOCK:   -0.13 KCAL/MOL
REMARK 927      BINDING AFFINITY PREDICTED BY RF-SCORE:    0.00 PKD
ROOT
HETATM    1  C   UNL     1     -13.441   7.228  71.598  1.00  0.00    -0.354 C  
HETATM    2  O   UNL     1     -12.254   7.535  72.316  1.00  0.00    -0.274 OA 
ENDROOT
BRANCH   2   3
HETATM    3  C   UNL     1     -11.068   7.043  71.848  1.00  0.00    -0.242 A  
HETATM    4  C   UNL     1     -10.011   7.745  71.254  1.00  0.00    -0.175 A  
HETATM    5  C   UNL     1     -10.992   5.648  71.932  1.00  0.00    -0.297 A  
HETATM    6  C   UNL     1      -8.918   7.029  70.745  1.00  0.00    -0.150 A  
HETATM    7  C   UNL     1      -8.901   5.617  70.697  1.00  0.00    -0.145 A  
HETATM    8 BR   UNL     1      -9.909   3.062  71.664  1.00  0.00    -0.165 Br 
HETATM    9  C   UNL     1      -9.917   4.942  71.389  1.00  0.00    -0.197 A  
BRANCH   4  10
HETATM   10  O   UNL     1     -10.052   9.109  71.202  1.00  0.00    -0.267 OA 
HETATM   11  C   UNL     1      -9.583   9.697  69.989  1.00  0.00    -0.243 C  
ENDBRANCH   4  10
BRANCH   7  12
HETATM   12  C   UNL     1      -7.897   4.916  69.794  1.00  0.00    -0.066 C  
BRANCH  12  13
HETATM   13  N   UNL     1      -8.362   4.768  68.283  1.00  0.00    -0.091 N  
HETATM   14  O   UNL     1      -7.980   3.064  65.885  1.00  0.00    -0.084 OA 
HETATM   15  C   UNL     1      -7.129   4.852  67.325  1.00  0.00    -0.066 C  
HETATM   16  C   UNL     1      -7.504   4.411  65.896  1.00  0.00    -0.081 C  
HETATM   17  C   UNL     1      -8.924   3.321  68.123  1.00  0.00    -0.142 C  
HETATM   18  C   UNL     1      -9.167   2.922  66.666  1.00  0.00    -0.114 C  
BRANCH  13  19
HETATM   19  C   UNL     1      -9.429   5.855  67.916  1.00  0.00    -0.110 C  
BRANCH  19  20
HETATM   20  C   UNL     1      -8.762   7.126  67.351  1.00  0.00    -0.120 C  
BRANCH  20  21
HETATM   21  O   UNL     1      -9.670   8.075  66.801  1.00  0.00    -0.198 OA 
BRANCH  21  22
HETATM   22  C   UNL     1      -8.983   9.217  66.221  1.00  0.00    -0.158 C  
BRANCH  22  23
HETATM   23  C   UNL     1      -9.810   9.924  65.145  1.00  0.00    -0.348 C  
BRANCH  23  24
HETATM   24  C   UNL     1     -10.760  11.044  65.609  1.00  0.00    -0.217 C  
HETATM   25  C   UNL     1     -10.501  12.293  64.721  1.00  0.00    -0.328 C  
HETATM   26  C   UNL     1      -9.742  13.438  65.406  1.00  0.00    -0.032 C  
HETATM   27  C   UNL     1      -9.847  13.362  66.929  1.00  0.00    -0.256 C  
HETATM   28  C   UNL     1      -9.203  12.029  67.410  1.00  0.00    -0.180 C  
HETATM   29  C   UNL     1     -10.600  11.405  67.108  1.00  0.00    -0.279 C  
HETATM   30  C   UNL     1     -11.196  12.822  67.563  1.00  0.00    -0.332 C  
HETATM   31  C   UNL     1     -12.533  13.268  66.966  1.00  0.00    -0.000 C  
HETATM   32  C   UNL     1     -11.285  13.092  69.082  1.00  0.00    -0.303 C  
ENDBRANCH  23  24
ENDBRANCH  22  23
ENDBRANCH  21  22
ENDBRANCH  20  21
ENDBRANCH  19  20
ENDBRANCH  13  19
ENDBRANCH  12  13
ENDBRANCH   7  12
ENDBRANCH   2   3
TORSDOF 10
ENDMDL
MODEL      247
REMARK 921   NORMALIZED FREE ENERGY PREDICTED BY IDOCK:   -3.07 KCAL/MOL
REMARK 922        TOTAL FREE ENERGY PREDICTED BY IDOCK:   -6.13 KCAL/MOL
REMARK 923 INTER-LIGAND FREE ENERGY PREDICTED BY IDOCK:   -5.66 KCAL/MOL
REMARK 924 INTRA-LIGAND FREE ENERGY PREDICTED BY IDOCK:   -0.47 KCAL/MOL
REMARK 927      BINDING AFFINITY PREDICTED BY RF-SCORE:    0.00 PKD
ROOT
HETATM    1  C   UNL     1     -11.431   6.342  70.017  1.00  0.00    -0.428 C  
HETATM    2  O   UNL     1     -10.222   5.632  70.241  1.00  0.00    -0.205 OA 
ENDROOT
BRANCH   2   3
HETATM    3  C   UNL     1      -9.109   6.011  69.544  1.00  0.00    -0.137 A  
HETATM    4  C   UNL     1      -8.210   7.045  69.840  1.00  0.00    -0.130 A  
HETATM    5  C   UNL     1      -8.941   5.287  68.358  1.00  0.00    -0.116 A  
HETATM    6  C   UNL     1      -7.183   7.336  68.931  1.00  0.00    -0.090 A  
HETATM    7  C   UNL     1      -7.096   6.709  67.669  1.00  0.00    -0.085 A  
HETATM    8 BR   UNL     1      -7.778   4.479  65.925  1.00  0.00    -0.095 Br 
HETATM    9  C   UNL     1      -7.938   5.610  67.443  1.00  0.00    -0.102 A  
BRANCH   4  10
HETATM   10  O   UNL     1      -8.336   7.732  71.014  1.00  0.00    -0.110 OA 
HETATM   11  C   UNL     1      -7.314   8.692  71.282  1.00  0.00    -0.096 C  
ENDBRANCH   4  10
BRANCH   7  12
HETATM   12  C   UNL     1      -6.225   7.330  66.588  1.00  0.00    -0.043 C  
BRANCH  12  13
HETATM   13  N   UNL     1      -6.936   8.475  65.748  1.00  0.00    -0.070 N  
HETATM   14  O   UNL     1      -7.302   9.438  62.966  1.00  0.00    -0.104 OA 
HETATM   15  C   UNL     1      -5.875   9.302  64.950  1.00  0.00    -0.064 C  
HETATM   16  C   UNL     1      -6.550  10.210  63.902  1.00  0.00    -0.117 C  
HETATM   17  C   UNL     1      -7.816   7.767  64.672  1.00  0.00    -0.130 C  
HETATM   18  C   UNL     1      -8.358   8.722  63.607  1.00  0.00    -0.143 C  
BRANCH  13  19
HETATM   19  C   UNL     1      -7.785   9.408  66.678  1.00  0.00    -0.097 C  
BRANCH  19  20
HETATM   20  C   UNL     1      -6.947  10.595  67.197  1.00  0.00    -0.088 C  
BRANCH  20  21
HETATM   21  O   UNL     1      -7.429  11.875  66.804  1.00  0.00    -0.113 OA 
BRANCH  21  22
HETATM   22  C   UNL     1      -6.718  12.955  67.468  1.00  0.00    -0.154 C  
BRANCH  22  23
HETATM   23  C   UNL     1      -7.452  14.294  67.375  1.00  0.00    -0.172 C  
BRANCH  23  24
HETATM   24  C   UNL     1      -8.970  14.251  67.122  1.00  0.00    -0.237 C  
HETATM   25  C   UNL     1      -9.356  15.508  66.293  1.00  0.00    -0.355 C  
HETATM   26  C   UNL     1     -10.095  16.605  67.071  1.00  0.00    -0.281 C  
HETATM   27  C   UNL     1     -10.765  16.059  68.333  1.00  0.00    -0.289 C  
HETATM   28  C   UNL     1      -9.666  15.486  69.275  1.00  0.00    -0.272 C  
HETATM   29  C   UNL     1      -9.809  14.186  68.425  1.00  0.00    -0.231 C  
HETATM   30  C   UNL     1     -11.355  14.589  68.293  1.00  0.00    -0.319 C  
HETATM   31  C   UNL     1     -12.119  14.123  67.050  1.00  0.00    -0.449 C  
HETATM   32  C   UNL     1     -12.267  14.285  69.504  1.00  0.00    -0.341 C  
ENDBRANCH  23  24
ENDBRANCH  22  23
ENDBRANCH  21  22
ENDBRANCH  20  21
ENDBRANCH  19  20
ENDBRANCH  13  19
ENDBRANCH  12  13
ENDBRANCH   7  12
ENDBRANCH   2   3
TORSDOF 10
ENDMDL
MODEL      248
REMARK 921   NORMALIZED FREE ENERGY PREDICTED BY IDOCK:   -3.07 KCAL/MOL
REMARK 922        TOTAL FREE ENERGY PREDICTED BY IDOCK:   -6.13 KCAL/MOL
REMARK 923 INTER-LIGAND FREE ENERGY PREDICTED BY IDOCK:   -5.94 KCAL/MOL
REMARK 924 INTRA-LIGAND FREE ENERGY PREDICTED BY IDOCK:   -0.19 KCAL/MOL
REMARK 927      BINDING AFFINITY PREDICTED BY RF-SCORE:    0.00 PKD
ROOT
HETATM    1  C   UNL     1     -10.552   6.153  73.476  1.00  0.00    -0.266 C  
HETATM    2  O   UNL     1      -9.672   7.256  73.313  1.00  0.00    -0.185 OA 
ENDROOT
BRANCH   2   3
HETATM    3  C   UNL     1      -9.852   8.073  72.233  1.00  0.00    -0.236 A  
HETATM    4  C   UNL     1      -8.921   8.424  71.245  1.00  0.00    -0.178 A  
HETATM    5  C   UNL     1     -11.122   8.661  72.205  1.00  0.00    -0.434 A  
HETATM    6  C   UNL     1      -9.282   9.367  70.273  1.00  0.00    -0.285 A  
HETATM    7  C   UNL     1     -10.507  10.070  70.324  1.00  0.00    -0.331 A  
HETATM    8 BR   UNL     1     -13.247  10.263  71.287  1.00  0.00    -0.405 Br 
HETATM    9  C   UNL     1     -11.458   9.626  71.254  1.00  0.00    -0.392 A  
BRANCH   4  10
HETATM   10  O   UNL     1      -7.693   7.828  71.235  1.00  0.00    -0.081 OA 
HETATM   11  C   UNL     1      -6.635   8.576  71.836  1.00  0.00    -0.076 C  
ENDBRANCH   4  10
BRANCH   7  12
HETATM   12  C   UNL     1     -10.674  11.335  69.497  1.00  0.00    -0.095 C  
BRANCH  12  13
HETATM   13  N   UNL     1     -10.679  11.097  67.927  1.00  0.00    -0.202 N  
HETATM   14  O   UNL     1      -9.985  12.427  65.367  1.00  0.00    -0.267 OA 
HETATM   15  C   UNL     1     -11.566  12.173  67.218  1.00  0.00    -0.334 C  
HETATM   16  C   UNL     1     -11.349  12.156  65.692  1.00  0.00    -0.347 C  
HETATM   17  C   UNL     1      -9.224  11.354  67.425  1.00  0.00    -0.164 C  
HETATM   18  C   UNL     1      -9.112  11.431  65.902  1.00  0.00    -0.198 C  
BRANCH  13  19
HETATM   19  C   UNL     1     -11.173   9.651  67.580  1.00  0.00     0.177 C  
BRANCH  19  20
HETATM   20  C   UNL     1     -10.061   8.828  66.898  1.00  0.00    -0.278 C  
BRANCH  20  21
HETATM   21  O   UNL     1      -9.811   7.561  67.497  1.00  0.00    -0.145 OA 
BRANCH  21  22
HETATM   22  C   UNL     1     -10.689   6.527  66.976  1.00  0.00    -0.364 C  
BRANCH  22  23
HETATM   23  C   UNL     1     -10.019   5.152  66.920  1.00  0.00    -0.227 C  
BRANCH  23  24
HETATM   24  C   UNL     1      -9.710   4.573  65.528  1.00  0.00    -0.204 C  
HETATM   25  C   UNL     1      -9.703   3.023  65.643  1.00  0.00     0.137 C  
HETATM   26  C   UNL     1      -8.315   2.368  65.592  1.00  0.00    -0.092 C  
HETATM   27  C   UNL     1      -7.279   3.275  64.927  1.00  0.00    -0.066 C  
HETATM   28  C   UNL     1      -7.144   4.580  65.766  1.00  0.00    -0.067 C  
HETATM   29  C   UNL     1      -8.368   5.077  64.937  1.00  0.00    -0.142 C  
HETATM   30  C   UNL     1      -7.752   4.209  63.737  1.00  0.00    -0.082 C  
HETATM   31  C   UNL     1      -8.713   3.650  62.684  1.00  0.00    -0.089 C  
HETATM   32  C   UNL     1      -6.566   4.825  62.961  1.00  0.00    -0.027 C  
ENDBRANCH  23  24
ENDBRANCH  22  23
ENDBRANCH  21  22
ENDBRANCH  20  21
ENDBRANCH  19  20
ENDBRANCH  13  19
ENDBRANCH  12  13
ENDBRANCH   7  12
ENDBRANCH   2   3
TORSDOF 10
ENDMDL
MODEL      249
REMARK 921   NORMALIZED FREE ENERGY PREDICTED BY IDOCK:   -3.06 KCAL/MOL
REMARK 922        TOTAL FREE ENERGY PREDICTED BY IDOCK:   -6.12 KCAL/MOL
REMARK 923 INTER-LIGAND FREE ENERGY PREDICTED BY IDOCK:   -5.49 KCAL/MOL
REMARK 924 INTRA-LIGAND FREE ENERGY PREDICTED BY IDOCK:   -0.63 KCAL/MOL
REMARK 927      BINDING AFFINITY PREDICTED BY RF-SCORE:    0.00 PKD
ROOT
HETATM    1  C   UNL     1     -10.602   4.699  72.623  1.00  0.00    -0.195 C  
HETATM    2  O   UNL     1     -10.190   4.412  71.294  1.00  0.00    -0.161 OA 
ENDROOT
BRANCH   2   3
HETATM    3  C   UNL     1      -9.579   5.402  70.577  1.00  0.00    -0.175 A  
HETATM    4  C   UNL     1      -9.487   5.536  69.185  1.00  0.00    -0.129 A  
HETATM    5  C   UNL     1      -8.918   6.329  71.391  1.00  0.00    -0.139 A  
HETATM    6  C   UNL     1      -8.720   6.580  68.650  1.00  0.00    -0.123 A  
HETATM    7  C   UNL     1      -7.935   7.429  69.462  1.00  0.00    -0.127 A  
HETATM    8 BR   UNL     1      -7.368   8.578  72.076  1.00  0.00    -0.081 Br 
HETATM    9  C   UNL     1      -8.127   7.343  70.848  1.00  0.00    -0.105 A  
BRANCH   4  10
HETATM   10  O   UNL     1     -10.162   4.665  68.378  1.00  0.00    -0.060 OA 
HETATM   11  C   UNL     1      -9.916   4.799  66.978  1.00  0.00    -0.204 C  
ENDBRANCH   4  10
BRANCH   7  12
HETATM   12  C   UNL     1      -6.839   8.266  68.820  1.00  0.00    -0.062 C  
BRANCH  12  13
HETATM   13  N   UNL     1      -7.324   9.673  68.268  1.00  0.00    -0.079 N  
HETATM   14  O   UNL     1      -6.290  12.298  67.351  1.00  0.00    -0.124 OA 
HETATM   15  C   UNL     1      -6.854  10.821  69.220  1.00  0.00    -0.092 C  
HETATM   16  C   UNL     1      -7.042  12.203  68.562  1.00  0.00    -0.099 C  
HETATM   17  C   UNL     1      -6.579   9.912  66.919  1.00  0.00    -0.067 C  
HETATM   18  C   UNL     1      -6.726  11.338  66.387  1.00  0.00    -0.065 C  
BRANCH  13  19
HETATM   19  C   UNL     1      -8.881   9.699  68.091  1.00  0.00    -0.119 C  
BRANCH  19  20
HETATM   20  C   UNL     1      -9.578  10.286  69.336  1.00  0.00    -0.218 C  
BRANCH  20  21
HETATM   21  O   UNL     1     -10.702  11.112  69.050  1.00  0.00    -0.206 OA 
BRANCH  21  22
HETATM   22  C   UNL     1     -10.593  11.751  67.750  1.00  0.00    -0.200 C  
BRANCH  22  23
HETATM   23  C   UNL     1     -11.087  13.200  67.759  1.00  0.00    -0.287 C  
BRANCH  23  24
HETATM   24  C   UNL     1     -10.090  14.282  68.212  1.00  0.00    -0.238 C  
HETATM   25  C   UNL     1     -10.884  15.374  68.984  1.00  0.00    -0.244 C  
HETATM   26  C   UNL     1     -11.091  16.693  68.227  1.00  0.00    -0.295 C  
HETATM   27  C   UNL     1     -10.063  16.879  67.112  1.00  0.00    -0.287 C  
HETATM   28  C   UNL     1     -10.227  15.725  66.080  1.00  0.00    -0.332 C  
HETATM   29  C   UNL     1      -9.299  14.919  67.041  1.00  0.00    -0.240 C  
HETATM   30  C   UNL     1      -8.595  16.327  67.344  1.00  0.00    -0.194 C  
HETATM   31  C   UNL     1      -7.929  16.523  68.708  1.00  0.00    -0.236 C  
HETATM   32  C   UNL     1      -7.592  16.853  66.291  1.00  0.00    -0.312 C  
ENDBRANCH  23  24
ENDBRANCH  22  23
ENDBRANCH  21  22
ENDBRANCH  20  21
ENDBRANCH  19  20
ENDBRANCH  13  19
ENDBRANCH  12  13
ENDBRANCH   7  12
ENDBRANCH   2   3
TORSDOF 10
ENDMDL
MODEL      250
REMARK 921   NORMALIZED FREE ENERGY PREDICTED BY IDOCK:   -3.04 KCAL/MOL
REMARK 922        TOTAL FREE ENERGY PREDICTED BY IDOCK:   -6.09 KCAL/MOL
REMARK 923 INTER-LIGAND FREE ENERGY PREDICTED BY IDOCK:   -5.09 KCAL/MOL
REMARK 924 INTRA-LIGAND FREE ENERGY PREDICTED BY IDOCK:   -1.01 KCAL/MOL
REMARK 927      BINDING AFFINITY PREDICTED BY RF-SCORE:    0.00 PKD
ROOT
HETATM    1  C   UNL     1      -8.962   8.268  64.661  1.00  0.00     0.404 C  
HETATM    2  O   UNL     1      -9.245   9.513  64.039  1.00  0.00    -0.219 OA 
ENDROOT
BRANCH   2   3
HETATM    3  C   UNL     1      -9.266  10.636  64.818  1.00  0.00    -0.220 A  
HETATM    4  C   UNL     1      -9.866  11.872  64.543  1.00  0.00    -0.178 A  
HETATM    5  C   UNL     1      -8.514  10.494  65.990  1.00  0.00    -0.157 A  
HETATM    6  C   UNL     1      -9.679  12.935  65.438  1.00  0.00    -0.043 A  
HETATM    7  C   UNL     1      -8.805  12.841  66.544  1.00  0.00    -0.046 A  
HETATM    8 BR   UNL     1      -7.339  11.198  68.450  1.00  0.00    -0.101 Br 
HETATM    9  C   UNL     1      -8.303  11.569  66.856  1.00  0.00    -0.166 A  
BRANCH   4  10
HETATM   10  O   UNL     1     -10.638  12.013  63.425  1.00  0.00    -0.423 OA 
HETATM   11  C   UNL     1     -12.049  11.996  63.640  1.00  0.00    -0.527 C  
ENDBRANCH   4  10
BRANCH   7  12
HETATM   12  C   UNL     1      -8.341  14.114  67.235  1.00  0.00    -0.196 C  
BRANCH  12  13
HETATM   13  N   UNL     1      -9.464  14.848  68.085  1.00  0.00    -0.197 N  
HETATM   14  O   UNL     1     -10.930  17.419  68.279  1.00  0.00    -0.317 OA 
HETATM   15  C   UNL     1      -8.890  16.147  68.737  1.00  0.00    -0.233 C  
HETATM   16  C   UNL     1     -10.018  17.030  69.307  1.00  0.00    -0.169 C  
HETATM   17  C   UNL     1     -10.553  15.328  67.075  1.00  0.00    -0.306 C  
HETATM   18  C   UNL     1     -11.572  16.287  67.692  1.00  0.00     0.212 C  
BRANCH  13  19
HETATM   19  C   UNL     1     -10.057  13.891  69.175  1.00  0.00     0.082 C  
BRANCH  19  20
HETATM   20  C   UNL     1     -11.374  13.245  68.698  1.00  0.00    -0.288 C  
BRANCH  20  21
HETATM   21  O   UNL     1     -11.242  11.905  68.237  1.00  0.00    -0.222 OA 
BRANCH  21  22
HETATM   22  C   UNL     1     -10.924  10.985  69.316  1.00  0.00    -0.252 C  
BRANCH  22  23
HETATM   23  C   UNL     1     -11.319   9.540  68.998  1.00  0.00     0.116 C  
BRANCH  23  24
HETATM   24  C   UNL     1     -10.214   8.607  68.469  1.00  0.00    -0.221 C  
HETATM   25  C   UNL     1     -10.899   7.379  67.807  1.00  0.00    -0.186 C  
HETATM   26  C   UNL     1     -10.822   6.073  68.610  1.00  0.00    -0.379 C  
HETATM   27  C   UNL     1      -9.673   6.089  69.619  1.00  0.00    -0.188 C  
HETATM   28  C   UNL     1      -9.915   7.242  70.635  1.00  0.00    -0.187 C  
HETATM   29  C   UNL     1      -9.222   8.145  69.568  1.00  0.00    -0.158 C  
HETATM   30  C   UNL     1      -8.340   6.851  69.226  1.00  0.00    -0.129 C  
HETATM   31  C   UNL     1      -7.788   6.709  67.805  1.00  0.00    -0.112 C  
HETATM   32  C   UNL     1      -7.169   6.525  70.181  1.00  0.00    -0.080 C  
ENDBRANCH  23  24
ENDBRANCH  22  23
ENDBRANCH  21  22
ENDBRANCH  20  21
ENDBRANCH  19  20
ENDBRANCH  13  19
ENDBRANCH  12  13
ENDBRANCH   7  12
ENDBRANCH   2   3
TORSDOF 10
ENDMDL
MODEL      251
REMARK 921   NORMALIZED FREE ENERGY PREDICTED BY IDOCK:   -3.03 KCAL/MOL
REMARK 922        TOTAL FREE ENERGY PREDICTED BY IDOCK:   -6.08 KCAL/MOL
REMARK 923 INTER-LIGAND FREE ENERGY PREDICTED BY IDOCK:   -5.03 KCAL/MOL
REMARK 924 INTRA-LIGAND FREE ENERGY PREDICTED BY IDOCK:   -1.05 KCAL/MOL
REMARK 927      BINDING AFFINITY PREDICTED BY RF-SCORE:    0.00 PKD
ROOT
HETATM    1  C   UNL     1      -9.949   5.737  69.204  1.00  0.00    -0.177 C  
HETATM    2  O   UNL     1     -10.223   7.109  68.961  1.00  0.00    -0.178 OA 
ENDROOT
BRANCH   2   3
HETATM    3  C   UNL     1      -9.168   7.952  68.748  1.00  0.00    -0.143 A  
HETATM    4  C   UNL     1      -8.330   8.552  69.698  1.00  0.00    -0.121 A  
HETATM    5  C   UNL     1      -9.000   8.276  67.397  1.00  0.00    -0.142 A  
HETATM    6  C   UNL     1      -7.365   9.473  69.270  1.00  0.00    -0.072 A  
HETATM    7  C   UNL     1      -7.287   9.913  67.929  1.00  0.00    -0.088 A  
HETATM    8 BR   UNL     1      -7.887   9.487  65.112  1.00  0.00    -0.118 Br 
HETATM    9  C   UNL     1      -8.060   9.222  66.985  1.00  0.00    -0.112 A  
BRANCH   4  10
HETATM   10  O   UNL     1      -8.454   8.214  71.015  1.00  0.00    -0.120 OA 
HETATM   11  C   UNL     1      -9.445   8.934  71.749  1.00  0.00    -0.264 C  
ENDBRANCH   4  10
BRANCH   7  12
HETATM   12  C   UNL     1      -6.506  11.177  67.606  1.00  0.00    -0.065 C  
BRANCH  12  13
HETATM   13  N   UNL     1      -7.062  12.491  68.304  1.00  0.00    -0.094 N  
HETATM   14  O   UNL     1      -6.225  15.204  69.164  1.00  0.00    -0.100 OA 
HETATM   15  C   UNL     1      -6.253  12.796  69.607  1.00  0.00    -0.120 C  
HETATM   16  C   UNL     1      -6.562  14.212  70.135  1.00  0.00    -0.034 C  
HETATM   17  C   UNL     1      -6.766  13.677  67.335  1.00  0.00    -0.004 C  
HETATM   18  C   UNL     1      -6.994  15.050  67.970  1.00  0.00    -0.137 C  
BRANCH  13  19
HETATM   19  C   UNL     1      -8.591  12.355  68.615  1.00  0.00     0.032 C  
BRANCH  19  20
HETATM   20  C   UNL     1      -9.449  12.733  67.390  1.00  0.00    -0.190 C  
BRANCH  20  21
HETATM   21  O   UNL     1     -10.631  11.955  67.234  1.00  0.00    -0.217 OA 
BRANCH  21  22
HETATM   22  C   UNL     1     -11.813  12.785  67.070  1.00  0.00    -0.361 C  
BRANCH  22  23
HETATM   23  C   UNL     1     -11.595  14.226  67.537  1.00  0.00    -0.390 C  
BRANCH  23  24
HETATM   24  C   UNL     1     -12.492  14.741  68.678  1.00  0.00     0.156 C  
HETATM   25  C   UNL     1     -11.887  16.074  69.200  1.00  0.00    -0.268 C  
HETATM   26  C   UNL     1     -11.185  15.986  70.562  1.00  0.00    -0.397 C  
HETATM   27  C   UNL     1     -11.656  14.776  71.371  1.00  0.00    -0.305 C  
HETATM   28  C   UNL     1     -11.302  13.480  70.585  1.00  0.00     0.584 C  
HETATM   29  C   UNL     1     -12.650  13.728  69.840  1.00  0.00    -0.147 C  
HETATM   30  C   UNL     1     -13.169  14.325  71.235  1.00  0.00    -0.412 C  
HETATM   31  C   UNL     1     -14.267  15.391  71.199  1.00  0.00    -0.323 C  
HETATM   32  C   UNL     1     -13.583  13.310  72.324  1.00  0.00    -0.703 C  
ENDBRANCH  23  24
ENDBRANCH  22  23
ENDBRANCH  21  22
ENDBRANCH  20  21
ENDBRANCH  19  20
ENDBRANCH  13  19
ENDBRANCH  12  13
ENDBRANCH   7  12
ENDBRANCH   2   3
TORSDOF 10
ENDMDL
MODEL      252
REMARK 921   NORMALIZED FREE ENERGY PREDICTED BY IDOCK:   -3.03 KCAL/MOL
REMARK 922        TOTAL FREE ENERGY PREDICTED BY IDOCK:   -6.07 KCAL/MOL
REMARK 923 INTER-LIGAND FREE ENERGY PREDICTED BY IDOCK:   -5.54 KCAL/MOL
REMARK 924 INTRA-LIGAND FREE ENERGY PREDICTED BY IDOCK:   -0.52 KCAL/MOL
REMARK 927      BINDING AFFINITY PREDICTED BY RF-SCORE:    0.00 PKD
ROOT
HETATM    1  C   UNL     1      -6.357   1.959  68.628  1.00  0.00    -0.025 C  
HETATM    2  O   UNL     1      -7.007   2.423  69.802  1.00  0.00    -0.033 OA 
ENDROOT
BRANCH   2   3
HETATM    3  C   UNL     1      -7.395   3.732  69.853  1.00  0.00    -0.042 A  
HETATM    4  C   UNL     1      -8.633   4.257  70.248  1.00  0.00    -0.069 A  
HETATM    5  C   UNL     1      -6.414   4.605  69.367  1.00  0.00    -0.036 A  
HETATM    6  C   UNL     1      -8.860   5.635  70.126  1.00  0.00    -0.144 A  
HETATM    7  C   UNL     1      -7.930   6.498  69.503  1.00  0.00    -0.117 A  
HETATM    8 BR   UNL     1      -5.206   7.039  68.632  1.00  0.00    -0.017 Br 
HETATM    9  C   UNL     1      -6.663   5.970  69.215  1.00  0.00    -0.060 A  
BRANCH   4  10
HETATM   10  O   UNL     1      -9.584   3.424  70.763  1.00  0.00    -0.161 OA 
HETATM   11  C   UNL     1     -10.251   3.894  71.936  1.00  0.00    -0.073 C  
ENDBRANCH   4  10
BRANCH   7  12
HETATM   12  C   UNL     1      -8.384   7.876  69.049  1.00  0.00    -0.130 C  
BRANCH  12  13
HETATM   13  N   UNL     1      -8.847   7.949  67.531  1.00  0.00    -0.128 N  
HETATM   14  O   UNL     1      -7.989   7.188  64.796  1.00  0.00    -0.122 OA 
HETATM   15  C   UNL     1      -7.799   8.738  66.681  1.00  0.00    -0.100 C  
HETATM   16  C   UNL     1      -8.062   8.564  65.172  1.00  0.00    -0.142 C  
HETATM   17  C   UNL     1      -8.824   6.489  66.982  1.00  0.00    -0.116 C  
HETATM   18  C   UNL     1      -8.983   6.410  65.462  1.00  0.00     0.058 C  
BRANCH  13  19
HETATM   19  C   UNL     1     -10.268   8.599  67.409  1.00  0.00    -0.262 C  
BRANCH  19  20
HETATM   20  C   UNL     1     -10.215  10.117  67.679  1.00  0.00    -0.203 C  
BRANCH  20  21
HETATM   21  O   UNL     1     -11.452  10.795  67.485  1.00  0.00    -0.475 OA 
BRANCH  21  22
HETATM   22  C   UNL     1     -11.409  11.692  66.342  1.00  0.00    -0.245 C  
BRANCH  22  23
HETATM   23  C   UNL     1     -11.940  13.091  66.666  1.00  0.00    -0.453 C  
BRANCH  23  24
HETATM   24  C   UNL     1     -10.948  14.263  66.559  1.00  0.00    -0.316 C  
HETATM   25  C   UNL     1      -9.517  13.707  66.805  1.00  0.00    -0.275 C  
HETATM   26  C   UNL     1      -8.902  14.060  68.166  1.00  0.00    -0.182 C  
HETATM   27  C   UNL     1      -9.563  15.290  68.790  1.00  0.00    -0.214 C  
HETATM   28  C   UNL     1     -11.069  14.982  69.031  1.00  0.00    -0.270 C  
HETATM   29  C   UNL     1     -11.255  15.419  67.545  1.00  0.00    -0.302 C  
HETATM   30  C   UNL     1     -10.057  16.447  67.826  1.00  0.00    -0.262 C  
HETATM   31  C   UNL     1      -9.174  16.867  66.648  1.00  0.00    -0.278 C  
HETATM   32  C   UNL     1     -10.408  17.744  68.591  1.00  0.00    -0.351 C  
ENDBRANCH  23  24
ENDBRANCH  22  23
ENDBRANCH  21  22
ENDBRANCH  20  21
ENDBRANCH  19  20
ENDBRANCH  13  19
ENDBRANCH  12  13
ENDBRANCH   7  12
ENDBRANCH   2   3
TORSDOF 10
ENDMDL
MODEL      253
REMARK 921   NORMALIZED FREE ENERGY PREDICTED BY IDOCK:   -3.02 KCAL/MOL
REMARK 922        TOTAL FREE ENERGY PREDICTED BY IDOCK:   -6.05 KCAL/MOL
REMARK 923 INTER-LIGAND FREE ENERGY PREDICTED BY IDOCK:   -6.41 KCAL/MOL
REMARK 924 INTRA-LIGAND FREE ENERGY PREDICTED BY IDOCK:    0.36 KCAL/MOL
REMARK 927      BINDING AFFINITY PREDICTED BY RF-SCORE:    0.00 PKD
ROOT
HETATM    1  C   UNL     1     -11.542  15.635  72.713  1.00  0.00    -0.340 C  
HETATM    2  O   UNL     1     -11.274  16.050  71.382  1.00  0.00    -0.324 OA 
ENDROOT
BRANCH   2   3
HETATM    3  C   UNL     1     -11.429  15.138  70.375  1.00  0.00    -0.286 A  
HETATM    4  C   UNL     1     -12.429  14.167  70.230  1.00  0.00    -0.353 A  
HETATM    5  C   UNL     1     -10.386  15.181  69.443  1.00  0.00    -0.259 A  
HETATM    6  C   UNL     1     -12.344  13.256  69.168  1.00  0.00    -0.016 A  
HETATM    7  C   UNL     1     -11.221  13.201  68.312  1.00  0.00    -0.307 A  
HETATM    8 BR   UNL     1      -8.872  14.488  67.172  1.00  0.00    -0.258 Br 
HETATM    9  C   UNL     1     -10.291  14.245  68.411  1.00  0.00    -0.247 A  
BRANCH   4  10
HETATM   10  O   UNL     1     -13.475  14.140  71.107  1.00  0.00    -0.318 OA 
HETATM   11  C   UNL     1     -13.543  12.993  71.955  1.00  0.00    -0.441 C  
ENDBRANCH   4  10
BRANCH   7  12
HETATM   12  C   UNL     1     -11.002  11.966  67.451  1.00  0.00    -0.263 C  
BRANCH  12  13
HETATM   13  N   UNL     1     -10.661  10.648  68.268  1.00  0.00    -0.202 N  
HETATM   14  O   UNL     1      -9.945   9.714  70.991  1.00  0.00    -0.247 OA 
HETATM   15  C   UNL     1      -9.231  10.750  68.891  1.00  0.00    -0.173 C  
HETATM   16  C   UNL     1      -8.994   9.634  69.929  1.00  0.00    -0.221 C  
HETATM   17  C   UNL     1     -11.646  10.597  69.476  1.00  0.00    -0.288 C  
HETATM   18  C   UNL     1     -11.279   9.535  70.514  1.00  0.00    -0.287 C  
BRANCH  13  19
HETATM   19  C   UNL     1     -10.783   9.377  67.358  1.00  0.00    -0.210 C  
BRANCH  19  20
HETATM   20  C   UNL     1      -9.444   9.054  66.664  1.00  0.00    -0.194 C  
BRANCH  20  21
HETATM   21  O   UNL     1      -8.945   7.745  66.922  1.00  0.00    -0.124 OA 
BRANCH  21  22
HETATM   22  C   UNL     1      -9.950   6.888  67.528  1.00  0.00    -0.149 C  
BRANCH  22  23
HETATM   23  C   UNL     1      -9.807   5.422  67.112  1.00  0.00    -0.178 C  
BRANCH  23  24
HETATM   24  C   UNL     1      -8.707   5.082  66.090  1.00  0.00    -0.120 C  
HETATM   25  C   UNL     1      -9.359   4.278  64.931  1.00  0.00    -0.165 C  
HETATM   26  C   UNL     1      -9.040   2.777  64.913  1.00  0.00    -0.139 C  
HETATM   27  C   UNL     1      -7.763   2.455  65.691  1.00  0.00    -0.076 C  
HETATM   28  C   UNL     1      -7.965   2.866  67.178  1.00  0.00    -0.075 C  
HETATM   29  C   UNL     1      -7.526   4.286  66.702  1.00  0.00    -0.081 C  
HETATM   30  C   UNL     1      -6.581   3.511  65.663  1.00  0.00    -0.037 C  
HETATM   31  C   UNL     1      -6.231   4.208  64.346  1.00  0.00    -0.026 C  
HETATM   32  C   UNL     1      -5.258   2.931  66.213  1.00  0.00    -0.008 C  
ENDBRANCH  23  24
ENDBRANCH  22  23
ENDBRANCH  21  22
ENDBRANCH  20  21
ENDBRANCH  19  20
ENDBRANCH  13  19
ENDBRANCH  12  13
ENDBRANCH   7  12
ENDBRANCH   2   3
TORSDOF 10
ENDMDL
MODEL      254
REMARK 921   NORMALIZED FREE ENERGY PREDICTED BY IDOCK:   -3.00 KCAL/MOL
REMARK 922        TOTAL FREE ENERGY PREDICTED BY IDOCK:   -6.03 KCAL/MOL
REMARK 923 INTER-LIGAND FREE ENERGY PREDICTED BY IDOCK:   -4.86 KCAL/MOL
REMARK 924 INTRA-LIGAND FREE ENERGY PREDICTED BY IDOCK:   -1.17 KCAL/MOL
REMARK 927      BINDING AFFINITY PREDICTED BY RF-SCORE:    0.00 PKD
ROOT
HETATM    1  C   UNL     1      -8.858   3.772  73.787  1.00  0.00    -0.088 C  
HETATM    2  O   UNL     1     -10.106   3.701  73.113  1.00  0.00    -0.133 OA 
ENDROOT
BRANCH   2   3
HETATM    3  C   UNL     1     -10.341   4.578  72.092  1.00  0.00    -0.162 A  
HETATM    4  C   UNL     1     -10.029   4.433  70.733  1.00  0.00    -0.177 A  
HETATM    5  C   UNL     1     -10.898   5.783  72.534  1.00  0.00    -0.294 A  
HETATM    6  C   UNL     1     -10.265   5.505  69.862  1.00  0.00    -0.338 A  
HETATM    7  C   UNL     1     -10.690   6.771  70.324  1.00  0.00    -0.284 A  
HETATM    8 BR   UNL     1     -11.944   8.394  72.390  1.00  0.00    -0.414 Br 
HETATM    9  C   UNL     1     -11.095   6.858  71.664  1.00  0.00    -0.240 A  
BRANCH   4  10
HETATM   10  O   UNL     1      -9.525   3.247  70.281  1.00  0.00    -0.161 OA 
HETATM   11  C   UNL     1      -8.101   3.175  70.189  1.00  0.00    -0.045 C  
ENDBRANCH   4  10
BRANCH   7  12
HETATM   12  C   UNL     1     -10.548   7.981  69.414  1.00  0.00    -0.205 C  
BRANCH  12  13
HETATM   13  N   UNL     1      -9.063   8.521  69.264  1.00  0.00    -0.152 N  
HETATM   14  O   UNL     1      -7.095  10.317  70.569  1.00  0.00    -0.298 OA 
HETATM   15  C   UNL     1      -9.062  10.079  69.132  1.00  0.00    -0.184 C  
HETATM   16  C   UNL     1      -7.639  10.651  69.292  1.00  0.00    -0.138 C  
HETATM   17  C   UNL     1      -8.332   8.212  70.607  1.00  0.00    -0.123 C  
HETATM   18  C   UNL     1      -6.974   8.904  70.733  1.00  0.00    -0.074 C  
BRANCH  13  19
HETATM   19  C   UNL     1      -8.345   7.857  68.040  1.00  0.00    -0.123 C  
BRANCH  19  20
HETATM   20  C   UNL     1      -8.932   8.362  66.705  1.00  0.00    -0.151 C  
BRANCH  20  21
HETATM   21  O   UNL     1      -7.961   8.648  65.703  1.00  0.00    -0.097 OA 
BRANCH  21  22
HETATM   22  C   UNL     1      -8.492   8.473  64.362  1.00  0.00    -0.071 C  
BRANCH  22  23
HETATM   23  C   UNL     1      -7.995   7.191  63.690  1.00  0.00    -0.070 C  
BRANCH  23  24
HETATM   24  C   UNL     1      -7.453   6.079  64.606  1.00  0.00    -0.080 C  
HETATM   25  C   UNL     1      -6.437   5.234  63.786  1.00  0.00    -0.026 C  
HETATM   26  C   UNL     1      -6.934   3.848  63.355  1.00  0.00    -0.044 C  
HETATM   27  C   UNL     1      -8.088   3.357  64.229  1.00  0.00    -0.086 C  
HETATM   28  C   UNL     1      -9.284   4.342  64.079  1.00  0.00    -0.148 C  
HETATM   29  C   UNL     1      -8.563   5.168  65.190  1.00  0.00    -0.150 C  
HETATM   30  C   UNL     1      -8.087   3.749  65.765  1.00  0.00    -0.093 C  
HETATM   31  C   UNL     1      -6.774   3.693  66.550  1.00  0.00    -0.049 C  
HETATM   32  C   UNL     1      -9.118   2.939  66.583  1.00  0.00    -0.161 C  
ENDBRANCH  23  24
ENDBRANCH  22  23
ENDBRANCH  21  22
ENDBRANCH  20  21
ENDBRANCH  19  20
ENDBRANCH  13  19
ENDBRANCH  12  13
ENDBRANCH   7  12
ENDBRANCH   2   3
TORSDOF 10
ENDMDL
MODEL      255
REMARK 921   NORMALIZED FREE ENERGY PREDICTED BY IDOCK:   -2.98 KCAL/MOL
REMARK 922        TOTAL FREE ENERGY PREDICTED BY IDOCK:   -6.00 KCAL/MOL
REMARK 923 INTER-LIGAND FREE ENERGY PREDICTED BY IDOCK:   -5.73 KCAL/MOL
REMARK 924 INTRA-LIGAND FREE ENERGY PREDICTED BY IDOCK:   -0.27 KCAL/MOL
REMARK 927      BINDING AFFINITY PREDICTED BY RF-SCORE:    0.00 PKD
ROOT
HETATM    1  C   UNL     1     -12.172   7.564  72.167  1.00  0.00    -0.248 C  
HETATM    2  O   UNL     1     -11.291   6.560  72.650  1.00  0.00    -0.257 OA 
ENDROOT
BRANCH   2   3
HETATM    3  C   UNL     1     -10.173   6.274  71.918  1.00  0.00    -0.201 A  
HETATM    4  C   UNL     1      -9.011   7.044  71.769  1.00  0.00    -0.133 A  
HETATM    5  C   UNL     1     -10.293   5.084  71.192  1.00  0.00    -0.254 A  
HETATM    6  C   UNL     1      -8.016   6.612  70.882  1.00  0.00    -0.110 A  
HETATM    7  C   UNL     1      -8.194   5.492  70.039  1.00  0.00    -0.104 A  
HETATM    8 BR   UNL     1      -9.574   2.998  69.442  1.00  0.00     0.043 Br 
HETATM    9  C   UNL     1      -9.312   4.681  70.283  1.00  0.00    -0.149 A  
BRANCH   4  10
HETATM   10  O   UNL     1      -8.861   8.186  72.503  1.00  0.00    -0.167 OA 
HETATM   11  C   UNL     1      -8.366   8.008  73.830  1.00  0.00    -0.260 C  
ENDBRANCH   4  10
BRANCH   7  12
HETATM   12  C   UNL     1      -7.273   5.306  68.843  1.00  0.00    -0.062 C  
BRANCH  12  13
HETATM   13  N   UNL     1      -7.769   6.022  67.515  1.00  0.00    -0.096 N  
HETATM   14  O   UNL     1      -7.853   5.668  64.571  1.00  0.00    -0.100 OA 
HETATM   15  C   UNL     1      -6.562   6.285  66.557  1.00  0.00    -0.048 C  
HETATM   16  C   UNL     1      -7.045   6.693  65.151  1.00  0.00    -0.064 C  
HETATM   17  C   UNL     1      -8.686   5.004  66.768  1.00  0.00    -0.108 C  
HETATM   18  C   UNL     1      -9.032   5.432  65.341  1.00  0.00    -0.124 C  
BRANCH  13  19
HETATM   19  C   UNL     1      -8.521   7.357  67.844  1.00  0.00    -0.122 C  
BRANCH  19  20
HETATM   20  C   UNL     1      -7.580   8.573  67.730  1.00  0.00    -0.098 C  
BRANCH  20  21
HETATM   21  O   UNL     1      -8.174   9.816  68.090  1.00  0.00    -0.108 OA 
BRANCH  21  22
HETATM   22  C   UNL     1      -7.937  10.845  67.091  1.00  0.00    -0.127 C  
BRANCH  22  23
HETATM   23  C   UNL     1      -9.194  11.654  66.763  1.00  0.00    -0.190 C  
BRANCH  23  24
HETATM   24  C   UNL     1      -9.404  12.972  67.531  1.00  0.00    -0.200 C  
HETATM   25  C   UNL     1     -10.539  12.748  68.569  1.00  0.00    -0.270 C  
HETATM   26  C   UNL     1     -11.884  13.402  68.222  1.00  0.00    -0.393 C  
HETATM   27  C   UNL     1     -11.720  14.553  67.230  1.00  0.00    -0.429 C  
HETATM   28  C   UNL     1     -11.125  13.992  65.905  1.00  0.00    -0.301 C  
HETATM   29  C   UNL     1      -9.745  14.172  66.610  1.00  0.00    -0.297 C  
HETATM   30  C   UNL     1     -10.413  15.444  67.322  1.00  0.00    -0.282 C  
HETATM   31  C   UNL     1      -9.886  15.860  68.699  1.00  0.00    -0.212 C  
HETATM   32  C   UNL     1     -10.521  16.741  66.488  1.00  0.00    -0.258 C  
ENDBRANCH  23  24
ENDBRANCH  22  23
ENDBRANCH  21  22
ENDBRANCH  20  21
ENDBRANCH  19  20
ENDBRANCH  13  19
ENDBRANCH  12  13
ENDBRANCH   7  12
ENDBRANCH   2   3
TORSDOF 10
ENDMDL
MODEL      256
REMARK 921   NORMALIZED FREE ENERGY PREDICTED BY IDOCK:   -2.96 KCAL/MOL
REMARK 922        TOTAL FREE ENERGY PREDICTED BY IDOCK:   -5.96 KCAL/MOL
REMARK 923 INTER-LIGAND FREE ENERGY PREDICTED BY IDOCK:   -5.42 KCAL/MOL
REMARK 924 INTRA-LIGAND FREE ENERGY PREDICTED BY IDOCK:   -0.54 KCAL/MOL
REMARK 927      BINDING AFFINITY PREDICTED BY RF-SCORE:    0.00 PKD
ROOT
HETATM    1  C   UNL     1     -10.431  17.480  66.095  1.00  0.00    -0.288 C  
HETATM    2  O   UNL     1      -9.805  16.661  67.072  1.00  0.00    -0.246 OA 
ENDROOT
BRANCH   2   3
HETATM    3  C   UNL     1     -10.258  15.381  67.230  1.00  0.00    -0.254 A  
HETATM    4  C   UNL     1     -10.466  14.675  68.422  1.00  0.00    -0.243 A  
HETATM    5  C   UNL     1     -10.448  14.721  66.010  1.00  0.00    -0.312 A  
HETATM    6  C   UNL     1     -10.839  13.325  68.358  1.00  0.00    -0.279 A  
HETATM    7  C   UNL     1     -10.890  12.616  67.137  1.00  0.00    -0.282 A  
HETATM    8 BR   UNL     1     -11.097  12.636  64.233  1.00  0.00    -0.444 Br 
HETATM    9  C   UNL     1     -10.783  13.367  65.958  1.00  0.00    -0.278 A  
BRANCH   4  10
HETATM   10  O   UNL     1     -10.326  15.317  69.619  1.00  0.00    -0.245 OA 
HETATM   11  C   UNL     1     -11.510  15.419  70.410  1.00  0.00    -0.330 C  
ENDBRANCH   4  10
BRANCH   7  12
HETATM   12  C   UNL     1     -10.908  11.095  67.160  1.00  0.00    -0.273 C  
BRANCH  12  13
HETATM   13  N   UNL     1      -9.476  10.419  67.044  1.00  0.00    -0.161 N  
HETATM   14  O   UNL     1      -6.711  10.624  68.101  1.00  0.00    -0.063 OA 
HETATM   15  C   UNL     1      -8.419  11.466  66.563  1.00  0.00    -0.170 C  
HETATM   16  C   UNL     1      -6.984  10.928  66.733  1.00  0.00    -0.126 C  
HETATM   17  C   UNL     1      -9.046  10.020  68.490  1.00  0.00    -0.127 C  
HETATM   18  C   UNL     1      -7.578   9.601  68.593  1.00  0.00    -0.080 C  
BRANCH  13  19
HETATM   19  C   UNL     1      -9.515   9.183  66.082  1.00  0.00    -0.245 C  
BRANCH  19  20
HETATM   20  C   UNL     1     -10.065   7.932  66.798  1.00  0.00    -0.281 C  
BRANCH  20  21
HETATM   21  O   UNL     1      -9.853   6.710  66.099  1.00  0.00    -0.026 OA 
BRANCH  21  22
HETATM   22  C   UNL     1      -9.435   5.639  66.987  1.00  0.00    -0.127 C  
BRANCH  22  23
HETATM   23  C   UNL     1      -8.150   5.968  67.751  1.00  0.00    -0.109 C  
BRANCH  23  24
HETATM   24  C   UNL     1      -8.076   5.536  69.227  1.00  0.00    -0.095 C  
HETATM   25  C   UNL     1      -7.195   6.568  69.986  1.00  0.00    -0.080 C  
HETATM   26  C   UNL     1      -5.792   6.077  70.367  1.00  0.00    -0.021 C  
HETATM   27  C   UNL     1      -5.711   4.550  70.405  1.00  0.00    -0.013 C  
HETATM   28  C   UNL     1      -6.023   3.997  68.984  1.00  0.00    -0.023 C  
HETATM   29  C   UNL     1      -7.517   4.103  69.421  1.00  0.00    -0.054 C  
HETATM   30  C   UNL     1      -6.986   3.743  70.890  1.00  0.00    -0.033 C  
HETATM   31  C   UNL     1      -7.783   4.256  72.092  1.00  0.00    -0.081 C  
HETATM   32  C   UNL     1      -6.670   2.258  71.179  1.00  0.00    -0.031 C  
ENDBRANCH  23  24
ENDBRANCH  22  23
ENDBRANCH  21  22
ENDBRANCH  20  21
ENDBRANCH  19  20
ENDBRANCH  13  19
ENDBRANCH  12  13
ENDBRANCH   7  12
ENDBRANCH   2   3
TORSDOF 10
ENDMDL
MODEL      257
REMARK 921   NORMALIZED FREE ENERGY PREDICTED BY IDOCK:   -2.95 KCAL/MOL
REMARK 922        TOTAL FREE ENERGY PREDICTED BY IDOCK:   -5.96 KCAL/MOL
REMARK 923 INTER-LIGAND FREE ENERGY PREDICTED BY IDOCK:   -5.90 KCAL/MOL
REMARK 924 INTRA-LIGAND FREE ENERGY PREDICTED BY IDOCK:   -0.06 KCAL/MOL
REMARK 927      BINDING AFFINITY PREDICTED BY RF-SCORE:    0.00 PKD
ROOT
HETATM    1  C   UNL     1     -13.111  13.641  65.031  1.00  0.00    -0.000 C  
HETATM    2  O   UNL     1     -12.441  14.399  66.029  1.00  0.00    -0.391 OA 
ENDROOT
BRANCH   2   3
HETATM    3  C   UNL     1     -11.387  13.822  66.680  1.00  0.00    -0.328 A  
HETATM    4  C   UNL     1     -10.021  13.929  66.385  1.00  0.00    -0.297 A  
HETATM    5  C   UNL     1     -11.792  12.974  67.717  1.00  0.00    -0.395 A  
HETATM    6  C   UNL     1      -9.104  13.167  67.122  1.00  0.00    -0.230 A  
HETATM    7  C   UNL     1      -9.515  12.202  68.068  1.00  0.00    -0.201 A  
HETATM    8 BR   UNL     1     -11.562  11.161  69.859  1.00  0.00    -0.432 Br 
HETATM    9  C   UNL     1     -10.873  12.192  68.420  1.00  0.00    -0.224 A  
BRANCH   4  10
HETATM   10  O   UNL     1      -9.608  14.784  65.404  1.00  0.00    -0.241 OA 
HETATM   11  C   UNL     1      -9.471  16.152  65.793  1.00  0.00    -0.219 C  
ENDBRANCH   4  10
BRANCH   7  12
HETATM   12  C   UNL     1      -8.523  11.149  68.537  1.00  0.00    -0.156 C  
BRANCH  12  13
HETATM   13  N   UNL     1      -8.521   9.817  67.673  1.00  0.00    -0.121 N  
HETATM   14  O   UNL     1      -7.791   8.783  64.990  1.00  0.00    -0.100 OA 
HETATM   15  C   UNL     1      -9.389  10.004  66.385  1.00  0.00    -0.168 C  
HETATM   16  C   UNL     1      -9.161   8.851  65.388  1.00  0.00    -0.163 C  
HETATM   17  C   UNL     1      -7.059   9.607  67.169  1.00  0.00    -0.086 C  
HETATM   18  C   UNL     1      -6.935   8.519  66.102  1.00  0.00    -0.076 C  
BRANCH  13  19
HETATM   19  C   UNL     1      -9.031   8.600  68.517  1.00  0.00    -0.139 C  
BRANCH  19  20
HETATM   20  C   UNL     1      -8.601   8.722  69.994  1.00  0.00    -0.136 C  
BRANCH  20  21
HETATM   21  O   UNL     1      -9.603   8.349  70.934  1.00  0.00    -0.163 OA 
BRANCH  21  22
HETATM   22  C   UNL     1      -9.053   8.127  72.260  1.00  0.00    -0.199 C  
BRANCH  22  23
HETATM   23  C   UNL     1      -7.675   7.462  72.226  1.00  0.00    -0.098 C  
BRANCH  23  24
HETATM   24  C   UNL     1      -7.635   5.924  72.171  1.00  0.00    -0.101 C  
HETATM   25  C   UNL     1      -7.638   5.496  70.677  1.00  0.00    -0.089 C  
HETATM   26  C   UNL     1      -8.961   4.910  70.165  1.00  0.00    -0.146 C  
HETATM   27  C   UNL     1      -9.830   4.378  71.306  1.00  0.00    -0.260 C  
HETATM   28  C   UNL     1     -10.185   5.558  72.256  1.00  0.00    -0.244 C  
HETATM   29  C   UNL     1      -8.810   5.251  72.927  1.00  0.00    -0.121 C  
HETATM   30  C   UNL     1      -9.109   3.721  72.555  1.00  0.00    -0.135 C  
HETATM   31  C   UNL     1      -7.916   2.788  72.325  1.00  0.00    -0.055 C  
HETATM   32  C   UNL     1     -10.091   2.953  73.468  1.00  0.00    -0.183 C  
ENDBRANCH  23  24
ENDBRANCH  22  23
ENDBRANCH  21  22
ENDBRANCH  20  21
ENDBRANCH  19  20
ENDBRANCH  13  19
ENDBRANCH  12  13
ENDBRANCH   7  12
ENDBRANCH   2   3
TORSDOF 10
ENDMDL
MODEL      258
REMARK 921   NORMALIZED FREE ENERGY PREDICTED BY IDOCK:   -2.95 KCAL/MOL
REMARK 922        TOTAL FREE ENERGY PREDICTED BY IDOCK:   -5.94 KCAL/MOL
REMARK 923 INTER-LIGAND FREE ENERGY PREDICTED BY IDOCK:   -5.18 KCAL/MOL
REMARK 924 INTRA-LIGAND FREE ENERGY PREDICTED BY IDOCK:   -0.76 KCAL/MOL
REMARK 927      BINDING AFFINITY PREDICTED BY RF-SCORE:    0.00 PKD
ROOT
HETATM    1  C   UNL     1     -11.178  14.419  66.135  1.00  0.00    -0.336 C  
HETATM    2  O   UNL     1     -10.431  13.707  67.111  1.00  0.00    -0.261 OA 
ENDROOT
BRANCH   2   3
HETATM    3  C   UNL     1     -10.689  12.375  67.278  1.00  0.00    -0.230 A  
HETATM    4  C   UNL     1     -11.569  11.768  68.185  1.00  0.00    -0.323 A  
HETATM    5  C   UNL     1      -9.890  11.564  66.464  1.00  0.00    -0.228 A  
HETATM    6  C   UNL     1     -11.607  10.369  68.265  1.00  0.00    -0.100 A  
HETATM    7  C   UNL     1     -10.702   9.550  67.553  1.00  0.00    -0.311 A  
HETATM    8 BR   UNL     1      -8.838   9.205  65.343  1.00  0.00    -0.248 Br 
HETATM    9  C   UNL     1      -9.909  10.173  66.578  1.00  0.00    -0.212 A  
BRANCH   4  10
HETATM   10  O   UNL     1     -12.385  12.546  68.956  1.00  0.00    -0.071 OA 
HETATM   11  C   UNL     1     -12.079  12.573  70.350  1.00  0.00    -0.297 C  
ENDBRANCH   4  10
BRANCH   7  12
HETATM   12  C   UNL     1     -10.527   8.098  67.970  1.00  0.00    -0.183 C  
BRANCH  12  13
HETATM   13  N   UNL     1      -9.604   7.888  69.245  1.00  0.00    -0.156 N  
HETATM   14  O   UNL     1      -8.911   9.129  71.849  1.00  0.00    -0.340 OA 
HETATM   15  C   UNL     1      -8.631   9.100  69.418  1.00  0.00    -0.138 C  
HETATM   16  C   UNL     1      -7.946   9.072  70.799  1.00  0.00    -0.148 C  
HETATM   17  C   UNL     1     -10.542   7.919  70.492  1.00  0.00    -0.223 C  
HETATM   18  C   UNL     1      -9.786   8.000  71.819  1.00  0.00    -0.176 C  
BRANCH  13  19
HETATM   19  C   UNL     1      -8.807   6.542  69.145  1.00  0.00    -0.128 C  
BRANCH  19  20
HETATM   20  C   UNL     1      -8.910   5.933  67.732  1.00  0.00    -0.109 C  
BRANCH  20  21
HETATM   21  O   UNL     1      -9.534   4.654  67.684  1.00  0.00    -0.136 OA 
BRANCH  21  22
HETATM   22  C   UNL     1      -8.957   3.804  66.656  1.00  0.00    -0.140 C  
BRANCH  22  23
HETATM   23  C   UNL     1      -7.767   4.455  65.946  1.00  0.00    -0.094 C  
BRANCH  23  24
HETATM   24  C   UNL     1      -8.076   5.383  64.757  1.00  0.00    -0.123 C  
HETATM   25  C   UNL     1      -8.649   4.512  63.604  1.00  0.00    -0.126 C  
HETATM   26  C   UNL     1      -7.693   4.270  62.428  1.00  0.00    -0.059 C  
HETATM   27  C   UNL     1      -6.591   5.327  62.361  1.00  0.00    -0.025 C  
HETATM   28  C   UNL     1      -5.745   5.253  63.665  1.00  0.00    -0.017 C  
HETATM   29  C   UNL     1      -6.843   6.184  64.267  1.00  0.00    -0.042 C  
HETATM   30  C   UNL     1      -6.946   6.810  62.794  1.00  0.00    -0.048 C  
HETATM   31  C   UNL     1      -8.282   7.417  62.359  1.00  0.00    -0.084 C  
HETATM   32  C   UNL     1      -5.853   7.823  62.383  1.00  0.00    -0.068 C  
ENDBRANCH  23  24
ENDBRANCH  22  23
ENDBRANCH  21  22
ENDBRANCH  20  21
ENDBRANCH  19  20
ENDBRANCH  13  19
ENDBRANCH  12  13
ENDBRANCH   7  12
ENDBRANCH   2   3
TORSDOF 10
ENDMDL
MODEL      259
REMARK 921   NORMALIZED FREE ENERGY PREDICTED BY IDOCK:   -2.93 KCAL/MOL
REMARK 922        TOTAL FREE ENERGY PREDICTED BY IDOCK:   -5.92 KCAL/MOL
REMARK 923 INTER-LIGAND FREE ENERGY PREDICTED BY IDOCK:   -5.84 KCAL/MOL
REMARK 924 INTRA-LIGAND FREE ENERGY PREDICTED BY IDOCK:   -0.08 KCAL/MOL
REMARK 927      BINDING AFFINITY PREDICTED BY RF-SCORE:    0.00 PKD
ROOT
HETATM    1  C   UNL     1     -11.221   7.166  73.172  1.00  0.00    -0.188 C  
HETATM    2  O   UNL     1      -9.854   7.050  73.539  1.00  0.00    -0.203 OA 
ENDROOT
BRANCH   2   3
HETATM    3  C   UNL     1      -9.021   6.341  72.719  1.00  0.00    -0.125 A  
HETATM    4  C   UNL     1      -7.904   6.801  72.010  1.00  0.00    -0.096 A  
HETATM    5  C   UNL     1      -9.432   5.014  72.549  1.00  0.00    -0.164 A  
HETATM    6  C   UNL     1      -7.243   5.926  71.136  1.00  0.00    -0.074 A  
HETATM    7  C   UNL     1      -7.738   4.634  70.851  1.00  0.00    -0.072 A  
HETATM    8 BR   UNL     1      -9.403   2.365  71.596  1.00  0.00    -0.200 Br 
HETATM    9  C   UNL     1      -8.790   4.162  71.649  1.00  0.00    -0.113 A  
BRANCH   4  10
HETATM   10  O   UNL     1      -7.466   8.081  72.197  1.00  0.00    -0.081 OA 
HETATM   11  C   UNL     1      -7.972   9.050  71.279  1.00  0.00    -0.091 C  
ENDBRANCH   4  10
BRANCH   7  12
HETATM   12  C   UNL     1      -7.222   3.894  69.626  1.00  0.00    -0.045 C  
BRANCH  12  13
HETATM   13  N   UNL     1      -7.837   4.392  68.249  1.00  0.00    -0.079 N  
HETATM   14  O   UNL     1      -9.344   3.421  65.885  1.00  0.00    -0.159 OA 
HETATM   15  C   UNL     1      -7.202   3.607  67.055  1.00  0.00    -0.063 C  
HETATM   16  C   UNL     1      -7.987   3.847  65.750  1.00  0.00    -0.093 C  
HETATM   17  C   UNL     1      -9.346   3.996  68.259  1.00  0.00    -0.160 C  
HETATM   18  C   UNL     1     -10.026   4.161  66.899  1.00  0.00    -0.088 C  
BRANCH  13  19
HETATM   19  C   UNL     1      -7.637   5.935  68.071  1.00  0.00    -0.089 C  
BRANCH  19  20
HETATM   20  C   UNL     1      -8.939   6.707  68.367  1.00  0.00    -0.123 C  
BRANCH  20  21
HETATM   21  O   UNL     1      -9.388   7.540  67.303  1.00  0.00    -0.133 OA 
BRANCH  21  22
HETATM   22  C   UNL     1      -9.105   8.944  67.551  1.00  0.00    -0.133 C  
BRANCH  22  23
HETATM   23  C   UNL     1     -10.346   9.830  67.421  1.00  0.00    -0.297 C  
BRANCH  23  24
HETATM   24  C   UNL     1     -10.343  10.890  66.304  1.00  0.00    -0.306 C  
HETATM   25  C   UNL     1      -9.015  11.692  66.407  1.00  0.00    -0.198 C  
HETATM   26  C   UNL     1      -9.150  13.114  66.969  1.00  0.00    -0.231 C  
HETATM   27  C   UNL     1     -10.575  13.651  66.828  1.00  0.00    -0.273 C  
HETATM   28  C   UNL     1     -11.537  12.739  67.644  1.00  0.00    -0.412 C  
HETATM   29  C   UNL     1     -11.559  11.849  66.363  1.00  0.00    -0.315 C  
HETATM   30  C   UNL     1     -11.415  13.225  65.553  1.00  0.00    -0.335 C  
HETATM   31  C   UNL     1     -10.731  13.189  64.184  1.00  0.00    -0.399 C  
HETATM   32  C   UNL     1     -12.695  14.075  65.378  1.00  0.00    -0.499 C  
ENDBRANCH  23  24
ENDBRANCH  22  23
ENDBRANCH  21  22
ENDBRANCH  20  21
ENDBRANCH  19  20
ENDBRANCH  13  19
ENDBRANCH  12  13
ENDBRANCH   7  12
ENDBRANCH   2   3
TORSDOF 10
ENDMDL
MODEL      260
REMARK 921   NORMALIZED FREE ENERGY PREDICTED BY IDOCK:   -2.91 KCAL/MOL
REMARK 922        TOTAL FREE ENERGY PREDICTED BY IDOCK:   -5.88 KCAL/MOL
REMARK 923 INTER-LIGAND FREE ENERGY PREDICTED BY IDOCK:   -5.43 KCAL/MOL
REMARK 924 INTRA-LIGAND FREE ENERGY PREDICTED BY IDOCK:   -0.45 KCAL/MOL
REMARK 927      BINDING AFFINITY PREDICTED BY RF-SCORE:    0.00 PKD
ROOT
HETATM    1  C   UNL     1      -8.899   4.057  74.144  1.00  0.00    -0.095 C  
HETATM    2  O   UNL     1      -9.441   5.303  74.561  1.00  0.00    -0.126 OA 
ENDROOT
BRANCH   2   3
HETATM    3  C   UNL     1      -9.614   6.280  73.621  1.00  0.00    -0.159 A  
HETATM    4  C   UNL     1      -8.731   7.308  73.264  1.00  0.00    -0.141 A  
HETATM    5  C   UNL     1     -10.881   6.240  73.028  1.00  0.00    -0.286 A  
HETATM    6  C   UNL     1      -9.149   8.276  72.340  1.00  0.00    -0.307 A  
HETATM    7  C   UNL     1     -10.473   8.324  71.850  1.00  0.00    -0.342 A  
HETATM    8 BR   UNL     1     -13.011   6.989  71.345  1.00  0.00    -0.333 Br 
HETATM    9  C   UNL     1     -11.301   7.229  72.137  1.00  0.00    -0.265 A  
BRANCH   4  10
HETATM   10  O   UNL     1      -7.476   7.335  73.802  1.00  0.00    -0.097 OA 
HETATM   11  C   UNL     1      -6.565   8.259  73.204  1.00  0.00    -0.104 C  
ENDBRANCH   4  10
BRANCH   7  12
HETATM   12  C   UNL     1     -10.972   9.595  71.179  1.00  0.00    -0.360 C  
BRANCH  12  13
HETATM   13  N   UNL     1     -10.637   9.696  69.630  1.00  0.00    -0.220 N  
HETATM   14  O   UNL     1      -9.625  11.592  67.585  1.00  0.00    -0.175 OA 
HETATM   15  C   UNL     1     -11.495  10.819  68.961  1.00  0.00    -0.298 C  
HETATM   16  C   UNL     1     -10.980  11.145  67.545  1.00  0.00    -0.275 C  
HETATM   17  C   UNL     1      -9.156  10.175  69.518  1.00  0.00    -0.195 C  
HETATM   18  C   UNL     1      -8.755  10.583  68.100  1.00  0.00    -0.130 C  
BRANCH  13  19
HETATM   19  C   UNL     1     -10.864   8.320  68.916  1.00  0.00     0.034 C  
BRANCH  19  20
HETATM   20  C   UNL     1      -9.542   7.537  68.776  1.00  0.00    -0.149 C  
BRANCH  20  21
HETATM   21  O   UNL     1      -9.587   6.207  69.284  1.00  0.00    -0.132 OA 
BRANCH  21  22
HETATM   22  C   UNL     1     -10.172   5.278  68.332  1.00  0.00    -0.137 C  
BRANCH  22  23
HETATM   23  C   UNL     1      -9.326   4.017  68.139  1.00  0.00    -0.218 C  
BRANCH  23  24
HETATM   24  C   UNL     1      -9.339   3.365  66.744  1.00  0.00    -0.190 C  
HETATM   25  C   UNL     1      -8.310   2.201  66.748  1.00  0.00    -0.092 C  
HETATM   26  C   UNL     1      -7.009   2.473  65.979  1.00  0.00    -0.048 C  
HETATM   27  C   UNL     1      -7.180   3.585  64.944  1.00  0.00    -0.067 C  
HETATM   28  C   UNL     1      -7.563   4.901  65.682  1.00  0.00    -0.086 C  
HETATM   29  C   UNL     1      -9.024   4.361  65.598  1.00  0.00    -0.132 C  
HETATM   30  C   UNL     1      -8.574   3.714  64.202  1.00  0.00    -0.090 C  
HETATM   31  C   UNL     1      -9.290   2.445  63.730  1.00  0.00    -0.108 C  
HETATM   32  C   UNL     1      -8.508   4.656  62.979  1.00  0.00    -0.111 C  
ENDBRANCH  23  24
ENDBRANCH  22  23
ENDBRANCH  21  22
ENDBRANCH  20  21
ENDBRANCH  19  20
ENDBRANCH  13  19
ENDBRANCH  12  13
ENDBRANCH   7  12
ENDBRANCH   2   3
TORSDOF 10
ENDMDL
MODEL      261
REMARK 921   NORMALIZED FREE ENERGY PREDICTED BY IDOCK:   -2.89 KCAL/MOL
REMARK 922        TOTAL FREE ENERGY PREDICTED BY IDOCK:   -5.85 KCAL/MOL
REMARK 923 INTER-LIGAND FREE ENERGY PREDICTED BY IDOCK:   -5.50 KCAL/MOL
REMARK 924 INTRA-LIGAND FREE ENERGY PREDICTED BY IDOCK:   -0.35 KCAL/MOL
REMARK 927      BINDING AFFINITY PREDICTED BY RF-SCORE:    0.00 PKD
ROOT
HETATM    1  C   UNL     1      -6.895  10.153  70.750  1.00  0.00     0.095 C  
HETATM    2  O   UNL     1      -6.039  10.553  69.689  1.00  0.00    -0.044 OA 
ENDROOT
BRANCH   2   3
HETATM    3  C   UNL     1      -6.235  11.784  69.129  1.00  0.00    -0.083 A  
HETATM    4  C   UNL     1      -6.738  12.089  67.857  1.00  0.00    -0.080 A  
HETATM    5  C   UNL     1      -5.789  12.827  69.948  1.00  0.00    -0.134 A  
HETATM    6  C   UNL     1      -6.760  13.426  67.436  1.00  0.00    -0.063 A  
HETATM    7  C   UNL     1      -6.179  14.464  68.197  1.00  0.00    -0.142 A  
HETATM    8 BR   UNL     1      -5.234  15.465  70.763  1.00  0.00    -0.132 Br 
HETATM    9  C   UNL     1      -5.781  14.151  69.505  1.00  0.00    -0.097 A  
BRANCH   4  10
HETATM   10  O   UNL     1      -7.216  11.086  67.063  1.00  0.00    -0.107 OA 
HETATM   11  C   UNL     1      -8.161  11.481  66.068  1.00  0.00     0.089 C  
ENDBRANCH   4  10
BRANCH   7  12
HETATM   12  C   UNL     1      -5.882  15.799  67.531  1.00  0.00    -0.097 C  
BRANCH  12  13
HETATM   13  N   UNL     1      -7.115  16.798  67.481  1.00  0.00    -0.139 N  
HETATM   14  O   UNL     1      -7.771  19.691  67.483  1.00  0.00    -0.254 OA 
HETATM   15  C   UNL     1      -7.135  17.700  68.757  1.00  0.00    -0.263 C  
HETATM   16  C   UNL     1      -8.126  18.871  68.597  1.00  0.00    -0.347 C  
HETATM   17  C   UNL     1      -6.865  17.766  66.283  1.00  0.00    -0.272 C  
HETATM   18  C   UNL     1      -7.821  18.960  66.257  1.00  0.00    -0.279 C  
BRANCH  13  19
HETATM   19  C   UNL     1      -8.465  16.016  67.329  1.00  0.00    -0.184 C  
BRANCH  19  20
HETATM   20  C   UNL     1      -8.825  15.802  65.845  1.00  0.00    -0.089 C  
BRANCH  20  21
HETATM   21  O   UNL     1      -9.809  14.798  65.614  1.00  0.00    -0.327 OA 
BRANCH  21  22
HETATM   22  C   UNL     1     -11.159  15.310  65.773  1.00  0.00    -0.301 C  
BRANCH  22  23
HETATM   23  C   UNL     1     -12.169  14.217  66.132  1.00  0.00    -0.465 C  
BRANCH  23  24
HETATM   24  C   UNL     1     -12.386  13.920  67.627  1.00  0.00    -0.069 C  
HETATM   25  C   UNL     1     -11.622  14.997  68.447  1.00  0.00    -0.352 C  
HETATM   26  C   UNL     1     -10.332  14.512  69.124  1.00  0.00    -0.197 C  
HETATM   27  C   UNL     1     -10.319  12.994  69.307  1.00  0.00     0.289 C  
HETATM   28  C   UNL     1     -10.384  12.321  67.905  1.00  0.00    -0.216 C  
HETATM   29  C   UNL     1     -11.928  12.499  68.043  1.00  0.00    -0.281 C  
HETATM   30  C   UNL     1     -11.691  12.262  69.611  1.00  0.00    -0.386 C  
HETATM   31  C   UNL     1     -12.677  12.899  70.594  1.00  0.00    -0.157 C  
HETATM   32  C   UNL     1     -11.491  10.802  70.080  1.00  0.00    -0.415 C  
ENDBRANCH  23  24
ENDBRANCH  22  23
ENDBRANCH  21  22
ENDBRANCH  20  21
ENDBRANCH  19  20
ENDBRANCH  13  19
ENDBRANCH  12  13
ENDBRANCH   7  12
ENDBRANCH   2   3
TORSDOF 10
ENDMDL
MODEL      262
REMARK 921   NORMALIZED FREE ENERGY PREDICTED BY IDOCK:   -2.89 KCAL/MOL
REMARK 922        TOTAL FREE ENERGY PREDICTED BY IDOCK:   -5.85 KCAL/MOL
REMARK 923 INTER-LIGAND FREE ENERGY PREDICTED BY IDOCK:   -5.78 KCAL/MOL
REMARK 924 INTRA-LIGAND FREE ENERGY PREDICTED BY IDOCK:   -0.07 KCAL/MOL
REMARK 927      BINDING AFFINITY PREDICTED BY RF-SCORE:    0.00 PKD
ROOT
HETATM    1  C   UNL     1     -13.108  13.027  64.236  1.00  0.00     0.319 C  
HETATM    2  O   UNL     1     -12.332  12.458  65.281  1.00  0.00    -0.563 OA 
ENDROOT
BRANCH   2   3
HETATM    3  C   UNL     1     -11.704  13.302  66.154  1.00  0.00    -0.374 A  
HETATM    4  C   UNL     1     -10.868  14.389  65.862  1.00  0.00    -0.304 A  
HETATM    5  C   UNL     1     -11.900  12.940  67.492  1.00  0.00    -0.407 A  
HETATM    6  C   UNL     1     -10.237  15.066  66.915  1.00  0.00    -0.258 A  
HETATM    7  C   UNL     1     -10.315  14.616  68.252  1.00  0.00    -0.230 A  
HETATM    8 BR   UNL     1     -11.677  13.053  70.296  1.00  0.00    -0.081 Br 
HETATM    9  C   UNL     1     -11.238  13.598  68.530  1.00  0.00    -0.280 A  
BRANCH   4  10
HETATM   10  O   UNL     1     -10.700  14.780  64.564  1.00  0.00    -0.316 OA 
HETATM   11  C   UNL     1     -11.399  15.965  64.180  1.00  0.00    -0.010 C  
ENDBRANCH   4  10
BRANCH   7  12
HETATM   12  C   UNL     1      -9.314  15.137  69.272  1.00  0.00    -0.207 C  
BRANCH  12  13
HETATM   13  N   UNL     1      -8.258  16.169  68.688  1.00  0.00    -0.190 N  
HETATM   14  O   UNL     1      -6.968  18.773  69.287  1.00  0.00    -0.285 OA 
HETATM   15  C   UNL     1      -8.929  17.563  68.461  1.00  0.00    -0.279 C  
HETATM   16  C   UNL     1      -7.873  18.653  68.189  1.00  0.00    -0.287 C  
HETATM   17  C   UNL     1      -7.184  16.394  69.797  1.00  0.00     0.214 C  
HETATM   18  C   UNL     1      -6.242  17.562  69.502  1.00  0.00    -0.246 C  
BRANCH  13  19
HETATM   19  C   UNL     1      -7.625  15.632  67.359  1.00  0.00    -0.198 C  
BRANCH  19  20
HETATM   20  C   UNL     1      -6.287  14.913  67.626  1.00  0.00    -0.123 C  
BRANCH  20  21
HETATM   21  O   UNL     1      -6.410  13.673  68.315  1.00  0.00    -0.084 OA 
BRANCH  21  22
HETATM   22  C   UNL     1      -6.302  12.535  67.418  1.00  0.00    -0.157 C  
BRANCH  22  23
HETATM   23  C   UNL     1      -7.629  12.188  66.739  1.00  0.00     0.052 C  
BRANCH  23  24
HETATM   24  C   UNL     1      -8.678  11.440  67.583  1.00  0.00    -0.136 C  
HETATM   25  C   UNL     1      -8.055  11.151  68.977  1.00  0.00    -0.078 C  
HETATM   26  C   UNL     1      -7.653   9.690  69.225  1.00  0.00    -0.091 C  
HETATM   27  C   UNL     1      -8.398   8.727  68.301  1.00  0.00    -0.126 C  
HETATM   28  C   UNL     1      -8.030   9.063  66.826  1.00  0.00    -0.107 C  
HETATM   29  C   UNL     1      -9.169  10.124  66.927  1.00  0.00    -0.168 C  
HETATM   30  C   UNL     1      -9.892   9.075  67.901  1.00  0.00    -0.207 C  
HETATM   31  C   UNL     1     -10.844   9.619  68.969  1.00  0.00    -0.206 C  
HETATM   32  C   UNL     1     -10.618   7.883  67.236  1.00  0.00    -0.365 C  
ENDBRANCH  23  24
ENDBRANCH  22  23
ENDBRANCH  21  22
ENDBRANCH  20  21
ENDBRANCH  19  20
ENDBRANCH  13  19
ENDBRANCH  12  13
ENDBRANCH   7  12
ENDBRANCH   2   3
TORSDOF 10
ENDMDL
MODEL      263
REMARK 921   NORMALIZED FREE ENERGY PREDICTED BY IDOCK:   -2.88 KCAL/MOL
REMARK 922        TOTAL FREE ENERGY PREDICTED BY IDOCK:   -5.84 KCAL/MOL
REMARK 923 INTER-LIGAND FREE ENERGY PREDICTED BY IDOCK:   -5.36 KCAL/MOL
REMARK 924 INTRA-LIGAND FREE ENERGY PREDICTED BY IDOCK:   -0.48 KCAL/MOL
REMARK 927      BINDING AFFINITY PREDICTED BY RF-SCORE:    0.00 PKD
ROOT
HETATM    1  C   UNL     1     -10.225   6.543  72.360  1.00  0.00    -0.185 C  
HETATM    2  O   UNL     1      -8.809   6.438  72.327  1.00  0.00    -0.135 OA 
ENDROOT
BRANCH   2   3
HETATM    3  C   UNL     1      -8.225   5.911  71.209  1.00  0.00    -0.123 A  
HETATM    4  C   UNL     1      -7.350   6.536  70.310  1.00  0.00    -0.089 A  
HETATM    5  C   UNL     1      -8.651   4.605  70.942  1.00  0.00    -0.124 A  
HETATM    6  C   UNL     1      -6.944   5.843  69.161  1.00  0.00    -0.064 A  
HETATM    7  C   UNL     1      -7.483   4.585  68.812  1.00  0.00    -0.060 A  
HETATM    8 BR   UNL     1      -8.853   2.139  69.598  1.00  0.00    -0.146 Br 
HETATM    9  C   UNL     1      -8.270   3.938  69.776  1.00  0.00    -0.053 A  
BRANCH   4  10
HETATM   10  O   UNL     1      -6.892   7.794  70.579  1.00  0.00    -0.042 OA 
HETATM   11  C   UNL     1      -6.972   8.727  69.501  1.00  0.00    -0.055 C  
ENDBRANCH   4  10
BRANCH   7  12
HETATM   12  C   UNL     1      -7.314   4.071  67.390  1.00  0.00    -0.068 C  
BRANCH  12  13
HETATM   13  N   UNL     1      -8.319   4.707  66.338  1.00  0.00    -0.107 N  
HETATM   14  O   UNL     1      -9.777   4.073  63.833  1.00  0.00    -0.157 OA 
HETATM   15  C   UNL     1      -7.677   4.719  64.913  1.00  0.00    -0.078 C  
HETATM   16  C   UNL     1      -8.728   5.042  63.831  1.00  0.00    -0.079 C  
HETATM   17  C   UNL     1      -9.542   3.742  66.242  1.00  0.00    -0.162 C  
HETATM   18  C   UNL     1     -10.479   4.065  65.077  1.00  0.00    -0.136 C  
BRANCH  13  19
HETATM   19  C   UNL     1      -8.745   6.151  66.771  1.00  0.00    -0.116 C  
BRANCH  19  20
HETATM   20  C   UNL     1     -10.229   6.197  67.189  1.00  0.00    -0.199 C  
BRANCH  20  21
HETATM   21  O   UNL     1     -10.943   7.332  66.711  1.00  0.00    -0.284 OA 
BRANCH  21  22
HETATM   22  C   UNL     1     -10.175   8.558  66.847  1.00  0.00    -0.305 C  
BRANCH  22  23
HETATM   23  C   UNL     1     -10.605   9.396  68.053  1.00  0.00    -0.278 C  
BRANCH  23  24
HETATM   24  C   UNL     1     -11.169  10.801  67.771  1.00  0.00    -0.385 C  
HETATM   25  C   UNL     1     -11.143  11.029  66.233  1.00  0.00    -0.106 C  
HETATM   26  C   UNL     1     -10.055  11.989  65.731  1.00  0.00    -0.267 C  
HETATM   27  C   UNL     1      -9.562  12.923  66.837  1.00  0.00    -0.240 C  
HETATM   28  C   UNL     1      -8.931  12.065  67.973  1.00  0.00    -0.187 C  
HETATM   29  C   UNL     1     -10.395  11.931  68.497  1.00  0.00    -0.228 C  
HETATM   30  C   UNL     1     -10.605  13.414  67.925  1.00  0.00    -0.253 C  
HETATM   31  C   UNL     1     -12.012  13.824  67.482  1.00  0.00    -0.411 C  
HETATM   32  C   UNL     1     -10.061  14.581  68.781  1.00  0.00    -0.239 C  
ENDBRANCH  23  24
ENDBRANCH  22  23
ENDBRANCH  21  22
ENDBRANCH  20  21
ENDBRANCH  19  20
ENDBRANCH  13  19
ENDBRANCH  12  13
ENDBRANCH   7  12
ENDBRANCH   2   3
TORSDOF 10
ENDMDL
MODEL      264
REMARK 921   NORMALIZED FREE ENERGY PREDICTED BY IDOCK:   -2.87 KCAL/MOL
REMARK 922        TOTAL FREE ENERGY PREDICTED BY IDOCK:   -5.82 KCAL/MOL
REMARK 923 INTER-LIGAND FREE ENERGY PREDICTED BY IDOCK:   -5.00 KCAL/MOL
REMARK 924 INTRA-LIGAND FREE ENERGY PREDICTED BY IDOCK:   -0.82 KCAL/MOL
REMARK 927      BINDING AFFINITY PREDICTED BY RF-SCORE:    0.00 PKD
ROOT
HETATM    1  C   UNL     1      -9.754   7.435  73.652  1.00  0.00    -0.299 C  
HETATM    2  O   UNL     1      -8.377   7.087  73.682  1.00  0.00    -0.116 OA 
ENDROOT
BRANCH   2   3
HETATM    3  C   UNL     1      -7.750   6.824  72.497  1.00  0.00    -0.096 A  
HETATM    4  C   UNL     1      -7.203   7.735  71.583  1.00  0.00    -0.065 A  
HETATM    5  C   UNL     1      -7.751   5.461  72.176  1.00  0.00    -0.101 A  
HETATM    6  C   UNL     1      -6.693   7.257  70.368  1.00  0.00    -0.052 A  
HETATM    7  C   UNL     1      -6.822   5.906  69.977  1.00  0.00    -0.057 A  
HETATM    8 BR   UNL     1      -7.256   3.118  70.696  1.00  0.00    -0.033 Br 
HETATM    9  C   UNL     1      -7.274   5.001  70.948  1.00  0.00    -0.060 A  
BRANCH   4  10
HETATM   10  O   UNL     1      -7.157   9.062  71.900  1.00  0.00    -0.291 OA 
HETATM   11  C   UNL     1      -7.306   9.966  70.805  1.00  0.00     0.145 C  
ENDBRANCH   4  10
BRANCH   7  12
HETATM   12  C   UNL     1      -6.616   5.531  68.517  1.00  0.00    -0.052 C  
BRANCH  12  13
HETATM   13  N   UNL     1      -7.807   5.951  67.556  1.00  0.00    -0.097 N  
HETATM   14  O   UNL     1     -10.131   4.823  66.097  1.00  0.00    -0.213 OA 
HETATM   15  C   UNL     1      -7.711   5.176  66.201  1.00  0.00    -0.091 C  
HETATM   16  C   UNL     1      -9.006   5.329  65.378  1.00  0.00    -0.144 C  
HETATM   17  C   UNL     1      -9.126   5.461  68.230  1.00  0.00    -0.109 C  
HETATM   18  C   UNL     1     -10.346   5.546  67.310  1.00  0.00    -0.236 C  
BRANCH  13  19
HETATM   19  C   UNL     1      -7.813   7.499  67.313  1.00  0.00    -0.118 C  
BRANCH  19  20
HETATM   20  C   UNL     1      -6.552   7.951  66.548  1.00  0.00    -0.054 C  
BRANCH  20  21
HETATM   21  O   UNL     1      -6.673   9.214  65.902  1.00  0.00    -0.077 OA 
BRANCH  21  22
HETATM   22  C   UNL     1      -7.244  10.223  66.778  1.00  0.00    -0.105 C  
BRANCH  22  23
HETATM   23  C   UNL     1      -8.388  11.001  66.122  1.00  0.00    -0.163 C  
BRANCH  23  24
HETATM   24  C   UNL     1      -9.444  11.623  67.053  1.00  0.00    -0.191 C  
HETATM   25  C   UNL     1     -10.849  11.208  66.531  1.00  0.00    -0.302 C  
HETATM   26  C   UNL     1     -11.643  12.319  65.831  1.00  0.00    -0.450 C  
HETATM   27  C   UNL     1     -11.153  13.711  66.232  1.00  0.00    -0.304 C  
HETATM   28  C   UNL     1      -9.666  13.863  65.798  1.00  0.00    -0.190 C  
HETATM   29  C   UNL     1      -9.341  13.166  67.155  1.00  0.00    -0.235 C  
HETATM   30  C   UNL     1     -10.637  13.927  67.715  1.00  0.00    -0.248 C  
HETATM   31  C   UNL     1     -11.405  13.287  68.875  1.00  0.00    -0.333 C  
HETATM   32  C   UNL     1     -10.475  15.422  68.073  1.00  0.00    -0.257 C  
ENDBRANCH  23  24
ENDBRANCH  22  23
ENDBRANCH  21  22
ENDBRANCH  20  21
ENDBRANCH  19  20
ENDBRANCH  13  19
ENDBRANCH  12  13
ENDBRANCH   7  12
ENDBRANCH   2   3
TORSDOF 10
ENDMDL
MODEL      265
REMARK 921   NORMALIZED FREE ENERGY PREDICTED BY IDOCK:   -2.83 KCAL/MOL
REMARK 922        TOTAL FREE ENERGY PREDICTED BY IDOCK:   -5.76 KCAL/MOL
REMARK 923 INTER-LIGAND FREE ENERGY PREDICTED BY IDOCK:   -3.96 KCAL/MOL
REMARK 924 INTRA-LIGAND FREE ENERGY PREDICTED BY IDOCK:   -1.81 KCAL/MOL
REMARK 927      BINDING AFFINITY PREDICTED BY RF-SCORE:    0.00 PKD
ROOT
HETATM    1  C   UNL     1      -8.470   6.719  74.558  1.00  0.00    -0.163 C  
HETATM    2  O   UNL     1      -7.184   6.872  73.976  1.00  0.00    -0.091 OA 
ENDROOT
BRANCH   2   3
HETATM    3  C   UNL     1      -6.985   6.396  72.710  1.00  0.00    -0.074 A  
HETATM    4  C   UNL     1      -6.585   5.111  72.319  1.00  0.00    -0.048 A  
HETATM    5  C   UNL     1      -7.145   7.383  71.731  1.00  0.00    -0.063 A  
HETATM    6  C   UNL     1      -6.338   4.858  70.962  1.00  0.00    -0.019 A  
HETATM    7  C   UNL     1      -6.356   5.883  69.990  1.00  0.00    -0.028 A  
HETATM    8 BR   UNL     1      -7.213   8.540  69.165  1.00  0.00    -0.069 Br 
HETATM    9  C   UNL     1      -6.860   7.130  70.387  1.00  0.00    -0.057 A  
BRANCH   4  10
HETATM   10  O   UNL     1      -6.466   4.127  73.258  1.00  0.00    -0.037 OA 
HETATM   11  C   UNL     1      -7.325   2.999  73.086  1.00  0.00    -0.046 C  
ENDBRANCH   4  10
BRANCH   7  12
HETATM   12  C   UNL     1      -5.705   5.637  68.638  1.00  0.00    -0.018 C  
BRANCH  12  13
HETATM   13  N   UNL     1      -6.335   4.434  67.814  1.00  0.00    -0.036 N  
HETATM   14  O   UNL     1      -5.573   2.052  66.220  1.00  0.00    -0.012 OA 
HETATM   15  C   UNL     1      -5.851   4.481  66.328  1.00  0.00    -0.023 C  
HETATM   16  C   UNL     1      -6.194   3.172  65.589  1.00  0.00    -0.024 C  
HETATM   17  C   UNL     1      -5.743   3.120  68.410  1.00  0.00    -0.022 C  
HETATM   18  C   UNL     1      -6.036   1.882  67.560  1.00  0.00    -0.020 C  
BRANCH  13  19
HETATM   19  C   UNL     1      -7.900   4.460  67.892  1.00  0.00    -0.080 C  
BRANCH  19  20
HETATM   20  C   UNL     1      -8.486   5.603  67.038  1.00  0.00    -0.110 C  
BRANCH  20  21
HETATM   21  O   UNL     1      -9.810   5.371  66.568  1.00  0.00    -0.151 OA 
BRANCH  21  22
HETATM   22  C   UNL     1     -10.752   6.348  67.088  1.00  0.00    -0.361 C  
BRANCH  22  23
HETATM   23  C   UNL     1     -11.266   5.991  68.485  1.00  0.00    -0.147 C  
BRANCH  23  24
HETATM   24  C   UNL     1     -10.776   6.857  69.660  1.00  0.00    -0.276 C  
HETATM   25  C   UNL     1     -10.229   5.906  70.762  1.00  0.00    -0.268 C  
HETATM   26  C   UNL     1     -11.126   5.751  71.998  1.00  0.00    -0.318 C  
HETATM   27  C   UNL     1     -12.095   6.924  72.152  1.00  0.00    -0.278 C  
HETATM   28  C   UNL     1     -13.029   6.969  70.907  1.00  0.00    -0.115 C  
HETATM   29  C   UNL     1     -11.875   7.782  70.242  1.00  0.00     0.115 C  
HETATM   30  C   UNL     1     -11.605   8.365  71.711  1.00  0.00    -0.372 C  
HETATM   31  C   UNL     1     -10.183   8.811  72.060  1.00  0.00    -0.401 C  
HETATM   32  C   UNL     1     -12.547   9.487  72.207  1.00  0.00    -0.344 C  
ENDBRANCH  23  24
ENDBRANCH  22  23
ENDBRANCH  21  22
ENDBRANCH  20  21
ENDBRANCH  19  20
ENDBRANCH  13  19
ENDBRANCH  12  13
ENDBRANCH   7  12
ENDBRANCH   2   3
TORSDOF 10
ENDMDL
MODEL      266
REMARK 921   NORMALIZED FREE ENERGY PREDICTED BY IDOCK:   -2.82 KCAL/MOL
REMARK 922        TOTAL FREE ENERGY PREDICTED BY IDOCK:   -5.74 KCAL/MOL
REMARK 923 INTER-LIGAND FREE ENERGY PREDICTED BY IDOCK:   -5.17 KCAL/MOL
REMARK 924 INTRA-LIGAND FREE ENERGY PREDICTED BY IDOCK:   -0.57 KCAL/MOL
REMARK 927      BINDING AFFINITY PREDICTED BY RF-SCORE:    0.00 PKD
ROOT
HETATM    1  C   UNL     1      -5.642  16.727  70.909  1.00  0.00     0.104 C  
HETATM    2  O   UNL     1      -5.791  16.881  69.505  1.00  0.00    -0.174 OA 
ENDROOT
BRANCH   2   3
HETATM    3  C   UNL     1      -6.947  16.438  68.925  1.00  0.00    -0.186 A  
HETATM    4  C   UNL     1      -8.117  17.161  68.656  1.00  0.00    -0.264 A  
HETATM    5  C   UNL     1      -6.924  15.064  68.656  1.00  0.00    -0.110 A  
HETATM    6  C   UNL     1      -9.234  16.486  68.146  1.00  0.00    -0.217 A  
HETATM    7  C   UNL     1      -9.265  15.080  68.010  1.00  0.00    -0.183 A  
HETATM    8 BR   UNL     1      -7.841  12.551  67.778  1.00  0.00    -0.166 Br 
HETATM    9  C   UNL     1      -8.054  14.395  68.183  1.00  0.00    -0.137 A  
BRANCH   4  10
HETATM   10  O   UNL     1      -8.140  18.509  68.873  1.00  0.00    -0.287 OA 
HETATM   11  C   UNL     1      -7.563  19.313  67.844  1.00  0.00    -0.276 C  
ENDBRANCH   4  10
BRANCH   7  12
HETATM   12  C   UNL     1     -10.604  14.379  67.835  1.00  0.00    -0.240 C  
BRANCH  12  13
HETATM   13  N   UNL     1     -11.475  14.288  69.160  1.00  0.00    -0.273 N  
HETATM   14  O   UNL     1     -12.491  15.950  71.398  1.00  0.00    -0.433 OA 
HETATM   15  C   UNL     1     -10.626  14.719  70.400  1.00  0.00     0.158 C  
HETATM   16  C   UNL     1     -11.517  14.934  71.639  1.00  0.00    -0.222 C  
HETATM   17  C   UNL     1     -12.606  15.356  69.031  1.00  0.00     0.316 C  
HETATM   18  C   UNL     1     -13.373  15.588  70.334  1.00  0.00     0.118 C  
BRANCH  13  19
HETATM   19  C   UNL     1     -12.052  12.844  69.354  1.00  0.00    -0.198 C  
BRANCH  19  20
HETATM   20  C   UNL     1     -10.959  11.862  69.823  1.00  0.00     0.161 C  
BRANCH  20  21
HETATM   21  O   UNL     1     -11.454  10.654  70.391  1.00  0.00    -0.306 OA 
BRANCH  21  22
HETATM   22  C   UNL     1     -10.503   9.562  70.267  1.00  0.00    -0.268 C  
BRANCH  22  23
HETATM   23  C   UNL     1     -10.363   8.749  71.556  1.00  0.00    -0.374 C  
BRANCH  23  24
HETATM   24  C   UNL     1      -9.404   7.544  71.530  1.00  0.00    -0.154 C  
HETATM   25  C   UNL     1      -9.509   6.877  70.129  1.00  0.00    -0.162 C  
HETATM   26  C   UNL     1     -10.270   5.545  70.093  1.00  0.00    -0.333 C  
HETATM   27  C   UNL     1     -10.318   4.877  71.468  1.00  0.00    -0.228 C  
HETATM   28  C   UNL     1     -11.077   5.814  72.453  1.00  0.00    -0.332 C  
HETATM   29  C   UNL     1      -9.692   6.506  72.645  1.00  0.00    -0.168 C  
HETATM   30  C   UNL     1      -9.069   5.044  72.429  1.00  0.00    -0.146 C  
HETATM   31  C   UNL     1      -7.657   4.940  71.845  1.00  0.00    -0.097 C  
HETATM   32  C   UNL     1      -9.115   4.075  73.632  1.00  0.00    -0.095 C  
ENDBRANCH  23  24
ENDBRANCH  22  23
ENDBRANCH  21  22
ENDBRANCH  20  21
ENDBRANCH  19  20
ENDBRANCH  13  19
ENDBRANCH  12  13
ENDBRANCH   7  12
ENDBRANCH   2   3
TORSDOF 10
ENDMDL
MODEL      267
REMARK 921   NORMALIZED FREE ENERGY PREDICTED BY IDOCK:   -2.79 KCAL/MOL
REMARK 922        TOTAL FREE ENERGY PREDICTED BY IDOCK:   -5.70 KCAL/MOL
REMARK 923 INTER-LIGAND FREE ENERGY PREDICTED BY IDOCK:   -4.90 KCAL/MOL
REMARK 924 INTRA-LIGAND FREE ENERGY PREDICTED BY IDOCK:   -0.80 KCAL/MOL
REMARK 927      BINDING AFFINITY PREDICTED BY RF-SCORE:    0.00 PKD
ROOT
HETATM    1  C   UNL     1     -11.199   4.603  73.396  1.00  0.00    -0.338 C  
HETATM    2  O   UNL     1     -10.295   5.600  72.941  1.00  0.00    -0.180 OA 
ENDROOT
BRANCH   2   3
HETATM    3  C   UNL     1     -10.529   6.181  71.726  1.00  0.00    -0.216 A  
HETATM    4  C   UNL     1     -10.322   5.639  70.450  1.00  0.00    -0.260 A  
HETATM    5  C   UNL     1     -10.958   7.508  71.837  1.00  0.00    -0.272 A  
HETATM    6  C   UNL     1     -10.531   6.448  69.325  1.00  0.00    -0.277 A  
HETATM    7  C   UNL     1     -10.822   7.826  69.432  1.00  0.00    -0.121 A  
HETATM    8 BR   UNL     1     -11.802  10.066  71.014  1.00  0.00    -0.500 Br 
HETATM    9  C   UNL     1     -11.127   8.316  70.710  1.00  0.00    -0.258 A  
BRANCH   4  10
HETATM   10  O   UNL     1      -9.945   4.333  70.326  1.00  0.00    -0.210 OA 
HETATM   11  C   UNL     1      -9.167   4.020  69.170  1.00  0.00    -0.152 C  
ENDBRANCH   4  10
BRANCH   7  12
HETATM   12  C   UNL     1     -10.648   8.720  68.214  1.00  0.00    -0.142 C  
BRANCH  12  13
HETATM   13  N   UNL     1      -9.211   9.385  68.087  1.00  0.00    -0.130 N  
HETATM   14  O   UNL     1      -7.822  11.719  66.894  1.00  0.00    -0.160 OA 
HETATM   15  C   UNL     1      -8.795   9.494  66.584  1.00  0.00    -0.135 C  
HETATM   16  C   UNL     1      -7.559  10.400  66.413  1.00  0.00    -0.123 C  
HETATM   17  C   UNL     1      -9.346  10.854  68.595  1.00  0.00    -0.187 C  
HETATM   18  C   UNL     1      -8.121  11.717  68.290  1.00  0.00    -0.150 C  
BRANCH  13  19
HETATM   19  C   UNL     1      -8.145   8.578  68.904  1.00  0.00    -0.119 C  
BRANCH  19  20
HETATM   20  C   UNL     1      -7.553   7.425  68.068  1.00  0.00    -0.114 C  
BRANCH  20  21
HETATM   21  O   UNL     1      -6.138   7.296  68.157  1.00  0.00    -0.029 OA 
BRANCH  21  22
HETATM   22  C   UNL     1      -5.687   5.963  67.793  1.00  0.00    -0.012 C  
BRANCH  22  23
HETATM   23  C   UNL     1      -5.478   5.799  66.286  1.00  0.00    -0.013 C  
BRANCH  23  24
HETATM   24  C   UNL     1      -6.231   4.651  65.589  1.00  0.00    -0.031 C  
HETATM   25  C   UNL     1      -5.752   4.588  64.112  1.00  0.00    -0.014 C  
HETATM   26  C   UNL     1      -6.755   5.111  63.074  1.00  0.00    -0.026 C  
HETATM   27  C   UNL     1      -8.188   5.099  63.608  1.00  0.00    -0.118 C  
HETATM   28  C   UNL     1      -8.269   6.042  64.844  1.00  0.00    -0.130 C  
HETATM   29  C   UNL     1      -7.773   4.802  65.650  1.00  0.00    -0.090 C  
HETATM   30  C   UNL     1      -8.612   3.934  64.595  1.00  0.00    -0.110 C  
HETATM   31  C   UNL     1      -8.148   2.503  64.307  1.00  0.00    -0.082 C  
HETATM   32  C   UNL     1     -10.142   3.862  64.802  1.00  0.00    -0.203 C  
ENDBRANCH  23  24
ENDBRANCH  22  23
ENDBRANCH  21  22
ENDBRANCH  20  21
ENDBRANCH  19  20
ENDBRANCH  13  19
ENDBRANCH  12  13
ENDBRANCH   7  12
ENDBRANCH   2   3
TORSDOF 10
ENDMDL
MODEL      268
REMARK 921   NORMALIZED FREE ENERGY PREDICTED BY IDOCK:   -2.79 KCAL/MOL
REMARK 922        TOTAL FREE ENERGY PREDICTED BY IDOCK:   -5.70 KCAL/MOL
REMARK 923 INTER-LIGAND FREE ENERGY PREDICTED BY IDOCK:   -5.44 KCAL/MOL
REMARK 924 INTRA-LIGAND FREE ENERGY PREDICTED BY IDOCK:   -0.26 KCAL/MOL
REMARK 927      BINDING AFFINITY PREDICTED BY RF-SCORE:    0.00 PKD
ROOT
HETATM    1  C   UNL     1     -13.003  13.677  65.106  1.00  0.00    -0.221 C  
HETATM    2  O   UNL     1     -12.284  14.458  66.050  1.00  0.00    -0.394 OA 
ENDROOT
BRANCH   2   3
HETATM    3  C   UNL     1     -11.284  13.856  66.761  1.00  0.00    -0.318 A  
HETATM    4  C   UNL     1      -9.900  14.049  66.646  1.00  0.00    -0.284 A  
HETATM    5  C   UNL     1     -11.761  12.883  67.646  1.00  0.00    -0.422 A  
HETATM    6  C   UNL     1      -9.036  13.248  67.405  1.00  0.00    -0.215 A  
HETATM    7  C   UNL     1      -9.504  12.169  68.188  1.00  0.00    -0.205 A  
HETATM    8 BR   UNL     1     -11.686  10.855  69.598  1.00  0.00    -0.440 Br 
HETATM    9  C   UNL     1     -10.890  12.066  68.369  1.00  0.00    -0.233 A  
BRANCH   4  10
HETATM   10  O   UNL     1      -9.422  15.023  65.818  1.00  0.00    -0.319 OA 
HETATM   11  C   UNL     1      -8.488  15.931  66.404  1.00  0.00    -0.313 C  
ENDBRANCH   4  10
BRANCH   7  12
HETATM   12  C   UNL     1      -8.518  11.111  68.661  1.00  0.00    -0.153 C  
BRANCH  12  13
HETATM   13  N   UNL     1      -8.128  10.037  67.558  1.00  0.00    -0.110 N  
HETATM   14  O   UNL     1      -5.905   9.249  65.759  1.00  0.00    -0.052 OA 
HETATM   15  C   UNL     1      -7.789  10.746  66.206  1.00  0.00    -0.156 C  
HETATM   16  C   UNL     1      -7.120   9.770  65.218  1.00  0.00    -0.119 C  
HETATM   17  C   UNL     1      -6.799   9.369  68.029  1.00  0.00    -0.074 C  
HETATM   18  C   UNL     1      -6.141   8.502  66.953  1.00  0.00    -0.054 C  
BRANCH  13  19
HETATM   19  C   UNL     1      -9.276   8.988  67.366  1.00  0.00    -0.138 C  
BRANCH  19  20
HETATM   20  C   UNL     1      -9.073   7.762  68.280  1.00  0.00    -0.130 C  
BRANCH  20  21
HETATM   21  O   UNL     1     -10.152   6.832  68.269  1.00  0.00    -0.148 OA 
BRANCH  21  22
HETATM   22  C   UNL     1      -9.698   5.466  68.465  1.00  0.00    -0.137 C  
BRANCH  22  23
HETATM   23  C   UNL     1      -8.230   5.268  68.079  1.00  0.00    -0.098 C  
BRANCH  23  24
HETATM   24  C   UNL     1      -7.881   5.317  66.581  1.00  0.00    -0.100 C  
HETATM   25  C   UNL     1      -9.173   4.996  65.776  1.00  0.00    -0.159 C  
HETATM   26  C   UNL     1      -9.217   3.602  65.135  1.00  0.00    -0.150 C  
HETATM   27  C   UNL     1      -7.818   3.009  64.960  1.00  0.00    -0.082 C  
HETATM   28  C   UNL     1      -7.162   2.851  66.363  1.00  0.00    -0.066 C  
HETATM   29  C   UNL     1      -6.743   4.343  66.183  1.00  0.00    -0.050 C  
HETATM   30  C   UNL     1      -6.623   3.993  64.623  1.00  0.00    -0.043 C  
HETATM   31  C   UNL     1      -6.844   5.121  63.611  1.00  0.00    -0.046 C  
HETATM   32  C   UNL     1      -5.351   3.242  64.166  1.00  0.00    -0.009 C  
ENDBRANCH  23  24
ENDBRANCH  22  23
ENDBRANCH  21  22
ENDBRANCH  20  21
ENDBRANCH  19  20
ENDBRANCH  13  19
ENDBRANCH  12  13
ENDBRANCH   7  12
ENDBRANCH   2   3
TORSDOF 10
ENDMDL
MODEL      269
REMARK 921   NORMALIZED FREE ENERGY PREDICTED BY IDOCK:   -2.78 KCAL/MOL
REMARK 922        TOTAL FREE ENERGY PREDICTED BY IDOCK:   -5.68 KCAL/MOL
REMARK 923 INTER-LIGAND FREE ENERGY PREDICTED BY IDOCK:   -4.89 KCAL/MOL
REMARK 924 INTRA-LIGAND FREE ENERGY PREDICTED BY IDOCK:   -0.78 KCAL/MOL
REMARK 927      BINDING AFFINITY PREDICTED BY RF-SCORE:    0.00 PKD
ROOT
HETATM    1  C   UNL     1      -8.430   9.732  63.573  1.00  0.00    -0.184 C  
HETATM    2  O   UNL     1      -7.494  10.240  64.513  1.00  0.00    -0.143 OA 
ENDROOT
BRANCH   2   3
HETATM    3  C   UNL     1      -7.960  10.674  65.722  1.00  0.00    -0.152 A  
HETATM    4  C   UNL     1      -7.343  10.577  66.977  1.00  0.00    -0.099 A  
HETATM    5  C   UNL     1      -9.252  11.208  65.642  1.00  0.00    -0.238 A  
HETATM    6  C   UNL     1      -8.045  10.997  68.115  1.00  0.00    -0.122 A  
HETATM    7  C   UNL     1      -9.398  11.399  68.059  1.00  0.00    -0.171 A  
HETATM    8 BR   UNL     1     -11.660  12.380  66.510  1.00  0.00    -0.441 Br 
HETATM    9  C   UNL     1      -9.956  11.588  66.786  1.00  0.00    -0.208 A  
BRANCH   4  10
HETATM   10  O   UNL     1      -6.068  10.098  67.065  1.00  0.00    -0.054 OA 
HETATM   11  C   UNL     1      -5.289  10.605  68.150  1.00  0.00    -0.036 C  
ENDBRANCH   4  10
BRANCH   7  12
HETATM   12  C   UNL     1     -10.210  11.460  69.344  1.00  0.00     0.116 C  
BRANCH  12  13
HETATM   13  N   UNL     1     -10.653  10.043  69.909  1.00  0.00    -0.263 N  
HETATM   14  O   UNL     1     -11.106   8.590  72.455  1.00  0.00    -0.355 OA 
HETATM   15  C   UNL     1      -9.518   9.433  70.795  1.00  0.00    -0.241 C  
HETATM   16  C   UNL     1     -10.028   8.219  71.596  1.00  0.00    -0.212 C  
HETATM   17  C   UNL     1     -11.851  10.297  70.875  1.00  0.00    -0.377 C  
HETATM   18  C   UNL     1     -12.226   9.072  71.712  1.00  0.00    -0.364 C  
BRANCH  13  19
HETATM   19  C   UNL     1     -11.035   9.069  68.743  1.00  0.00     0.072 C  
BRANCH  19  20
HETATM   20  C   UNL     1     -10.112   7.833  68.721  1.00  0.00    -0.196 C  
BRANCH  20  21
HETATM   21  O   UNL     1      -9.146   7.836  67.675  1.00  0.00    -0.133 OA 
BRANCH  21  22
HETATM   22  C   UNL     1      -9.690   7.325  66.428  1.00  0.00    -0.079 C  
BRANCH  22  23
HETATM   23  C   UNL     1      -8.634   6.638  65.558  1.00  0.00    -0.101 C  
BRANCH  23  24
HETATM   24  C   UNL     1      -7.952   5.384  66.135  1.00  0.00    -0.105 C  
HETATM   25  C   UNL     1      -7.265   4.628  64.963  1.00  0.00    -0.067 C  
HETATM   26  C   UNL     1      -7.966   3.339  64.513  1.00  0.00    -0.082 C  
HETATM   27  C   UNL     1      -8.875   2.772  65.604  1.00  0.00    -0.133 C  
HETATM   28  C   UNL     1      -9.986   3.815  65.922  1.00  0.00    -0.020 C  
HETATM   29  C   UNL     1      -8.930   4.442  66.884  1.00  0.00    -0.122 C  
HETATM   30  C   UNL     1      -8.427   2.937  67.115  1.00  0.00    -0.104 C  
HETATM   31  C   UNL     1      -6.959   2.716  67.488  1.00  0.00    -0.048 C  
HETATM   32  C   UNL     1      -9.258   2.058  68.077  1.00  0.00    -0.235 C  
ENDBRANCH  23  24
ENDBRANCH  22  23
ENDBRANCH  21  22
ENDBRANCH  20  21
ENDBRANCH  19  20
ENDBRANCH  13  19
ENDBRANCH  12  13
ENDBRANCH   7  12
ENDBRANCH   2   3
TORSDOF 10
ENDMDL
MODEL      270
REMARK 921   NORMALIZED FREE ENERGY PREDICTED BY IDOCK:   -2.76 KCAL/MOL
REMARK 922        TOTAL FREE ENERGY PREDICTED BY IDOCK:   -5.64 KCAL/MOL
REMARK 923 INTER-LIGAND FREE ENERGY PREDICTED BY IDOCK:   -5.32 KCAL/MOL
REMARK 924 INTRA-LIGAND FREE ENERGY PREDICTED BY IDOCK:   -0.32 KCAL/MOL
REMARK 927      BINDING AFFINITY PREDICTED BY RF-SCORE:    0.00 PKD
ROOT
HETATM    1  C   UNL     1      -7.047  11.992  66.840  1.00  0.00    -0.033 C  
HETATM    2  O   UNL     1      -8.224  12.160  67.616  1.00  0.00    -0.143 OA 
ENDROOT
BRANCH   2   3
HETATM    3  C   UNL     1      -8.554  11.181  68.511  1.00  0.00    -0.157 A  
HETATM    4  C   UNL     1      -9.832  10.757  68.902  1.00  0.00    -0.199 A  
HETATM    5  C   UNL     1      -7.434  10.620  69.135  1.00  0.00    -0.123 A  
HETATM    6  C   UNL     1      -9.950   9.801  69.920  1.00  0.00    -0.282 A  
HETATM    7  C   UNL     1      -8.833   9.339  70.652  1.00  0.00    -0.287 A  
HETATM    8 BR   UNL     1      -5.955   8.954  70.857  1.00  0.00    -0.047 Br 
HETATM    9  C   UNL     1      -7.565   9.695  70.173  1.00  0.00    -0.158 A  
BRANCH   4  10
HETATM   10  O   UNL     1     -10.932  11.265  68.273  1.00  0.00    -0.192 OA 
HETATM   11  C   UNL     1     -12.064  11.513  69.108  1.00  0.00    -0.263 C  
ENDBRANCH   4  10
BRANCH   7  12
HETATM   12  C   UNL     1      -9.056   8.624  71.976  1.00  0.00    -0.241 C  
BRANCH  12  13
HETATM   13  N   UNL     1     -10.520   8.042  72.171  1.00  0.00    -0.244 N  
HETATM   14  O   UNL     1     -13.211   8.039  70.920  1.00  0.00     0.019 OA 
HETATM   15  C   UNL     1     -11.556   9.207  72.294  1.00  0.00    -0.079 C  
HETATM   16  C   UNL     1     -13.001   8.683  72.177  1.00  0.00    -0.387 C  
HETATM   17  C   UNL     1     -10.887   7.290  70.854  1.00  0.00    -0.243 C  
HETATM   18  C   UNL     1     -12.363   6.899  70.768  1.00  0.00    -0.262 C  
BRANCH  13  19
HETATM   19  C   UNL     1     -10.589   7.101  73.422  1.00  0.00    -0.382 C  
BRANCH  19  20
HETATM   20  C   UNL     1     -10.064   5.688  73.090  1.00  0.00    -0.181 C  
BRANCH  20  21
HETATM   21  O   UNL     1      -8.663   5.519  73.279  1.00  0.00    -0.117 OA 
BRANCH  21  22
HETATM   22  C   UNL     1      -8.047   4.795  72.180  1.00  0.00    -0.107 C  
BRANCH  22  23
HETATM   23  C   UNL     1      -7.566   5.717  71.057  1.00  0.00    -0.096 C  
BRANCH  23  24
HETATM   24  C   UNL     1      -7.525   5.133  69.633  1.00  0.00    -0.061 C  
HETATM   25  C   UNL     1      -8.032   6.226  68.651  1.00  0.00    -0.105 C  
HETATM   26  C   UNL     1      -9.442   5.997  68.087  1.00  0.00    -0.115 C  
HETATM   27  C   UNL     1      -9.860   4.529  68.171  1.00  0.00    -0.152 C  
HETATM   28  C   UNL     1      -9.886   4.100  69.667  1.00  0.00    -0.208 C  
HETATM   29  C   UNL     1      -8.360   3.837  69.477  1.00  0.00    -0.079 C  
HETATM   30  C   UNL     1      -8.745   3.418  67.977  1.00  0.00    -0.133 C  
HETATM   31  C   UNL     1      -7.689   3.601  66.884  1.00  0.00    -0.080 C  
HETATM   32  C   UNL     1      -9.345   2.009  67.772  1.00  0.00    -0.187 C  
ENDBRANCH  23  24
ENDBRANCH  22  23
ENDBRANCH  21  22
ENDBRANCH  20  21
ENDBRANCH  19  20
ENDBRANCH  13  19
ENDBRANCH  12  13
ENDBRANCH   7  12
ENDBRANCH   2   3
TORSDOF 10
ENDMDL
MODEL      271
REMARK 921   NORMALIZED FREE ENERGY PREDICTED BY IDOCK:   -2.75 KCAL/MOL
REMARK 922        TOTAL FREE ENERGY PREDICTED BY IDOCK:   -5.63 KCAL/MOL
REMARK 923 INTER-LIGAND FREE ENERGY PREDICTED BY IDOCK:   -4.59 KCAL/MOL
REMARK 924 INTRA-LIGAND FREE ENERGY PREDICTED BY IDOCK:   -1.04 KCAL/MOL
REMARK 927      BINDING AFFINITY PREDICTED BY RF-SCORE:    0.00 PKD
ROOT
HETATM    1  C   UNL     1     -11.870  12.984  68.624  1.00  0.00    -0.318 C  
HETATM    2  O   UNL     1     -10.565  13.234  68.124  1.00  0.00    -0.235 OA 
ENDROOT
BRANCH   2   3
HETATM    3  C   UNL     1      -9.613  12.266  68.285  1.00  0.00    -0.212 A  
HETATM    4  C   UNL     1      -8.342  12.193  67.700  1.00  0.00    -0.163 A  
HETATM    5  C   UNL     1     -10.051  11.207  69.088  1.00  0.00    -0.134 A  
HETATM    6  C   UNL     1      -7.556  11.053  67.918  1.00  0.00    -0.095 A  
HETATM    7  C   UNL     1      -8.048   9.921  68.605  1.00  0.00    -0.099 A  
HETATM    8 BR   UNL     1      -9.964   8.749  70.458  1.00  0.00    -0.246 Br 
HETATM    9  C   UNL     1      -9.276  10.060  69.269  1.00  0.00    -0.203 A  
BRANCH   4  10
HETATM   10  O   UNL     1      -7.884  13.238  66.949  1.00  0.00    -0.004 OA 
HETATM   11  C   UNL     1      -7.273  14.303  67.677  1.00  0.00    -0.183 C  
ENDBRANCH   4  10
BRANCH   7  12
HETATM   12  C   UNL     1      -7.317   8.593  68.471  1.00  0.00    -0.085 C  
BRANCH  12  13
HETATM   13  N   UNL     1      -7.315   7.990  67.002  1.00  0.00    -0.089 N  
HETATM   14  O   UNL     1      -5.502   6.809  64.972  1.00  0.00    -0.025 OA 
HETATM   15  C   UNL     1      -6.362   8.817  66.077  1.00  0.00    -0.057 C  
HETATM   16  C   UNL     1      -6.105   8.084  64.746  1.00  0.00    -0.048 C  
HETATM   17  C   UNL     1      -6.680   6.568  67.098  1.00  0.00    -0.060 C  
HETATM   18  C   UNL     1      -6.355   5.955  65.735  1.00  0.00    -0.042 C  
BRANCH  13  19
HETATM   19  C   UNL     1      -8.765   7.946  66.411  1.00  0.00    -0.153 C  
BRANCH  19  20
HETATM   20  C   UNL     1      -9.492   6.643  66.805  1.00  0.00    -0.160 C  
BRANCH  20  21
HETATM   21  O   UNL     1     -10.695   6.837  67.540  1.00  0.00    -0.239 OA 
BRANCH  21  22
HETATM   22  C   UNL     1     -10.948   5.749  68.470  1.00  0.00    -0.098 C  
BRANCH  22  23
HETATM   23  C   UNL     1      -9.662   5.118  69.009  1.00  0.00    -0.227 C  
BRANCH  23  24
HETATM   24  C   UNL     1      -9.230   5.508  70.435  1.00  0.00    -0.182 C  
HETATM   25  C   UNL     1      -7.778   4.996  70.653  1.00  0.00    -0.074 C  
HETATM   26  C   UNL     1      -7.646   3.768  71.565  1.00  0.00    -0.056 C  
HETATM   27  C   UNL     1      -8.858   3.605  72.483  1.00  0.00    -0.110 C  
HETATM   28  C   UNL     1     -10.126   3.393  71.605  1.00  0.00    -0.104 C  
HETATM   29  C   UNL     1     -10.169   4.951  71.535  1.00  0.00    -0.264 C  
HETATM   30  C   UNL     1      -9.573   4.913  73.023  1.00  0.00    -0.155 C  
HETATM   31  C   UNL     1      -8.718   6.094  73.489  1.00  0.00    -0.125 C  
HETATM   32  C   UNL     1     -10.564   4.613  74.171  1.00  0.00    -0.348 C  
ENDBRANCH  23  24
ENDBRANCH  22  23
ENDBRANCH  21  22
ENDBRANCH  20  21
ENDBRANCH  19  20
ENDBRANCH  13  19
ENDBRANCH  12  13
ENDBRANCH   7  12
ENDBRANCH   2   3
TORSDOF 10
ENDMDL
MODEL      272
REMARK 921   NORMALIZED FREE ENERGY PREDICTED BY IDOCK:   -2.73 KCAL/MOL
REMARK 922        TOTAL FREE ENERGY PREDICTED BY IDOCK:   -5.60 KCAL/MOL
REMARK 923 INTER-LIGAND FREE ENERGY PREDICTED BY IDOCK:   -5.84 KCAL/MOL
REMARK 924 INTRA-LIGAND FREE ENERGY PREDICTED BY IDOCK:    0.24 KCAL/MOL
REMARK 927      BINDING AFFINITY PREDICTED BY RF-SCORE:    0.00 PKD
ROOT
HETATM    1  C   UNL     1     -11.655   6.382  70.291  1.00  0.00    -0.383 C  
HETATM    2  O   UNL     1     -10.531   5.538  70.495  1.00  0.00    -0.250 OA 
ENDROOT
BRANCH   2   3
HETATM    3  C   UNL     1      -9.348   5.881  69.902  1.00  0.00    -0.150 A  
HETATM    4  C   UNL     1      -8.444   6.883  70.282  1.00  0.00    -0.139 A  
HETATM    5  C   UNL     1      -9.100   5.154  68.732  1.00  0.00    -0.140 A  
HETATM    6  C   UNL     1      -7.332   7.141  69.470  1.00  0.00    -0.089 A  
HETATM    7  C   UNL     1      -7.153   6.513  68.217  1.00  0.00    -0.083 A  
HETATM    8 BR   UNL     1      -7.752   4.312  66.408  1.00  0.00    -0.094 Br 
HETATM    9  C   UNL     1      -8.008   5.444  67.911  1.00  0.00    -0.096 A  
BRANCH   4  10
HETATM   10  O   UNL     1      -8.651   7.571  71.443  1.00  0.00    -0.118 OA 
HETATM   11  C   UNL     1      -7.646   8.526  71.785  1.00  0.00    -0.114 C  
ENDBRANCH   4  10
BRANCH   7  12
HETATM   12  C   UNL     1      -6.168   7.106  67.221  1.00  0.00    -0.045 C  
BRANCH  12  13
HETATM   13  N   UNL     1      -6.782   8.228  66.280  1.00  0.00    -0.057 N  
HETATM   14  O   UNL     1      -6.456   9.450  63.596  1.00  0.00    -0.090 OA 
HETATM   15  C   UNL     1      -5.690   9.287  65.915  1.00  0.00    -0.049 C  
HETATM   16  C   UNL     1      -6.166  10.206  64.772  1.00  0.00    -0.130 C  
HETATM   17  C   UNL     1      -7.160   7.533  64.935  1.00  0.00    -0.060 C  
HETATM   18  C   UNL     1      -7.515   8.519  63.821  1.00  0.00    -0.118 C  
BRANCH  13  19
HETATM   19  C   UNL     1      -8.019   8.912  66.955  1.00  0.00    -0.101 C  
BRANCH  19  20
HETATM   20  C   UNL     1      -7.637  10.269  67.582  1.00  0.00    -0.090 C  
BRANCH  20  21
HETATM   21  O   UNL     1      -8.339  11.386  67.049  1.00  0.00    -0.148 OA 
BRANCH  21  22
HETATM   22  C   UNL     1      -8.099  12.598  67.813  1.00  0.00    -0.166 C  
BRANCH  22  23
HETATM   23  C   UNL     1      -8.507  13.866  67.058  1.00  0.00    -0.153 C  
BRANCH  23  24
HETATM   24  C   UNL     1      -9.998  14.033  66.715  1.00  0.00    -0.268 C  
HETATM   25  C   UNL     1     -10.815  13.099  67.652  1.00  0.00    -0.269 C  
HETATM   26  C   UNL     1     -11.390  11.842  66.985  1.00  0.00    -0.392 C  
HETATM   27  C   UNL     1     -11.507  12.002  65.469  1.00  0.00    -0.368 C  
HETATM   28  C   UNL     1     -10.085  12.227  64.878  1.00  0.00    -0.274 C  
HETATM   29  C   UNL     1     -10.325  13.728  65.231  1.00  0.00    -0.378 C  
HETATM   30  C   UNL     1     -11.864  13.434  64.890  1.00  0.00    -0.403 C  
HETATM   31  C   UNL     1     -12.932  14.279  65.590  1.00  0.00    -0.210 C  
HETATM   32  C   UNL     1     -12.257  13.387  63.396  1.00  0.00    -0.419 C  
ENDBRANCH  23  24
ENDBRANCH  22  23
ENDBRANCH  21  22
ENDBRANCH  20  21
ENDBRANCH  19  20
ENDBRANCH  13  19
ENDBRANCH  12  13
ENDBRANCH   7  12
ENDBRANCH   2   3
TORSDOF 10
ENDMDL
MODEL      273
REMARK 921   NORMALIZED FREE ENERGY PREDICTED BY IDOCK:   -2.73 KCAL/MOL
REMARK 922        TOTAL FREE ENERGY PREDICTED BY IDOCK:   -5.59 KCAL/MOL
REMARK 923 INTER-LIGAND FREE ENERGY PREDICTED BY IDOCK:   -4.99 KCAL/MOL
REMARK 924 INTRA-LIGAND FREE ENERGY PREDICTED BY IDOCK:   -0.61 KCAL/MOL
REMARK 927      BINDING AFFINITY PREDICTED BY RF-SCORE:    0.00 PKD
ROOT
HETATM    1  C   UNL     1      -5.132   9.280  69.962  1.00  0.00    -0.029 C  
HETATM    2  O   UNL     1      -6.487   9.702  69.907  1.00  0.00    -0.047 OA 
ENDROOT
BRANCH   2   3
HETATM    3  C   UNL     1      -6.807  10.746  69.086  1.00  0.00    -0.084 A  
HETATM    4  C   UNL     1      -6.796  12.117  69.380  1.00  0.00    -0.010 A  
HETATM    5  C   UNL     1      -7.265  10.327  67.832  1.00  0.00    -0.085 A  
HETATM    6  C   UNL     1      -7.263  13.024  68.419  1.00  0.00    -0.110 A  
HETATM    7  C   UNL     1      -7.861  12.598  67.212  1.00  0.00    -0.155 A  
HETATM    8 BR   UNL     1      -8.262  10.526  65.207  1.00  0.00    -0.112 Br 
HETATM    9  C   UNL     1      -7.763  11.235  66.896  1.00  0.00    -0.152 A  
BRANCH   4  10
HETATM   10  O   UNL     1      -6.312  12.544  70.584  1.00  0.00    -0.071 OA 
HETATM   11  C   UNL     1      -5.859  13.898  70.624  1.00  0.00    -0.193 C  
ENDBRANCH   4  10
BRANCH   7  12
HETATM   12  C   UNL     1      -8.692  13.585  66.405  1.00  0.00     0.247 C  
BRANCH  12  13
HETATM   13  N   UNL     1     -10.261  13.442  66.608  1.00  0.00    -0.269 N  
HETATM   14  O   UNL     1     -12.824  13.594  65.123  1.00  0.00    -0.687 OA 
HETATM   15  C   UNL     1     -10.981  14.774  66.220  1.00  0.00    -0.330 C  
HETATM   16  C   UNL     1     -12.506  14.572  66.114  1.00  0.00    -0.138 C  
HETATM   17  C   UNL     1     -10.755  12.379  65.578  1.00  0.00    -0.280 C  
HETATM   18  C   UNL     1     -12.278  12.317  65.454  1.00  0.00    -0.208 C  
BRANCH  13  19
HETATM   19  C   UNL     1     -10.601  13.033  68.082  1.00  0.00    -0.245 C  
BRANCH  19  20
HETATM   20  C   UNL     1     -11.195  11.611  68.146  1.00  0.00    -0.263 C  
BRANCH  20  21
HETATM   21  O   UNL     1     -10.745  10.832  69.249  1.00  0.00    -0.205 OA 
BRANCH  21  22
HETATM   22  C   UNL     1     -11.202   9.455  69.168  1.00  0.00     0.081 C  
BRANCH  22  23
HETATM   23  C   UNL     1     -10.049   8.452  69.067  1.00  0.00    -0.209 C  
BRANCH  23  24
HETATM   24  C   UNL     1      -9.676   7.946  67.662  1.00  0.00    -0.196 C  
HETATM   25  C   UNL     1     -10.793   6.974  67.189  1.00  0.00    -0.427 C  
HETATM   26  C   UNL     1     -10.416   5.486  67.201  1.00  0.00    -0.321 C  
HETATM   27  C   UNL     1      -8.901   5.280  67.165  1.00  0.00    -0.109 C  
HETATM   28  C   UNL     1      -8.278   5.924  68.437  1.00  0.00    -0.109 C  
HETATM   29  C   UNL     1      -8.294   7.245  67.609  1.00  0.00    -0.117 C  
HETATM   30  C   UNL     1      -8.024   6.307  66.337  1.00  0.00    -0.109 C  
HETATM   31  C   UNL     1      -8.521   6.784  64.970  1.00  0.00     0.004 C  
HETATM   32  C   UNL     1      -6.575   5.810  66.125  1.00  0.00    -0.051 C  
ENDBRANCH  23  24
ENDBRANCH  22  23
ENDBRANCH  21  22
ENDBRANCH  20  21
ENDBRANCH  19  20
ENDBRANCH  13  19
ENDBRANCH  12  13
ENDBRANCH   7  12
ENDBRANCH   2   3
TORSDOF 10
ENDMDL
MODEL      274
REMARK 921   NORMALIZED FREE ENERGY PREDICTED BY IDOCK:   -2.69 KCAL/MOL
REMARK 922        TOTAL FREE ENERGY PREDICTED BY IDOCK:   -5.54 KCAL/MOL
REMARK 923 INTER-LIGAND FREE ENERGY PREDICTED BY IDOCK:   -4.63 KCAL/MOL
REMARK 924 INTRA-LIGAND FREE ENERGY PREDICTED BY IDOCK:   -0.91 KCAL/MOL
REMARK 927      BINDING AFFINITY PREDICTED BY RF-SCORE:    0.00 PKD
ROOT
HETATM    1  C   UNL     1     -12.256   7.159  71.234  1.00  0.00    -0.365 C  
HETATM    2  O   UNL     1     -11.864   7.279  72.594  1.00  0.00    -0.214 OA 
ENDROOT
BRANCH   2   3
HETATM    3  C   UNL     1     -10.910   6.424  73.071  1.00  0.00    -0.259 A  
HETATM    4  C   UNL     1      -9.607   6.723  73.490  1.00  0.00    -0.179 A  
HETATM    5  C   UNL     1     -11.322   5.086  73.043  1.00  0.00    -0.374 A  
HETATM    6  C   UNL     1      -8.749   5.674  73.849  1.00  0.00    -0.117 A  
HETATM    7  C   UNL     1      -9.109   4.318  73.685  1.00  0.00    -0.094 A  
HETATM    8 BR   UNL     1     -11.178   2.294  73.372  1.00  0.00    -0.263 Br 
HETATM    9  C   UNL     1     -10.448   4.047  73.367  1.00  0.00    -0.176 A  
BRANCH   4  10
HETATM   10  O   UNL     1      -9.205   8.026  73.563  1.00  0.00    -0.272 OA 
HETATM   11  C   UNL     1      -8.071   8.279  74.393  1.00  0.00    -0.198 C  
ENDBRANCH   4  10
BRANCH   7  12
HETATM   12  C   UNL     1      -8.025   3.252  73.711  1.00  0.00    -0.070 C  
BRANCH  12  13
HETATM   13  N   UNL     1      -7.180   3.141  72.371  1.00  0.00    -0.042 N  
HETATM   14  O   UNL     1      -7.261   1.943  69.659  1.00  0.00    -0.036 OA 
HETATM   15  C   UNL     1      -6.858   1.644  72.054  1.00  0.00    -0.018 C  
HETATM   16  C   UNL     1      -6.313   1.483  70.621  1.00  0.00    -0.023 C  
HETATM   17  C   UNL     1      -8.104   3.629  71.213  1.00  0.00    -0.064 C  
HETATM   18  C   UNL     1      -7.540   3.334  69.822  1.00  0.00    -0.044 C  
BRANCH  13  19
HETATM   19  C   UNL     1      -5.863   3.986  72.467  1.00  0.00    -0.008 C  
BRANCH  19  20
HETATM   20  C   UNL     1      -5.940   5.245  71.579  1.00  0.00    -0.025 C  
BRANCH  20  21
HETATM   21  O   UNL     1      -5.518   6.445  72.219  1.00  0.00    -0.034 OA 
BRANCH  21  22
HETATM   22  C   UNL     1      -6.238   7.608  71.728  1.00  0.00    -0.039 C  
BRANCH  22  23
HETATM   23  C   UNL     1      -7.212   7.269  70.596  1.00  0.00    -0.066 C  
BRANCH  23  24
HETATM   24  C   UNL     1      -7.495   8.368  69.556  1.00  0.00    -0.088 C  
HETATM   25  C   UNL     1      -8.148   9.571  70.294  1.00  0.00    -0.200 C  
HETATM   26  C   UNL     1      -9.653   9.751  70.051  1.00  0.00    -0.282 C  
HETATM   27  C   UNL     1     -10.109   9.068  68.761  1.00  0.00    -0.214 C  
HETATM   28  C   UNL     1      -9.841   7.540  68.881  1.00  0.00    -0.159 C  
HETATM   29  C   UNL     1      -8.402   7.893  68.392  1.00  0.00    -0.124 C  
HETATM   30  C   UNL     1      -9.110   9.045  67.530  1.00  0.00    -0.145 C  
HETATM   31  C   UNL     1      -8.300  10.301  67.201  1.00  0.00    -0.122 C  
HETATM   32  C   UNL     1      -9.802   8.616  66.216  1.00  0.00    -0.320 C  
ENDBRANCH  23  24
ENDBRANCH  22  23
ENDBRANCH  21  22
ENDBRANCH  20  21
ENDBRANCH  19  20
ENDBRANCH  13  19
ENDBRANCH  12  13
ENDBRANCH   7  12
ENDBRANCH   2   3
TORSDOF 10
ENDMDL
MODEL      275
REMARK 921   NORMALIZED FREE ENERGY PREDICTED BY IDOCK:   -2.69 KCAL/MOL
REMARK 922        TOTAL FREE ENERGY PREDICTED BY IDOCK:   -5.54 KCAL/MOL
REMARK 923 INTER-LIGAND FREE ENERGY PREDICTED BY IDOCK:   -4.82 KCAL/MOL
REMARK 924 INTRA-LIGAND FREE ENERGY PREDICTED BY IDOCK:   -0.72 KCAL/MOL
REMARK 927      BINDING AFFINITY PREDICTED BY RF-SCORE:    0.00 PKD
ROOT
HETATM    1  C   UNL     1      -7.316   9.153  69.700  1.00  0.00    -0.065 C  
HETATM    2  O   UNL     1      -6.938   9.625  68.415  1.00  0.00    -0.064 OA 
ENDROOT
BRANCH   2   3
HETATM    3  C   UNL     1      -6.712  10.964  68.258  1.00  0.00    -0.063 A  
HETATM    4  C   UNL     1      -6.665  11.703  67.068  1.00  0.00    -0.145 A  
HETATM    5  C   UNL     1      -6.426  11.609  69.467  1.00  0.00    -0.122 A  
HETATM    6  C   UNL     1      -6.312  13.059  67.121  1.00  0.00     0.228 A  
HETATM    7  C   UNL     1      -5.882  13.678  68.316  1.00  0.00    -0.103 A  
HETATM    8 BR   UNL     1      -5.774  13.709  71.225  1.00  0.00    -0.112 Br 
HETATM    9  C   UNL     1      -6.040  12.950  69.504  1.00  0.00    -0.117 A  
BRANCH   4  10
HETATM   10  O   UNL     1      -6.982  11.097  65.886  1.00  0.00    -0.027 OA 
HETATM   11  C   UNL     1      -5.935  10.343  65.275  1.00  0.00    -0.135 C  
ENDBRANCH   4  10
BRANCH   7  12
HETATM   12  C   UNL     1      -5.148  15.008  68.242  1.00  0.00    -0.114 C  
BRANCH  12  13
HETATM   13  N   UNL     1      -6.082  16.258  67.949  1.00  0.00    -0.115 N  
HETATM   14  O   UNL     1      -6.979  18.030  65.745  1.00  0.00    -0.378 OA 
HETATM   15  C   UNL     1      -5.240  17.439  67.363  1.00  0.00    -0.122 C  
HETATM   16  C   UNL     1      -6.152  18.542  66.790  1.00  0.00    -0.154 C  
HETATM   17  C   UNL     1      -7.062  15.834  66.812  1.00  0.00     0.110 C  
HETATM   18  C   UNL     1      -7.851  17.004  66.223  1.00  0.00    -0.311 C  
BRANCH  13  19
HETATM   19  C   UNL     1      -6.844  16.705  69.244  1.00  0.00    -0.232 C  
BRANCH  19  20
HETATM   20  C   UNL     1      -8.176  15.944  69.401  1.00  0.00    -0.174 C  
BRANCH  20  21
HETATM   21  O   UNL     1      -9.333  16.700  69.058  1.00  0.00    -0.260 OA 
BRANCH  21  22
HETATM   22  C   UNL     1     -10.527  16.202  69.720  1.00  0.00    -0.286 C  
BRANCH  22  23
HETATM   23  C   UNL     1     -11.616  15.771  68.734  1.00  0.00    -0.401 C  
BRANCH  23  24
HETATM   24  C   UNL     1     -11.801  14.260  68.504  1.00  0.00    -0.382 C  
HETATM   25  C   UNL     1     -10.797  13.507  69.422  1.00  0.00    -0.032 C  
HETATM   26  C   UNL     1      -9.590  12.887  68.705  1.00  0.00    -0.025 C  
HETATM   27  C   UNL     1      -9.861  12.670  67.215  1.00  0.00    -0.206 C  
HETATM   28  C   UNL     1     -10.134  14.050  66.549  1.00  0.00    -0.287 C  
HETATM   29  C   UNL     1     -11.604  13.835  67.026  1.00  0.00    -0.391 C  
HETATM   30  C   UNL     1     -11.329  12.276  66.768  1.00  0.00    -0.395 C  
HETATM   31  C   UNL     1     -12.116  11.258  67.598  1.00  0.00     0.341 C  
HETATM   32  C   UNL     1     -11.390  11.784  65.304  1.00  0.00    -0.284 C  
ENDBRANCH  23  24
ENDBRANCH  22  23
ENDBRANCH  21  22
ENDBRANCH  20  21
ENDBRANCH  19  20
ENDBRANCH  13  19
ENDBRANCH  12  13
ENDBRANCH   7  12
ENDBRANCH   2   3
TORSDOF 10
ENDMDL
MODEL      276
REMARK 921   NORMALIZED FREE ENERGY PREDICTED BY IDOCK:   -2.66 KCAL/MOL
REMARK 922        TOTAL FREE ENERGY PREDICTED BY IDOCK:   -5.49 KCAL/MOL
REMARK 923 INTER-LIGAND FREE ENERGY PREDICTED BY IDOCK:   -5.81 KCAL/MOL
REMARK 924 INTRA-LIGAND FREE ENERGY PREDICTED BY IDOCK:    0.32 KCAL/MOL
REMARK 927      BINDING AFFINITY PREDICTED BY RF-SCORE:    0.00 PKD
ROOT
HETATM    1  C   UNL     1     -11.589   6.180  70.538  1.00  0.00    -0.191 C  
HETATM    2  O   UNL     1     -10.293   6.431  71.063  1.00  0.00    -0.199 OA 
ENDROOT
BRANCH   2   3
HETATM    3  C   UNL     1      -9.404   7.124  70.289  1.00  0.00    -0.155 A  
HETATM    4  C   UNL     1      -9.250   8.512  70.176  1.00  0.00    -0.156 A  
HETATM    5  C   UNL     1      -8.629   6.288  69.478  1.00  0.00    -0.132 A  
HETATM    6  C   UNL     1      -8.340   9.022  69.239  1.00  0.00    -0.122 A  
HETATM    7  C   UNL     1      -7.664   8.191  68.318  1.00  0.00    -0.114 A  
HETATM    8 BR   UNL     1      -6.703   5.549  67.562  1.00  0.00    -0.060 Br 
HETATM    9  C   UNL     1      -7.753   6.807  68.523  1.00  0.00    -0.113 A  
BRANCH   4  10
HETATM   10  O   UNL     1      -9.969   9.339  70.991  1.00  0.00    -0.270 OA 
HETATM   11  C   UNL     1     -10.369   8.780  72.242  1.00  0.00    -0.250 C  
ENDBRANCH   4  10
BRANCH   7  12
HETATM   12  C   UNL     1      -7.012   8.815  67.094  1.00  0.00    -0.071 C  
BRANCH  12  13
HETATM   13  N   UNL     1      -7.953   8.895  65.817  1.00  0.00    -0.098 N  
HETATM   14  O   UNL     1      -7.863   9.279  62.877  1.00  0.00    -0.120 OA 
HETATM   15  C   UNL     1      -7.791  10.280  65.110  1.00  0.00    -0.138 C  
HETATM   16  C   UNL     1      -8.451  10.274  63.716  1.00  0.00    -0.179 C  
HETATM   17  C   UNL     1      -7.426   7.837  64.800  1.00  0.00    -0.092 C  
HETATM   18  C   UNL     1      -8.052   7.968  63.410  1.00  0.00    -0.101 C  
BRANCH  13  19
HETATM   19  C   UNL     1      -9.449   8.640  66.207  1.00  0.00    -0.241 C  
BRANCH  19  20
HETATM   20  C   UNL     1     -10.284   9.934  66.105  1.00  0.00    -0.207 C  
BRANCH  20  21
HETATM   21  O   UNL     1     -11.028  10.251  67.276  1.00  0.00    -0.275 OA 
BRANCH  21  22
HETATM   22  C   UNL     1     -11.542  11.610  67.245  1.00  0.00    -0.238 C  
BRANCH  22  23
HETATM   23  C   UNL     1     -10.707  12.540  66.361  1.00  0.00    -0.275 C  
BRANCH  23  24
HETATM   24  C   UNL     1     -10.859  14.055  66.590  1.00  0.00    -0.297 C  
HETATM   25  C   UNL     1      -9.756  14.778  65.767  1.00  0.00    -0.347 C  
HETATM   26  C   UNL     1      -8.593  15.350  66.589  1.00  0.00    -0.318 C  
HETATM   27  C   UNL     1      -8.979  15.566  68.053  1.00  0.00    -0.174 C  
HETATM   28  C   UNL     1      -9.356  14.192  68.680  1.00  0.00    -0.152 C  
HETATM   29  C   UNL     1     -10.772  14.462  68.083  1.00  0.00    -0.239 C  
HETATM   30  C   UNL     1     -10.466  16.008  68.379  1.00  0.00    -0.263 C  
HETATM   31  C   UNL     1     -11.144  17.060  67.497  1.00  0.00    -0.004 C  
HETATM   32  C   UNL     1     -10.632  16.491  69.838  1.00  0.00    -0.215 C  
ENDBRANCH  23  24
ENDBRANCH  22  23
ENDBRANCH  21  22
ENDBRANCH  20  21
ENDBRANCH  19  20
ENDBRANCH  13  19
ENDBRANCH  12  13
ENDBRANCH   7  12
ENDBRANCH   2   3
TORSDOF 10
ENDMDL
MODEL      277
REMARK 921   NORMALIZED FREE ENERGY PREDICTED BY IDOCK:   -2.64 KCAL/MOL
REMARK 922        TOTAL FREE ENERGY PREDICTED BY IDOCK:   -5.47 KCAL/MOL
REMARK 923 INTER-LIGAND FREE ENERGY PREDICTED BY IDOCK:   -6.64 KCAL/MOL
REMARK 924 INTRA-LIGAND FREE ENERGY PREDICTED BY IDOCK:    1.17 KCAL/MOL
REMARK 927      BINDING AFFINITY PREDICTED BY RF-SCORE:    0.00 PKD
ROOT
HETATM    1  C   UNL     1     -11.781  15.476  73.481  1.00  0.00    -0.160 C  
HETATM    2  O   UNL     1     -12.090  16.184  72.289  1.00  0.00    -0.479 OA 
ENDROOT
BRANCH   2   3
HETATM    3  C   UNL     1     -11.949  15.534  71.095  1.00  0.00    -0.382 A  
HETATM    4  C   UNL     1     -12.610  14.382  70.650  1.00  0.00    -0.357 A  
HETATM    5  C   UNL     1     -10.950  16.095  70.290  1.00  0.00    -0.345 A  
HETATM    6  C   UNL     1     -12.239  13.814  69.423  1.00  0.00    -0.325 A  
HETATM    7  C   UNL     1     -11.137  14.289  68.677  1.00  0.00    -0.273 A  
HETATM    8 BR   UNL     1      -9.261  16.429  68.063  1.00  0.00    -0.207 Br 
HETATM    9  C   UNL     1     -10.563  15.501  69.088  1.00  0.00    -0.234 A  
BRANCH   4  10
HETATM   10  O   UNL     1     -13.615  13.848  71.404  1.00  0.00    -0.303 OA 
HETATM   11  C   UNL     1     -13.345  12.570  71.981  1.00  0.00    -0.426 C  
ENDBRANCH   4  10
BRANCH   7  12
HETATM   12  C   UNL     1     -10.545  13.412  67.584  1.00  0.00    -0.243 C  
BRANCH  12  13
HETATM   13  N   UNL     1     -10.408  11.879  67.974  1.00  0.00    -0.190 N  
HETATM   14  O   UNL     1     -10.215  10.083  70.327  1.00  0.00    -0.268 OA 
HETATM   15  C   UNL     1      -9.104  11.645  68.805  1.00  0.00    -0.021 C  
HETATM   16  C   UNL     1      -9.099  10.245  69.451  1.00  0.00    -0.187 C  
HETATM   17  C   UNL     1     -11.588  11.551  68.940  1.00  0.00    -0.320 C  
HETATM   18  C   UNL     1     -11.453  10.189  69.623  1.00  0.00    -0.198 C  
BRANCH  13  19
HETATM   19  C   UNL     1     -10.426  10.972  66.697  1.00  0.00    -0.256 C  
BRANCH  19  20
HETATM   20  C   UNL     1      -9.185  11.221  65.814  1.00  0.00    -0.219 C  
BRANCH  20  21
HETATM   21  O   UNL     1      -8.928  10.202  64.855  1.00  0.00    -0.167 OA 
BRANCH  21  22
HETATM   22  C   UNL     1      -7.786   9.381  65.222  1.00  0.00    -0.108 C  
BRANCH  22  23
HETATM   23  C   UNL     1      -7.821   7.993  64.577  1.00  0.00    -0.138 C  
BRANCH  23  24
HETATM   24  C   UNL     1      -7.964   6.783  65.517  1.00  0.00    -0.119 C  
HETATM   25  C   UNL     1      -9.259   6.975  66.355  1.00  0.00    -0.186 C  
HETATM   26  C   UNL     1      -9.038   7.364  67.824  1.00  0.00    -0.129 C  
HETATM   27  C   UNL     1      -7.640   6.982  68.312  1.00  0.00    -0.111 C  
HETATM   28  C   UNL     1      -6.586   7.756  67.467  1.00  0.00    -0.063 C  
HETATM   29  C   UNL     1      -6.742   6.582  66.451  1.00  0.00    -0.056 C  
HETATM   30  C   UNL     1      -6.980   5.659  67.741  1.00  0.00    -0.066 C  
HETATM   31  C   UNL     1      -7.840   4.403  67.581  1.00  0.00    -0.085 C  
HETATM   32  C   UNL     1      -5.728   5.231  68.539  1.00  0.00    -0.016 C  
ENDBRANCH  23  24
ENDBRANCH  22  23
ENDBRANCH  21  22
ENDBRANCH  20  21
ENDBRANCH  19  20
ENDBRANCH  13  19
ENDBRANCH  12  13
ENDBRANCH   7  12
ENDBRANCH   2   3
TORSDOF 10
ENDMDL
MODEL      278
REMARK 921   NORMALIZED FREE ENERGY PREDICTED BY IDOCK:   -2.58 KCAL/MOL
REMARK 922        TOTAL FREE ENERGY PREDICTED BY IDOCK:   -5.36 KCAL/MOL
REMARK 923 INTER-LIGAND FREE ENERGY PREDICTED BY IDOCK:   -5.32 KCAL/MOL
REMARK 924 INTRA-LIGAND FREE ENERGY PREDICTED BY IDOCK:   -0.05 KCAL/MOL
REMARK 927      BINDING AFFINITY PREDICTED BY RF-SCORE:    0.00 PKD
ROOT
HETATM    1  C   UNL     1      -6.502   9.787  64.624  1.00  0.00    -0.111 C  
HETATM    2  O   UNL     1      -6.229  10.824  65.555  1.00  0.00    -0.117 OA 
ENDROOT
BRANCH   2   3
HETATM    3  C   UNL     1      -7.130  11.046  66.559  1.00  0.00    -0.136 A  
HETATM    4  C   UNL     1      -6.912  11.020  67.943  1.00  0.00    -0.073 A  
HETATM    5  C   UNL     1      -8.430  11.247  66.082  1.00  0.00    -0.135 A  
HETATM    6  C   UNL     1      -8.004  11.175  68.808  1.00  0.00    -0.144 A  
HETATM    7  C   UNL     1      -9.335  11.232  68.336  1.00  0.00    -0.181 A  
HETATM    8 BR   UNL     1     -11.204  11.725  66.159  1.00  0.00    -0.329 Br 
HETATM    9  C   UNL     1      -9.516  11.364  66.952  1.00  0.00    -0.179 A  
BRANCH   4  10
HETATM   10  O   UNL     1      -5.643  10.867  68.423  1.00  0.00    -0.044 OA 
HETATM   11  C   UNL     1      -5.533  10.220  69.691  1.00  0.00    -0.038 C  
ENDBRANCH   4  10
BRANCH   7  12
HETATM   12  C   UNL     1     -10.480  11.003  69.311  1.00  0.00    -0.180 C  
BRANCH  12  13
HETATM   13  N   UNL     1     -10.431   9.607  70.066  1.00  0.00    -0.240 N  
HETATM   14  O   UNL     1      -9.788   8.406  72.701  1.00  0.00    -0.282 OA 
HETATM   15  C   UNL     1      -8.982   9.317  70.577  1.00  0.00    -0.250 C  
HETATM   16  C   UNL     1      -8.966   8.134  71.565  1.00  0.00    -0.158 C  
HETATM   17  C   UNL     1     -11.309   9.755  71.347  1.00  0.00    -0.337 C  
HETATM   18  C   UNL     1     -11.154   8.590  72.327  1.00  0.00    -0.360 C  
BRANCH  13  19
HETATM   19  C   UNL     1     -10.937   8.450  69.139  1.00  0.00     0.085 C  
BRANCH  19  20
HETATM   20  C   UNL     1      -9.881   8.079  68.077  1.00  0.00    -0.167 C  
BRANCH  20  21
HETATM   21  O   UNL     1     -10.397   7.384  66.947  1.00  0.00    -0.273 OA 
BRANCH  21  22
HETATM   22  C   UNL     1     -10.981   6.104  67.313  1.00  0.00    -0.326 C  
BRANCH  22  23
HETATM   23  C   UNL     1     -10.317   4.924  66.599  1.00  0.00    -0.285 C  
BRANCH  23  24
HETATM   24  C   UNL     1      -9.049   4.333  67.242  1.00  0.00    -0.153 C  
HETATM   25  C   UNL     1      -9.079   2.793  67.036  1.00  0.00    -0.184 C  
HETATM   26  C   UNL     1      -9.406   1.970  68.289  1.00  0.00    -0.251 C  
HETATM   27  C   UNL     1      -9.126   2.749  69.575  1.00  0.00    -0.189 C  
HETATM   28  C   UNL     1     -10.035   4.012  69.602  1.00  0.00    -0.006 C  
HETATM   29  C   UNL     1      -8.909   4.673  68.748  1.00  0.00    -0.127 C  
HETATM   30  C   UNL     1      -7.901   3.754  69.591  1.00  0.00    -0.052 C  
HETATM   31  C   UNL     1      -6.583   3.338  68.933  1.00  0.00    -0.037 C  
HETATM   32  C   UNL     1      -7.544   4.228  71.018  1.00  0.00    -0.059 C  
ENDBRANCH  23  24
ENDBRANCH  22  23
ENDBRANCH  21  22
ENDBRANCH  20  21
ENDBRANCH  19  20
ENDBRANCH  13  19
ENDBRANCH  12  13
ENDBRANCH   7  12
ENDBRANCH   2   3
TORSDOF 10
ENDMDL
MODEL      279
REMARK 921   NORMALIZED FREE ENERGY PREDICTED BY IDOCK:   -2.55 KCAL/MOL
REMARK 922        TOTAL FREE ENERGY PREDICTED BY IDOCK:   -5.31 KCAL/MOL
REMARK 923 INTER-LIGAND FREE ENERGY PREDICTED BY IDOCK:   -4.62 KCAL/MOL
REMARK 924 INTRA-LIGAND FREE ENERGY PREDICTED BY IDOCK:   -0.69 KCAL/MOL
REMARK 927      BINDING AFFINITY PREDICTED BY RF-SCORE:    0.00 PKD
ROOT
HETATM    1  C   UNL     1     -12.147   6.959  70.621  1.00  0.00    -0.311 C  
HETATM    2  O   UNL     1     -11.965   7.371  71.968  1.00  0.00    -0.288 OA 
ENDROOT
BRANCH   2   3
HETATM    3  C   UNL     1     -10.903   6.865  72.663  1.00  0.00    -0.257 A  
HETATM    4  C   UNL     1      -9.680   7.485  72.954  1.00  0.00    -0.207 A  
HETATM    5  C   UNL     1     -11.092   5.530  73.040  1.00  0.00    -0.350 A  
HETATM    6  C   UNL     1      -8.677   6.746  73.596  1.00  0.00    -0.153 A  
HETATM    7  C   UNL     1      -8.807   5.362  73.848  1.00  0.00    -0.120 A  
HETATM    8 BR   UNL     1     -10.510   3.024  74.183  1.00  0.00    -0.252 Br 
HETATM    9  C   UNL     1     -10.073   4.792  73.646  1.00  0.00    -0.167 A  
BRANCH   4  10
HETATM   10  O   UNL     1      -9.497   8.799  72.629  1.00  0.00    -0.269 OA 
HETATM   11  C   UNL     1      -9.075   9.053  71.289  1.00  0.00    -0.232 C  
ENDBRANCH   4  10
BRANCH   7  12
HETATM   12  C   UNL     1      -7.566   4.545  74.173  1.00  0.00    -0.085 C  
BRANCH  12  13
HETATM   13  N   UNL     1      -6.748   4.058  72.903  1.00  0.00    -0.044 N  
HETATM   14  O   UNL     1      -6.393   1.715  71.118  1.00  0.00    -0.018 OA 
HETATM   15  C   UNL     1      -5.895   2.797  73.257  1.00  0.00    -0.004 C  
HETATM   16  C   UNL     1      -5.336   2.127  71.985  1.00  0.00    -0.004 C  
HETATM   17  C   UNL     1      -7.793   3.579  71.848  1.00  0.00    -0.062 C  
HETATM   18  C   UNL     1      -7.167   2.829  70.671  1.00  0.00    -0.033 C  
BRANCH  13  19
HETATM   19  C   UNL     1      -5.839   5.208  72.347  1.00  0.00    -0.021 C  
BRANCH  19  20
HETATM   20  C   UNL     1      -6.261   5.615  70.920  1.00  0.00    -0.031 C  
BRANCH  20  21
HETATM   21  O   UNL     1      -6.056   6.990  70.613  1.00  0.00    -0.030 OA 
BRANCH  21  22
HETATM   22  C   UNL     1      -6.582   7.343  69.305  1.00  0.00    -0.037 C  
BRANCH  22  23
HETATM   23  C   UNL     1      -7.851   6.565  68.947  1.00  0.00    -0.110 C  
BRANCH  23  24
HETATM   24  C   UNL     1      -8.040   6.164  67.473  1.00  0.00    -0.109 C  
HETATM   25  C   UNL     1      -9.234   6.980  66.902  1.00  0.00    -0.174 C  
HETATM   26  C   UNL     1     -10.529   6.185  66.689  1.00  0.00    -0.267 C  
HETATM   27  C   UNL     1     -10.266   4.683  66.575  1.00  0.00    -0.273 C  
HETATM   28  C   UNL     1      -9.631   4.183  67.905  1.00  0.00    -0.203 C  
HETATM   29  C   UNL     1      -8.281   4.645  67.275  1.00  0.00    -0.105 C  
HETATM   30  C   UNL     1      -8.926   4.207  65.874  1.00  0.00    -0.126 C  
HETATM   31  C   UNL     1      -8.451   4.921  64.606  1.00  0.00    -0.143 C  
HETATM   32  C   UNL     1      -8.935   2.696  65.546  1.00  0.00    -0.135 C  
ENDBRANCH  23  24
ENDBRANCH  22  23
ENDBRANCH  21  22
ENDBRANCH  20  21
ENDBRANCH  19  20
ENDBRANCH  13  19
ENDBRANCH  12  13
ENDBRANCH   7  12
ENDBRANCH   2   3
TORSDOF 10
ENDMDL
MODEL      280
REMARK 921   NORMALIZED FREE ENERGY PREDICTED BY IDOCK:   -2.54 KCAL/MOL
REMARK 922        TOTAL FREE ENERGY PREDICTED BY IDOCK:   -5.30 KCAL/MOL
REMARK 923 INTER-LIGAND FREE ENERGY PREDICTED BY IDOCK:   -6.18 KCAL/MOL
REMARK 924 INTRA-LIGAND FREE ENERGY PREDICTED BY IDOCK:    0.89 KCAL/MOL
REMARK 927      BINDING AFFINITY PREDICTED BY RF-SCORE:    0.00 PKD
ROOT
HETATM    1  C   UNL     1     -12.133  14.241  69.088  1.00  0.00    -0.302 C  
HETATM    2  O   UNL     1     -11.885  14.239  67.689  1.00  0.00    -0.363 OA 
ENDROOT
BRANCH   2   3
HETATM    3  C   UNL     1     -11.009  13.316  67.189  1.00  0.00    -0.272 A  
HETATM    4  C   UNL     1     -11.243  12.338  66.212  1.00  0.00    -0.323 A  
HETATM    5  C   UNL     1      -9.762  13.356  67.822  1.00  0.00    -0.216 A  
HETATM    6  C   UNL     1     -10.228  11.417  65.915  1.00  0.00    -0.292 A  
HETATM    7  C   UNL     1      -9.024  11.361  66.651  1.00  0.00    -0.183 A  
HETATM    8 BR   UNL     1      -7.101  12.651  68.416  1.00  0.00    -0.109 Br 
HETATM    9  C   UNL     1      -8.772  12.412  67.545  1.00  0.00    -0.179 A  
BRANCH   4  10
HETATM   10  O   UNL     1     -12.440  12.313  65.556  1.00  0.00    -0.597 OA 
HETATM   11  C   UNL     1     -12.365  12.361  64.131  1.00  0.00    -0.467 C  
ENDBRANCH   4  10
BRANCH   7  12
HETATM   12  C   UNL     1      -8.150  10.119  66.554  1.00  0.00    -0.121 C  
BRANCH  12  13
HETATM   13  N   UNL     1      -8.534   8.964  67.573  1.00  0.00    -0.116 N  
HETATM   14  O   UNL     1     -10.752   8.031  69.309  1.00  0.00    -0.209 OA 
HETATM   15  C   UNL     1      -8.876   9.568  68.974  1.00  0.00    -0.143 C  
HETATM   16  C   UNL     1      -9.540   8.517  69.887  1.00  0.00    -0.171 C  
HETATM   17  C   UNL     1      -9.860   8.326  67.054  1.00  0.00    -0.232 C  
HETATM   18  C   UNL     1     -10.513   7.378  68.062  1.00  0.00    -0.199 C  
BRANCH  13  19
HETATM   19  C   UNL     1      -7.381   7.909  67.686  1.00  0.00    -0.096 C  
BRANCH  19  20
HETATM   20  C   UNL     1      -7.312   7.017  66.430  1.00  0.00    -0.080 C  
BRANCH  20  21
HETATM   21  O   UNL     1      -8.169   5.881  66.464  1.00  0.00    -0.108 OA 
BRANCH  21  22
HETATM   22  C   UNL     1      -7.702   4.872  67.399  1.00  0.00    -0.091 C  
BRANCH  22  23
HETATM   23  C   UNL     1      -7.109   5.475  68.675  1.00  0.00    -0.065 C  
BRANCH  23  24
HETATM   24  C   UNL     1      -7.224   4.644  69.967  1.00  0.00    -0.053 C  
HETATM   25  C   UNL     1      -7.236   3.141  69.572  1.00  0.00    -0.045 C  
HETATM   26  C   UNL     1      -8.600   2.445  69.684  1.00  0.00    -0.111 C  
HETATM   27  C   UNL     1      -9.543   3.184  70.634  1.00  0.00    -0.212 C  
HETATM   28  C   UNL     1      -9.799   4.614  70.073  1.00  0.00    -0.294 C  
HETATM   29  C   UNL     1      -8.477   4.991  70.811  1.00  0.00    -0.119 C  
HETATM   30  C   UNL     1      -8.919   3.902  71.902  1.00  0.00    -0.153 C  
HETATM   31  C   UNL     1      -7.822   3.193  72.700  1.00  0.00    -0.063 C  
HETATM   32  C   UNL     1      -9.995   4.330  72.927  1.00  0.00    -0.197 C  
ENDBRANCH  23  24
ENDBRANCH  22  23
ENDBRANCH  21  22
ENDBRANCH  20  21
ENDBRANCH  19  20
ENDBRANCH  13  19
ENDBRANCH  12  13
ENDBRANCH   7  12
ENDBRANCH   2   3
TORSDOF 10
ENDMDL
MODEL      281
REMARK 921   NORMALIZED FREE ENERGY PREDICTED BY IDOCK:   -2.47 KCAL/MOL
REMARK 922        TOTAL FREE ENERGY PREDICTED BY IDOCK:   -5.18 KCAL/MOL
REMARK 923 INTER-LIGAND FREE ENERGY PREDICTED BY IDOCK:   -4.79 KCAL/MOL
REMARK 924 INTRA-LIGAND FREE ENERGY PREDICTED BY IDOCK:   -0.39 KCAL/MOL
REMARK 927      BINDING AFFINITY PREDICTED BY RF-SCORE:    0.00 PKD
ROOT
HETATM    1  C   UNL     1     -11.021   6.674  71.383  1.00  0.00    -0.250 C  
HETATM    2  O   UNL     1     -10.458   5.383  71.208  1.00  0.00    -0.226 OA 
ENDROOT
BRANCH   2   3
HETATM    3  C   UNL     1      -9.415   5.244  70.335  1.00  0.00    -0.166 A  
HETATM    4  C   UNL     1      -8.068   5.575  70.532  1.00  0.00    -0.104 A  
HETATM    5  C   UNL     1      -9.821   4.776  69.080  1.00  0.00    -0.239 A  
HETATM    6  C   UNL     1      -7.172   5.448  69.461  1.00  0.00    -0.064 A  
HETATM    7  C   UNL     1      -7.601   5.116  68.157  1.00  0.00    -0.080 A  
HETATM    8 BR   UNL     1      -9.605   3.949  66.397  1.00  0.00    -0.177 Br 
HETATM    9  C   UNL     1      -8.928   4.688  68.011  1.00  0.00    -0.114 A  
BRANCH   4  10
HETATM   10  O   UNL     1      -7.649   5.992  71.763  1.00  0.00    -0.093 OA 
HETATM   11  C   UNL     1      -7.190   4.965  72.642  1.00  0.00    -0.083 C  
ENDBRANCH   4  10
BRANCH   7  12
HETATM   12  C   UNL     1      -6.672   5.377  66.980  1.00  0.00    -0.062 C  
BRANCH  12  13
HETATM   13  N   UNL     1      -6.948   6.741  66.215  1.00  0.00    -0.060 N  
HETATM   14  O   UNL     1      -5.965   8.377  63.944  1.00  0.00    -0.065 OA 
HETATM   15  C   UNL     1      -5.683   7.658  66.267  1.00  0.00    -0.036 C  
HETATM   16  C   UNL     1      -5.812   8.841  65.286  1.00  0.00    -0.048 C  
HETATM   17  C   UNL     1      -7.148   6.382  64.710  1.00  0.00    -0.057 C  
HETATM   18  C   UNL     1      -7.156   7.604  63.790  1.00  0.00    -0.066 C  
BRANCH  13  19
HETATM   19  C   UNL     1      -8.196   7.477  66.812  1.00  0.00    -0.124 C  
BRANCH  19  20
HETATM   20  C   UNL     1      -7.774   8.569  67.817  1.00  0.00    -0.103 C  
BRANCH  20  21
HETATM   21  O   UNL     1      -8.371   9.841  67.592  1.00  0.00    -0.114 OA 
BRANCH  21  22
HETATM   22  C   UNL     1      -8.002  10.807  68.614  1.00  0.00    -0.133 C  
BRANCH  22  23
HETATM   23  C   UNL     1      -8.022  12.249  68.102  1.00  0.00    -0.155 C  
BRANCH  23  24
HETATM   24  C   UNL     1      -9.194  13.141  68.553  1.00  0.00    -0.066 C  
HETATM   25  C   UNL     1     -10.466  12.688  67.783  1.00  0.00    -0.228 C  
HETATM   26  C   UNL     1     -10.927  13.633  66.665  1.00  0.00    -0.295 C  
HETATM   27  C   UNL     1     -10.389  15.051  66.857  1.00  0.00    -0.266 C  
HETATM   28  C   UNL     1      -8.834  15.007  66.811  1.00  0.00    -0.299 C  
HETATM   29  C   UNL     1      -8.937  14.653  68.327  1.00  0.00    -0.184 C  
HETATM   30  C   UNL     1     -10.231  15.600  68.335  1.00  0.00    -0.222 C  
HETATM   31  C   UNL     1     -11.329  15.313  69.362  1.00  0.00    -0.304 C  
HETATM   32  C   UNL     1      -9.985  17.126  68.375  1.00  0.00    -0.310 C  
ENDBRANCH  23  24
ENDBRANCH  22  23
ENDBRANCH  21  22
ENDBRANCH  20  21
ENDBRANCH  19  20
ENDBRANCH  13  19
ENDBRANCH  12  13
ENDBRANCH   7  12
ENDBRANCH   2   3
TORSDOF 10
ENDMDL
MODEL      282
REMARK 921   NORMALIZED FREE ENERGY PREDICTED BY IDOCK:   -2.40 KCAL/MOL
REMARK 922        TOTAL FREE ENERGY PREDICTED BY IDOCK:   -5.08 KCAL/MOL
REMARK 923 INTER-LIGAND FREE ENERGY PREDICTED BY IDOCK:   -4.57 KCAL/MOL
REMARK 924 INTRA-LIGAND FREE ENERGY PREDICTED BY IDOCK:   -0.51 KCAL/MOL
REMARK 927      BINDING AFFINITY PREDICTED BY RF-SCORE:    0.00 PKD
ROOT
HETATM    1  C   UNL     1     -11.881  14.743  67.367  1.00  0.00    -0.295 C  
HETATM    2  O   UNL     1     -12.004  13.804  66.309  1.00  0.00    -0.381 OA 
ENDROOT
BRANCH   2   3
HETATM    3  C   UNL     1     -10.974  12.932  66.094  1.00  0.00    -0.281 A  
HETATM    4  C   UNL     1     -10.774  12.075  65.003  1.00  0.00    -0.296 A  
HETATM    5  C   UNL     1     -10.078  12.880  67.168  1.00  0.00    -0.243 A  
HETATM    6  C   UNL     1      -9.697  11.179  65.028  1.00  0.00    -0.298 A  
HETATM    7  C   UNL     1      -8.877  11.020  66.168  1.00  0.00    -0.197 A  
HETATM    8 BR   UNL     1      -7.844  12.071  68.679  1.00  0.00    -0.044 Br 
HETATM    9  C   UNL     1      -9.029  11.958  67.200  1.00  0.00    -0.178 A  
BRANCH   4  10
HETATM   10  O   UNL     1     -11.616  12.144  63.930  1.00  0.00    -0.379 OA 
HETATM   11  C   UNL     1     -11.641  13.395  63.241  1.00  0.00     0.127 C  
ENDBRANCH   4  10
BRANCH   7  12
HETATM   12  C   UNL     1      -7.997   9.785  66.285  1.00  0.00    -0.109 C  
BRANCH  12  13
HETATM   13  N   UNL     1      -8.703   8.538  66.970  1.00  0.00    -0.124 N  
HETATM   14  O   UNL     1     -10.191   6.056  66.318  1.00  0.00    -0.105 OA 
HETATM   15  C   UNL     1     -10.216   8.490  66.581  1.00  0.00    -0.275 C  
HETATM   16  C   UNL     1     -10.850   7.140  66.974  1.00  0.00    -0.312 C  
HETATM   17  C   UNL     1      -8.065   7.259  66.346  1.00  0.00    -0.119 C  
HETATM   18  C   UNL     1      -8.816   5.973  66.696  1.00  0.00    -0.125 C  
BRANCH  13  19
HETATM   19  C   UNL     1      -8.528   8.580  68.527  1.00  0.00    -0.131 C  
BRANCH  19  20
HETATM   20  C   UNL     1      -7.038   8.574  68.925  1.00  0.00    -0.062 C  
BRANCH  20  21
HETATM   21  O   UNL     1      -6.598   7.374  69.552  1.00  0.00    -0.035 OA 
BRANCH  21  22
HETATM   22  C   UNL     1      -7.573   6.866  70.502  1.00  0.00    -0.091 C  
BRANCH  22  23
HETATM   23  C   UNL     1      -7.600   5.337  70.564  1.00  0.00    -0.072 C  
BRANCH  23  24
HETATM   24  C   UNL     1      -8.065   4.692  71.882  1.00  0.00    -0.101 C  
HETATM   25  C   UNL     1      -8.073   5.793  72.980  1.00  0.00    -0.118 C  
HETATM   26  C   UNL     1      -6.934   5.706  74.004  1.00  0.00    -0.082 C  
HETATM   27  C   UNL     1      -6.335   4.301  74.075  1.00  0.00    -0.046 C  
HETATM   28  C   UNL     1      -5.733   3.942  72.685  1.00  0.00    -0.004 C  
HETATM   29  C   UNL     1      -7.184   3.495  72.325  1.00  0.00    -0.047 C  
HETATM   30  C   UNL     1      -7.301   3.062  73.864  1.00  0.00    -0.047 C  
HETATM   31  C   UNL     1      -8.687   3.074  74.515  1.00  0.00    -0.080 C  
HETATM   32  C   UNL     1      -6.642   1.723  74.270  1.00  0.00    -0.020 C  
ENDBRANCH  23  24
ENDBRANCH  22  23
ENDBRANCH  21  22
ENDBRANCH  20  21
ENDBRANCH  19  20
ENDBRANCH  13  19
ENDBRANCH  12  13
ENDBRANCH   7  12
ENDBRANCH   2   3
TORSDOF 10
ENDMDL
MODEL      283
REMARK 921   NORMALIZED FREE ENERGY PREDICTED BY IDOCK:   -2.40 KCAL/MOL
REMARK 922        TOTAL FREE ENERGY PREDICTED BY IDOCK:   -5.07 KCAL/MOL
REMARK 923 INTER-LIGAND FREE ENERGY PREDICTED BY IDOCK:   -4.43 KCAL/MOL
REMARK 924 INTRA-LIGAND FREE ENERGY PREDICTED BY IDOCK:   -0.64 KCAL/MOL
REMARK 927      BINDING AFFINITY PREDICTED BY RF-SCORE:    0.00 PKD
ROOT
HETATM    1  C   UNL     1      -5.165  16.907  70.352  1.00  0.00    -0.223 C  
HETATM    2  O   UNL     1      -5.145  16.932  68.932  1.00  0.00    -0.128 OA 
ENDROOT
BRANCH   2   3
HETATM    3  C   UNL     1      -6.151  16.299  68.259  1.00  0.00    -0.114 A  
HETATM    4  C   UNL     1      -7.233  16.870  67.575  1.00  0.00    -0.149 A  
HETATM    5  C   UNL     1      -6.078  14.905  68.365  1.00  0.00    -0.103 A  
HETATM    6  C   UNL     1      -8.218  16.032  67.036  1.00  0.00    -0.255 A  
HETATM    7  C   UNL     1      -8.226  14.638  67.264  1.00  0.00    -0.235 A  
HETATM    8 BR   UNL     1      -6.798  12.208  67.994  1.00  0.00    -0.092 Br 
HETATM    9  C   UNL     1      -7.083  14.081  67.856  1.00  0.00    -0.160 A  
BRANCH   4  10
HETATM   10  O   UNL     1      -7.296  18.226  67.428  1.00  0.00    -0.209 OA 
HETATM   11  C   UNL     1      -8.145  18.911  68.349  1.00  0.00    -0.341 C  
ENDBRANCH   4  10
BRANCH   7  12
HETATM   12  C   UNL     1      -9.500  13.848  67.002  1.00  0.00    -0.254 C  
BRANCH  12  13
HETATM   13  N   UNL     1     -10.608  13.995  68.130  1.00  0.00    -0.242 N  
HETATM   14  O   UNL     1     -11.478  15.799  70.319  1.00  0.00    -0.300 OA 
HETATM   15  C   UNL     1      -9.939  14.061  69.542  1.00  0.00     0.475 C  
HETATM   16  C   UNL     1     -10.951  14.505  70.617  1.00  0.00     0.218 C  
HETATM   17  C   UNL     1     -11.286  15.384  67.919  1.00  0.00    -0.329 C  
HETATM   18  C   UNL     1     -12.190  15.801  69.081  1.00  0.00    -0.072 C  
BRANCH  13  19
HETATM   19  C   UNL     1     -11.642  12.821  68.057  1.00  0.00    -0.341 C  
BRANCH  19  20
HETATM   20  C   UNL     1     -10.936  11.449  68.075  1.00  0.00    -0.237 C  
BRANCH  20  21
HETATM   21  O   UNL     1     -11.634  10.416  67.388  1.00  0.00    -0.295 OA 
BRANCH  21  22
HETATM   22  C   UNL     1     -10.749   9.339  66.977  1.00  0.00    -0.129 C  
BRANCH  22  23
HETATM   23  C   UNL     1      -9.283   9.773  66.897  1.00  0.00    -0.174 C  
BRANCH  23  24
HETATM   24  C   UNL     1      -8.233   8.671  66.666  1.00  0.00    -0.107 C  
HETATM   25  C   UNL     1      -6.855   9.359  66.455  1.00  0.00    -0.083 C  
HETATM   26  C   UNL     1      -6.337   9.359  65.010  1.00  0.00    -0.075 C  
HETATM   27  C   UNL     1      -6.988   8.260  64.169  1.00  0.00    -0.077 C  
HETATM   28  C   UNL     1      -8.522   8.518  64.109  1.00  0.00    -0.052 C  
HETATM   29  C   UNL     1      -8.565   7.748  65.466  1.00  0.00    -0.126 C  
HETATM   30  C   UNL     1      -7.347   6.888  64.876  1.00  0.00    -0.087 C  
HETATM   31  C   UNL     1      -6.353   6.272  65.864  1.00  0.00    -0.039 C  
HETATM   32  C   UNL     1      -7.699   5.775  63.862  1.00  0.00    -0.094 C  
ENDBRANCH  23  24
ENDBRANCH  22  23
ENDBRANCH  21  22
ENDBRANCH  20  21
ENDBRANCH  19  20
ENDBRANCH  13  19
ENDBRANCH  12  13
ENDBRANCH   7  12
ENDBRANCH   2   3
TORSDOF 10
ENDMDL
MODEL      284
REMARK 921   NORMALIZED FREE ENERGY PREDICTED BY IDOCK:   -2.32 KCAL/MOL
REMARK 922        TOTAL FREE ENERGY PREDICTED BY IDOCK:   -4.95 KCAL/MOL
REMARK 923 INTER-LIGAND FREE ENERGY PREDICTED BY IDOCK:   -5.67 KCAL/MOL
REMARK 924 INTRA-LIGAND FREE ENERGY PREDICTED BY IDOCK:    0.72 KCAL/MOL
REMARK 927      BINDING AFFINITY PREDICTED BY RF-SCORE:    0.00 PKD
ROOT
HETATM    1  C   UNL     1     -11.901  16.200  71.060  1.00  0.00    -0.327 C  
HETATM    2  O   UNL     1     -12.756  15.228  70.476  1.00  0.00    -0.384 OA 
ENDROOT
BRANCH   2   3
HETATM    3  C   UNL     1     -12.200  14.068  70.017  1.00  0.00    -0.352 A  
HETATM    4  C   UNL     1     -12.521  12.750  70.371  1.00  0.00    -0.156 A  
HETATM    5  C   UNL     1     -11.131  14.291  69.141  1.00  0.00    -0.291 A  
HETATM    6  C   UNL     1     -11.751  11.699  69.855  1.00  0.00    -0.414 A  
HETATM    7  C   UNL     1     -10.585  11.925  69.090  1.00  0.00    -0.085 A  
HETATM    8 BR   UNL     1      -8.992  13.691  67.411  1.00  0.00    -0.231 Br 
HETATM    9  C   UNL     1     -10.348  13.239  68.663  1.00  0.00    -0.196 A  
BRANCH   4  10
HETATM   10  O   UNL     1     -13.588  12.514  71.191  1.00  0.00     0.275 OA 
HETATM   11  C   UNL     1     -13.413  12.888  72.558  1.00  0.00    -0.352 C  
ENDBRANCH   4  10
BRANCH   7  12
HETATM   12  C   UNL     1      -9.590  10.791  68.898  1.00  0.00    -0.195 C  
BRANCH  12  13
HETATM   13  N   UNL     1      -9.983   9.440  69.634  1.00  0.00    -0.185 N  
HETATM   14  O   UNL     1      -9.708   8.039  72.234  1.00  0.00    -0.188 OA 
HETATM   15  C   UNL     1      -8.697   8.682  70.100  1.00  0.00    -0.143 C  
HETATM   16  C   UNL     1      -9.047   7.537  71.072  1.00  0.00    -0.148 C  
HETATM   17  C   UNL     1     -10.734   9.839  70.941  1.00  0.00    -0.305 C  
HETATM   18  C   UNL     1     -10.947   8.668  71.902  1.00  0.00    -0.342 C  
BRANCH  13  19
HETATM   19  C   UNL     1     -10.861   8.532  68.707  1.00  0.00     0.043 C  
BRANCH  19  20
HETATM   20  C   UNL     1     -10.041   7.979  67.523  1.00  0.00    -0.219 C  
BRANCH  20  21
HETATM   21  O   UNL     1     -10.737   7.043  66.708  1.00  0.00    -0.303 OA 
BRANCH  21  22
HETATM   22  C   UNL     1      -9.944   5.855  66.441  1.00  0.00    -0.116 C  
BRANCH  22  23
HETATM   23  C   UNL     1     -10.145   4.759  67.491  1.00  0.00    -0.161 C  
BRANCH  23  24
HETATM   24  C   UNL     1      -9.043   4.588  68.552  1.00  0.00    -0.161 C  
HETATM   25  C   UNL     1      -7.674   4.521  67.818  1.00  0.00    -0.081 C  
HETATM   26  C   UNL     1      -7.032   3.128  67.754  1.00  0.00    -0.050 C  
HETATM   27  C   UNL     1      -7.571   2.200  68.843  1.00  0.00    -0.043 C  
HETATM   28  C   UNL     1      -9.101   2.012  68.629  1.00  0.00    -0.201 C  
HETATM   29  C   UNL     1      -9.238   3.335  69.445  1.00  0.00    -0.222 C  
HETATM   30  C   UNL     1      -7.946   2.829  70.248  1.00  0.00    -0.051 C  
HETATM   31  C   UNL     1      -7.023   3.882  70.867  1.00  0.00    -0.033 C  
HETATM   32  C   UNL     1      -8.171   1.755  71.336  1.00  0.00    -0.054 C  
ENDBRANCH  23  24
ENDBRANCH  22  23
ENDBRANCH  21  22
ENDBRANCH  20  21
ENDBRANCH  19  20
ENDBRANCH  13  19
ENDBRANCH  12  13
ENDBRANCH   7  12
ENDBRANCH   2   3
TORSDOF 10
ENDMDL
MODEL      285
REMARK 921   NORMALIZED FREE ENERGY PREDICTED BY IDOCK:   -2.30 KCAL/MOL
REMARK 922        TOTAL FREE ENERGY PREDICTED BY IDOCK:   -4.92 KCAL/MOL
REMARK 923 INTER-LIGAND FREE ENERGY PREDICTED BY IDOCK:   -4.61 KCAL/MOL
REMARK 924 INTRA-LIGAND FREE ENERGY PREDICTED BY IDOCK:   -0.31 KCAL/MOL
REMARK 927      BINDING AFFINITY PREDICTED BY RF-SCORE:    0.00 PKD
ROOT
HETATM    1  C   UNL     1      -5.408  11.144  71.040  1.00  0.00    -0.098 C  
HETATM    2  O   UNL     1      -5.515  12.459  70.514  1.00  0.00    -0.129 OA 
ENDROOT
BRANCH   2   3
HETATM    3  C   UNL     1      -6.256  12.645  69.381  1.00  0.00    -0.113 A  
HETATM    4  C   UNL     1      -6.962  13.788  68.983  1.00  0.00    -0.104 A  
HETATM    5  C   UNL     1      -6.343  11.488  68.597  1.00  0.00    -0.054 A  
HETATM    6  C   UNL     1      -7.750  13.733  67.824  1.00  0.00    -0.172 A  
HETATM    7  C   UNL     1      -7.957  12.531  67.112  1.00  0.00    -0.140 A  
HETATM    8 BR   UNL     1      -7.102   9.827  66.454  1.00  0.00    -0.096 Br 
HETATM    9  C   UNL     1      -7.160  11.433  67.466  1.00  0.00    -0.106 A  
BRANCH   4  10
HETATM   10  O   UNL     1      -6.853  14.936  69.714  1.00  0.00    -0.166 OA 
HETATM   11  C   UNL     1      -7.154  16.145  69.017  1.00  0.00    -0.187 C  
ENDBRANCH   4  10
BRANCH   7  12
HETATM   12  C   UNL     1      -9.109  12.442  66.123  1.00  0.00    -0.040 C  
BRANCH  12  13
HETATM   13  N   UNL     1     -10.514  12.894  66.708  1.00  0.00    -0.252 N  
HETATM   14  O   UNL     1     -12.891  14.543  66.048  1.00  0.00    -0.203 OA 
HETATM   15  C   UNL     1     -10.574  14.452  66.833  1.00  0.00    -0.278 C  
HETATM   16  C   UNL     1     -12.013  14.934  67.105  1.00  0.00    -0.114 C  
HETATM   17  C   UNL     1     -11.591  12.515  65.644  1.00  0.00    -0.389 C  
HETATM   18  C   UNL     1     -12.966  13.122  65.928  1.00  0.00     0.409 C  
BRANCH  13  19
HETATM   19  C   UNL     1     -10.792  12.212  68.091  1.00  0.00    -0.222 C  
BRANCH  19  20
HETATM   20  C   UNL     1     -11.382  10.798  67.911  1.00  0.00    -0.299 C  
BRANCH  20  21
HETATM   21  O   UNL     1     -10.778  10.034  66.872  1.00  0.00    -0.212 OA 
BRANCH  21  22
HETATM   22  C   UNL     1     -10.637   8.634  67.236  1.00  0.00    -0.238 C  
BRANCH  22  23
HETATM   23  C   UNL     1      -9.954   8.439  68.592  1.00  0.00    -0.197 C  
BRANCH  23  24
HETATM   24  C   UNL     1      -9.831   6.998  69.119  1.00  0.00    -0.158 C  
HETATM   25  C   UNL     1      -8.771   6.991  70.257  1.00  0.00    -0.144 C  
HETATM   26  C   UNL     1      -7.420   6.362  69.889  1.00  0.00    -0.088 C  
HETATM   27  C   UNL     1      -7.536   5.415  68.695  1.00  0.00    -0.075 C  
HETATM   28  C   UNL     1      -8.018   6.226  67.457  1.00  0.00    -0.109 C  
HETATM   29  C   UNL     1      -9.451   5.972  68.021  1.00  0.00    -0.113 C  
HETATM   30  C   UNL     1      -8.867   4.569  68.533  1.00  0.00    -0.128 C  
HETATM   31  C   UNL     1      -9.503   3.932  69.772  1.00  0.00    -0.264 C  
HETATM   32  C   UNL     1      -8.727   3.441  67.486  1.00  0.00    -0.134 C  
ENDBRANCH  23  24
ENDBRANCH  22  23
ENDBRANCH  21  22
ENDBRANCH  20  21
ENDBRANCH  19  20
ENDBRANCH  13  19
ENDBRANCH  12  13
ENDBRANCH   7  12
ENDBRANCH   2   3
TORSDOF 10
ENDMDL
MODEL      286
REMARK 921   NORMALIZED FREE ENERGY PREDICTED BY IDOCK:   -2.27 KCAL/MOL
REMARK 922        TOTAL FREE ENERGY PREDICTED BY IDOCK:   -4.88 KCAL/MOL
REMARK 923 INTER-LIGAND FREE ENERGY PREDICTED BY IDOCK:   -3.72 KCAL/MOL
REMARK 924 INTRA-LIGAND FREE ENERGY PREDICTED BY IDOCK:   -1.16 KCAL/MOL
REMARK 927      BINDING AFFINITY PREDICTED BY RF-SCORE:    0.00 PKD
ROOT
HETATM    1  C   UNL     1      -8.332   7.455  74.564  1.00  0.00    -0.204 C  
HETATM    2  O   UNL     1      -7.088   7.156  73.947  1.00  0.00    -0.083 OA 
ENDROOT
BRANCH   2   3
HETATM    3  C   UNL     1      -7.099   6.455  72.774  1.00  0.00    -0.078 A  
HETATM    4  C   UNL     1      -7.309   5.083  72.584  1.00  0.00    -0.090 A  
HETATM    5  C   UNL     1      -6.781   7.251  71.667  1.00  0.00    -0.051 A  
HETATM    6  C   UNL     1      -7.174   4.545  71.296  1.00  0.00    -0.044 A  
HETATM    7  C   UNL     1      -6.712   5.313  70.205  1.00  0.00    -0.044 A  
HETATM    8 BR   UNL     1      -6.273   7.917  68.979  1.00  0.00    -0.040 Br 
HETATM    9  C   UNL     1      -6.613   6.699  70.396  1.00  0.00    -0.048 A  
BRANCH   4  10
HETATM   10  O   UNL     1      -7.661   4.302  73.647  1.00  0.00    -0.075 OA 
HETATM   11  C   UNL     1      -6.832   3.162  73.880  1.00  0.00    -0.036 C  
ENDBRANCH   4  10
BRANCH   7  12
HETATM   12  C   UNL     1      -6.214   4.605  68.954  1.00  0.00    -0.031 C  
BRANCH  12  13
HETATM   13  N   UNL     1      -7.347   3.869  68.120  1.00  0.00    -0.059 N  
HETATM   14  O   UNL     1      -7.806   1.491  66.406  1.00  0.00    -0.067 OA 
HETATM   15  C   UNL     1      -6.935   3.769  66.615  1.00  0.00    -0.059 C  
HETATM   16  C   UNL     1      -7.860   2.804  65.847  1.00  0.00    -0.081 C  
HETATM   17  C   UNL     1      -7.409   2.399  68.639  1.00  0.00    -0.047 C  
HETATM   18  C   UNL     1      -8.260   1.481  67.760  1.00  0.00    -0.060 C  
BRANCH  13  19
HETATM   19  C   UNL     1      -8.723   4.604  68.274  1.00  0.00    -0.102 C  
BRANCH  19  20
HETATM   20  C   UNL     1      -8.911   5.677  67.182  1.00  0.00    -0.106 C  
BRANCH  20  21
HETATM   21  O   UNL     1     -10.268   5.991  66.889  1.00  0.00    -0.168 OA 
BRANCH  21  22
HETATM   22  C   UNL     1     -10.478   7.422  66.743  1.00  0.00    -0.246 C  
BRANCH  22  23
HETATM   23  C   UNL     1     -10.776   8.117  68.074  1.00  0.00    -0.108 C  
BRANCH  23  24
HETATM   24  C   UNL     1      -9.836   9.260  68.499  1.00  0.00    -0.173 C  
HETATM   25  C   UNL     1     -10.365   9.844  69.839  1.00  0.00    -0.298 C  
HETATM   26  C   UNL     1     -11.049  11.214  69.733  1.00  0.00    -0.271 C  
HETATM   27  C   UNL     1     -10.628  11.967  68.470  1.00  0.00    -0.245 C  
HETATM   28  C   UNL     1     -11.059  11.138  67.225  1.00  0.00    -0.366 C  
HETATM   29  C   UNL     1      -9.711  10.380  67.434  1.00  0.00    -0.191 C  
HETATM   30  C   UNL     1      -9.141  11.787  67.950  1.00  0.00    -0.181 C  
HETATM   31  C   UNL     1      -7.991  11.773  68.960  1.00  0.00     0.100 C  
HETATM   32  C   UNL     1      -8.762  12.829  66.873  1.00  0.00    -0.169 C  
ENDBRANCH  23  24
ENDBRANCH  22  23
ENDBRANCH  21  22
ENDBRANCH  20  21
ENDBRANCH  19  20
ENDBRANCH  13  19
ENDBRANCH  12  13
ENDBRANCH   7  12
ENDBRANCH   2   3
TORSDOF 10
ENDMDL
MODEL      287
REMARK 921   NORMALIZED FREE ENERGY PREDICTED BY IDOCK:   -2.27 KCAL/MOL
REMARK 922        TOTAL FREE ENERGY PREDICTED BY IDOCK:   -4.87 KCAL/MOL
REMARK 923 INTER-LIGAND FREE ENERGY PREDICTED BY IDOCK:   -5.27 KCAL/MOL
REMARK 924 INTRA-LIGAND FREE ENERGY PREDICTED BY IDOCK:    0.40 KCAL/MOL
REMARK 927      BINDING AFFINITY PREDICTED BY RF-SCORE:    0.00 PKD
ROOT
HETATM    1  C   UNL     1      -5.585  11.026  71.058  1.00  0.00    -0.041 C  
HETATM    2  O   UNL     1      -5.269  12.329  70.589  1.00  0.00    -0.110 OA 
ENDROOT
BRANCH   2   3
HETATM    3  C   UNL     1      -5.912  12.790  69.475  1.00  0.00    -0.112 A  
HETATM    4  C   UNL     1      -6.275  14.108  69.165  1.00  0.00    -0.101 A  
HETATM    5  C   UNL     1      -6.296  11.760  68.608  1.00  0.00    -0.057 A  
HETATM    6  C   UNL     1      -7.027  14.353  68.008  1.00  0.00    -0.149 A  
HETATM    7  C   UNL     1      -7.541  13.307  67.209  1.00  0.00    -0.079 A  
HETATM    8 BR   UNL     1      -7.440  10.527  66.350  1.00  0.00    -0.138 Br 
HETATM    9  C   UNL     1      -7.077  12.012  67.479  1.00  0.00    -0.129 A  
BRANCH   4  10
HETATM   10  O   UNL     1      -5.871  15.127  69.979  1.00  0.00    -0.122 OA 
HETATM   11  C   UNL     1      -5.691  16.393  69.344  1.00  0.00    -0.149 C  
ENDBRANCH   4  10
BRANCH   7  12
HETATM   12  C   UNL     1      -8.656  13.606  66.219  1.00  0.00     0.567 C  
BRANCH  12  13
HETATM   13  N   UNL     1      -9.579  14.835  66.620  1.00  0.00    -0.258 N  
HETATM   14  O   UNL     1     -10.532  17.458  65.614  1.00  0.00    -0.577 OA 
HETATM   15  C   UNL     1      -8.741  16.155  66.655  1.00  0.00    -0.265 C  
HETATM   16  C   UNL     1      -9.655  17.393  66.739  1.00  0.00    -0.277 C  
HETATM   17  C   UNL     1     -10.611  15.021  65.465  1.00  0.00    -0.363 C  
HETATM   18  C   UNL     1     -11.402  16.327  65.563  1.00  0.00     0.258 C  
BRANCH  13  19
HETATM   19  C   UNL     1     -10.281  14.583  67.999  1.00  0.00    -0.233 C  
BRANCH  19  20
HETATM   20  C   UNL     1     -11.210  13.354  67.938  1.00  0.00    -0.275 C  
BRANCH  20  21
HETATM   21  O   UNL     1     -10.571  12.148  67.533  1.00  0.00    -0.208 OA 
BRANCH  21  22
HETATM   22  C   UNL     1     -10.627  11.127  68.566  1.00  0.00    -0.191 C  
BRANCH  22  23
HETATM   23  C   UNL     1     -11.924  11.173  69.376  1.00  0.00    -0.420 C  
BRANCH  23  24
HETATM   24  C   UNL     1     -12.438   9.846  69.962  1.00  0.00     0.180 C  
HETATM   25  C   UNL     1     -13.196  10.164  71.282  1.00  0.00    -0.453 C  
HETATM   26  C   UNL     1     -12.455   9.786  72.572  1.00  0.00     0.195 C  
HETATM   27  C   UNL     1     -11.386   8.720  72.325  1.00  0.00    -0.356 C  
HETATM   28  C   UNL     1     -10.329   9.291  71.336  1.00  0.00    -0.392 C  
HETATM   29  C   UNL     1     -11.312   8.813  70.223  1.00  0.00    -0.162 C  
HETATM   30  C   UNL     1     -11.669   7.613  71.226  1.00  0.00    -0.308 C  
HETATM   31  C   UNL     1     -13.064   6.988  71.136  1.00  0.00    -0.260 C  
HETATM   32  C   UNL     1     -10.669   6.437  71.300  1.00  0.00    -0.288 C  
ENDBRANCH  23  24
ENDBRANCH  22  23
ENDBRANCH  21  22
ENDBRANCH  20  21
ENDBRANCH  19  20
ENDBRANCH  13  19
ENDBRANCH  12  13
ENDBRANCH   7  12
ENDBRANCH   2   3
TORSDOF 10
ENDMDL
MODEL      288
REMARK 921   NORMALIZED FREE ENERGY PREDICTED BY IDOCK:   -2.12 KCAL/MOL
REMARK 922        TOTAL FREE ENERGY PREDICTED BY IDOCK:   -4.64 KCAL/MOL
REMARK 923 INTER-LIGAND FREE ENERGY PREDICTED BY IDOCK:   -4.85 KCAL/MOL
REMARK 924 INTRA-LIGAND FREE ENERGY PREDICTED BY IDOCK:    0.21 KCAL/MOL
REMARK 927      BINDING AFFINITY PREDICTED BY RF-SCORE:    0.00 PKD
ROOT
HETATM    1  C   UNL     1     -11.553  13.068  63.027  1.00  0.00     0.337 C  
HETATM    2  O   UNL     1     -12.275  12.058  63.717  1.00  0.00    -0.475 OA 
ENDROOT
BRANCH   2   3
HETATM    3  C   UNL     1     -11.813  11.650  64.937  1.00  0.00     0.052 A  
HETATM    4  C   UNL     1     -11.949  12.292  66.176  1.00  0.00    -0.249 A  
HETATM    5  C   UNL     1     -11.054  10.477  64.862  1.00  0.00     0.695 A  
HETATM    6  C   UNL     1     -11.305  11.751  67.297  1.00  0.00    -0.379 A  
HETATM    7  C   UNL     1     -10.422  10.652  67.200  1.00  0.00    -0.295 A  
HETATM    8 BR   UNL     1      -9.474   8.319  65.740  1.00  0.00     0.081 Br 
HETATM    9  C   UNL     1     -10.387   9.967  65.977  1.00  0.00    -0.152 A  
BRANCH   4  10
HETATM   10  O   UNL     1     -12.721  13.414  66.272  1.00  0.00    -0.267 OA 
HETATM   11  C   UNL     1     -12.045  14.595  66.705  1.00  0.00    -0.200 C  
ENDBRANCH   4  10
BRANCH   7  12
HETATM   12  C   UNL     1      -9.465  10.364  68.347  1.00  0.00    -0.149 C  
BRANCH  12  13
HETATM   13  N   UNL     1      -8.053  11.080  68.220  1.00  0.00    -0.121 N  
HETATM   14  O   UNL     1      -5.144  10.554  68.470  1.00  0.00    -0.035 OA 
HETATM   15  C   UNL     1      -7.281  11.002  69.577  1.00  0.00    -0.090 C  
HETATM   16  C   UNL     1      -5.804  11.411  69.403  1.00  0.00    -0.063 C  
HETATM   17  C   UNL     1      -7.211  10.244  67.207  1.00  0.00    -0.089 C  
HETATM   18  C   UNL     1      -5.734  10.640  67.172  1.00  0.00    -0.043 C  
BRANCH  13  19
HETATM   19  C   UNL     1      -8.218  12.568  67.757  1.00  0.00    -0.166 C  
BRANCH  19  20
HETATM   20  C   UNL     1      -7.601  13.545  68.780  1.00  0.00    -0.066 C  
BRANCH  20  21
HETATM   21  O   UNL     1      -7.643  14.913  68.389  1.00  0.00    -0.104 OA 
BRANCH  21  22
HETATM   22  C   UNL     1      -8.092  15.776  69.469  1.00  0.00    -0.137 C  
BRANCH  22  23
HETATM   23  C   UNL     1      -8.968  16.931  68.980  1.00  0.00    -0.167 C  
BRANCH  23  24
HETATM   24  C   UNL     1      -8.253  18.220  68.535  1.00  0.00    -0.329 C  
HETATM   25  C   UNL     1      -9.241  19.406  68.720  1.00  0.00    -0.422 C  
HETATM   26  C   UNL     1      -9.838  19.971  67.424  1.00  0.00    -0.558 C  
HETATM   27  C   UNL     1      -8.979  19.633  66.204  1.00  0.00    -0.375 C  
HETATM   28  C   UNL     1      -8.919  18.085  66.048  1.00  0.00     0.001 C  
HETATM   29  C   UNL     1      -7.744  18.166  67.072  1.00  0.00    -0.237 C  
HETATM   30  C   UNL     1      -7.406  19.575  66.387  1.00  0.00    -0.265 C  
HETATM   31  C   UNL     1      -6.711  20.643  67.237  1.00  0.00    -0.350 C  
HETATM   32  C   UNL     1      -6.655  19.539  65.036  1.00  0.00    -0.235 C  
ENDBRANCH  23  24
ENDBRANCH  22  23
ENDBRANCH  21  22
ENDBRANCH  20  21
ENDBRANCH  19  20
ENDBRANCH  13  19
ENDBRANCH  12  13
ENDBRANCH   7  12
ENDBRANCH   2   3
TORSDOF 10
ENDMDL
MODEL      289
REMARK 921   NORMALIZED FREE ENERGY PREDICTED BY IDOCK:   -2.11 KCAL/MOL
REMARK 922        TOTAL FREE ENERGY PREDICTED BY IDOCK:   -4.62 KCAL/MOL
REMARK 923 INTER-LIGAND FREE ENERGY PREDICTED BY IDOCK:   -4.86 KCAL/MOL
REMARK 924 INTRA-LIGAND FREE ENERGY PREDICTED BY IDOCK:    0.24 KCAL/MOL
REMARK 927      BINDING AFFINITY PREDICTED BY RF-SCORE:    0.00 PKD
ROOT
HETATM    1  C   UNL     1     -13.121  13.001  64.485  1.00  0.00     0.148 C  
HETATM    2  O   UNL     1     -12.284  11.990  65.026  1.00  0.00    -0.366 OA 
ENDROOT
BRANCH   2   3
HETATM    3  C   UNL     1     -11.362  12.348  65.969  1.00  0.00    -0.353 A  
HETATM    4  C   UNL     1     -10.344  13.306  65.869  1.00  0.00    -0.292 A  
HETATM    5  C   UNL     1     -11.450  11.573  67.131  1.00  0.00    -0.313 A  
HETATM    6  C   UNL     1      -9.434  13.446  66.926  1.00  0.00    -0.253 A  
HETATM    7  C   UNL     1      -9.428  12.571  68.035  1.00  0.00    -0.209 A  
HETATM    8 BR   UNL     1     -10.820  10.641  69.713  1.00  0.00    -0.297 Br 
HETATM    9  C   UNL     1     -10.515  11.695  68.162  1.00  0.00    -0.195 A  
BRANCH   4  10
HETATM   10  O   UNL     1     -10.272  14.098  64.759  1.00  0.00    -0.419 OA 
HETATM   11  C   UNL     1     -10.336  15.505  64.997  1.00  0.00    -0.293 C  
ENDBRANCH   4  10
BRANCH   7  12
HETATM   12  C   UNL     1      -8.202  12.516  68.933  1.00  0.00     0.236 C  
BRANCH  12  13
HETATM   13  N   UNL     1      -7.167  13.699  68.704  1.00  0.00    -0.106 N  
HETATM   14  O   UNL     1      -6.225  16.237  69.917  1.00  0.00    -0.200 OA 
HETATM   15  C   UNL     1      -7.919  15.065  68.595  1.00  0.00    -0.153 C  
HETATM   16  C   UNL     1      -6.936  16.250  68.679  1.00  0.00    -0.148 C  
HETATM   17  C   UNL     1      -6.300  13.797  69.998  1.00  0.00    -0.084 C  
HETATM   18  C   UNL     1      -5.433  15.056  70.054  1.00  0.00    -0.116 C  
BRANCH  13  19
HETATM   19  C   UNL     1      -6.292  13.440  67.430  1.00  0.00     0.025 C  
BRANCH  19  20
HETATM   20  C   UNL     1      -5.344  12.240  67.635  1.00  0.00    -0.097 C  
BRANCH  20  21
HETATM   21  O   UNL     1      -5.840  11.239  68.518  1.00  0.00    -0.043 OA 
BRANCH  21  22
HETATM   22  C   UNL     1      -5.650   9.900  67.987  1.00  0.00    -0.039 C  
BRANCH  22  23
HETATM   23  C   UNL     1      -6.630   9.563  66.861  1.00  0.00    -0.068 C  
BRANCH  23  24
HETATM   24  C   UNL     1      -7.983   8.949  67.264  1.00  0.00    -0.097 C  
HETATM   25  C   UNL     1      -7.934   8.635  68.786  1.00  0.00    -0.114 C  
HETATM   26  C   UNL     1      -7.801   7.149  69.146  1.00  0.00    -0.118 C  
HETATM   27  C   UNL     1      -8.262   6.241  68.004  1.00  0.00    -0.115 C  
HETATM   28  C   UNL     1      -7.358   6.499  66.764  1.00  0.00    -0.079 C  
HETATM   29  C   UNL     1      -8.341   7.671  66.462  1.00  0.00    -0.129 C  
HETATM   30  C   UNL     1      -9.469   6.727  67.100  1.00  0.00    -0.167 C  
HETATM   31  C   UNL     1     -10.679   7.393  67.761  1.00  0.00    -0.249 C  
HETATM   32  C   UNL     1     -10.029   5.598  66.206  1.00  0.00    -0.154 C  
ENDBRANCH  23  24
ENDBRANCH  22  23
ENDBRANCH  21  22
ENDBRANCH  20  21
ENDBRANCH  19  20
ENDBRANCH  13  19
ENDBRANCH  12  13
ENDBRANCH   7  12
ENDBRANCH   2   3
TORSDOF 10
ENDMDL
MODEL      290
REMARK 921   NORMALIZED FREE ENERGY PREDICTED BY IDOCK:   -2.06 KCAL/MOL
REMARK 922        TOTAL FREE ENERGY PREDICTED BY IDOCK:   -4.54 KCAL/MOL
REMARK 923 INTER-LIGAND FREE ENERGY PREDICTED BY IDOCK:   -5.20 KCAL/MOL
REMARK 924 INTRA-LIGAND FREE ENERGY PREDICTED BY IDOCK:    0.66 KCAL/MOL
REMARK 927      BINDING AFFINITY PREDICTED BY RF-SCORE:    0.00 PKD
ROOT
HETATM    1  C   UNL     1      -8.633  10.263  63.786  1.00  0.00    -0.187 C  
HETATM    2  O   UNL     1     -10.031  10.058  63.925  1.00  0.00    -0.108 OA 
ENDROOT
BRANCH   2   3
HETATM    3  C   UNL     1     -10.715  10.842  64.812  1.00  0.00    -0.178 A  
HETATM    4  C   UNL     1     -11.321  12.085  64.583  1.00  0.00    -0.318 A  
HETATM    5  C   UNL     1     -10.713  10.318  66.110  1.00  0.00    -0.042 A  
HETATM    6  C   UNL     1     -11.887  12.776  65.664  1.00  0.00    -0.472 A  
HETATM    7  C   UNL     1     -11.759  12.323  66.996  1.00  0.00    -0.399 A  
HETATM    8 BR   UNL     1     -11.252  10.151  68.868  1.00  0.00    -0.182 Br 
HETATM    9  C   UNL     1     -11.246  11.032  67.185  1.00  0.00    -0.217 A  
BRANCH   4  10
HETATM   10  O   UNL     1     -11.368  12.589  63.315  1.00  0.00    -0.456 OA 
HETATM   11  C   UNL     1     -12.219  13.721  63.130  1.00  0.00     0.317 C  
ENDBRANCH   4  10
BRANCH   7  12
HETATM   12  C   UNL     1     -12.036  13.287  68.140  1.00  0.00    -0.304 C  
BRANCH  12  13
HETATM   13  N   UNL     1     -10.767  14.108  68.629  1.00  0.00    -0.248 N  
HETATM   14  O   UNL     1      -9.803  16.884  69.031  1.00  0.00    -0.259 OA 
HETATM   15  C   UNL     1     -10.250  15.040  67.485  1.00  0.00    -0.234 C  
HETATM   16  C   UNL     1      -9.224  16.060  68.019  1.00  0.00    -0.193 C  
HETATM   17  C   UNL     1     -11.256  15.062  69.762  1.00  0.00    -0.277 C  
HETATM   18  C   UNL     1     -10.218  16.114  70.159  1.00  0.00     0.054 C  
BRANCH  13  19
HETATM   19  C   UNL     1      -9.632  13.146  69.120  1.00  0.00     0.547 C  
BRANCH  19  20
HETATM   20  C   UNL     1      -8.442  13.136  68.139  1.00  0.00    -0.173 C  
BRANCH  20  21
HETATM   21  O   UNL     1      -8.175  11.869  67.546  1.00  0.00    -0.139 OA 
BRANCH  21  22
HETATM   22  C   UNL     1      -7.608  10.929  68.498  1.00  0.00    -0.111 C  
BRANCH  22  23
HETATM   23  C   UNL     1      -7.651   9.482  68.000  1.00  0.00    -0.086 C  
BRANCH  23  24
HETATM   24  C   UNL     1      -8.807   8.598  68.502  1.00  0.00    -0.142 C  
HETATM   25  C   UNL     1      -8.908   8.769  70.044  1.00  0.00    -0.149 C  
HETATM   26  C   UNL     1      -8.399   7.579  70.870  1.00  0.00    -0.114 C  
HETATM   27  C   UNL     1      -8.384   6.284  70.058  1.00  0.00    -0.129 C  
HETATM   28  C   UNL     1      -7.413   6.458  68.854  1.00  0.00    -0.088 C  
HETATM   29  C   UNL     1      -8.639   7.101  68.135  1.00  0.00    -0.129 C  
HETATM   30  C   UNL     1      -9.523   6.062  68.978  1.00  0.00    -0.143 C  
HETATM   31  C   UNL     1     -10.964   6.450  69.319  1.00  0.00    -0.418 C  
HETATM   32  C   UNL     1      -9.575   4.604  68.465  1.00  0.00    -0.220 C  
ENDBRANCH  23  24
ENDBRANCH  22  23
ENDBRANCH  21  22
ENDBRANCH  20  21
ENDBRANCH  19  20
ENDBRANCH  13  19
ENDBRANCH  12  13
ENDBRANCH   7  12
ENDBRANCH   2   3
TORSDOF 10
ENDMDL
MODEL      291
REMARK 921   NORMALIZED FREE ENERGY PREDICTED BY IDOCK:   -1.98 KCAL/MOL
REMARK 922        TOTAL FREE ENERGY PREDICTED BY IDOCK:   -4.41 KCAL/MOL
REMARK 923 INTER-LIGAND FREE ENERGY PREDICTED BY IDOCK:   -4.14 KCAL/MOL
REMARK 924 INTRA-LIGAND FREE ENERGY PREDICTED BY IDOCK:   -0.26 KCAL/MOL
REMARK 927      BINDING AFFINITY PREDICTED BY RF-SCORE:    0.00 PKD
ROOT
HETATM    1  C   UNL     1      -6.261   9.570  74.426  1.00  0.00     0.301 C  
HETATM    2  O   UNL     1      -5.515   8.675  73.614  1.00  0.00    -0.081 OA 
ENDROOT
BRANCH   2   3
HETATM    3  C   UNL     1      -6.055   8.277  72.424  1.00  0.00    -0.061 A  
HETATM    4  C   UNL     1      -6.740   7.088  72.136  1.00  0.00    -0.057 A  
HETATM    5  C   UNL     1      -5.795   9.177  71.385  1.00  0.00    -0.066 A  
HETATM    6  C   UNL     1      -7.125   6.827  70.813  1.00  0.00    -0.068 A  
HETATM    7  C   UNL     1      -6.739   7.660  69.739  1.00  0.00    -0.039 A  
HETATM    8 BR   UNL     1      -5.815  10.250  68.781  1.00  0.00    -0.040 Br 
HETATM    9  C   UNL     1      -6.151   8.891  70.065  1.00  0.00    -0.037 A  
BRANCH   4  10
HETATM   10  O   UNL     1      -7.038   6.220  73.146  1.00  0.00    -0.082 OA 
HETATM   11  C   UNL     1      -5.933   5.491  73.683  1.00  0.00    -0.051 C  
ENDBRANCH   4  10
BRANCH   7  12
HETATM   12  C   UNL     1      -6.840   7.133  68.316  1.00  0.00    -0.074 C  
BRANCH  12  13
HETATM   13  N   UNL     1      -8.141   6.272  68.024  1.00  0.00    -0.114 N  
HETATM   14  O   UNL     1      -9.888   4.205  69.241  1.00  0.00    -0.180 OA 
HETATM   15  C   UNL     1      -7.805   4.745  68.075  1.00  0.00    -0.082 C  
HETATM   16  C   UNL     1      -9.089   3.892  68.100  1.00  0.00    -0.142 C  
HETATM   17  C   UNL     1      -9.126   6.526  69.207  1.00  0.00    -0.137 C  
HETATM   18  C   UNL     1     -10.318   5.567  69.222  1.00  0.00    -0.265 C  
BRANCH  13  19
HETATM   19  C   UNL     1      -8.772   6.658  66.643  1.00  0.00    -0.126 C  
BRANCH  19  20
HETATM   20  C   UNL     1      -7.692   6.779  65.548  1.00  0.00    -0.101 C  
BRANCH  20  21
HETATM   21  O   UNL     1      -8.139   7.390  64.342  1.00  0.00    -0.134 OA 
BRANCH  21  22
HETATM   22  C   UNL     1      -7.768   8.793  64.270  1.00  0.00    -0.125 C  
BRANCH  22  23
HETATM   23  C   UNL     1      -8.962   9.709  63.991  1.00  0.00    -0.261 C  
BRANCH  23  24
HETATM   24  C   UNL     1      -9.904  10.019  65.169  1.00  0.00    -0.388 C  
HETATM   25  C   UNL     1     -10.713  11.298  64.814  1.00  0.00    -0.352 C  
HETATM   26  C   UNL     1     -10.291  12.570  65.562  1.00  0.00    -0.303 C  
HETATM   27  C   UNL     1      -9.543  12.250  66.857  1.00  0.00    -0.214 C  
HETATM   28  C   UNL     1      -8.243  11.470  66.504  1.00  0.00    -0.129 C  
HETATM   29  C   UNL     1      -9.161  10.208  66.517  1.00  0.00    -0.182 C  
HETATM   30  C   UNL     1      -9.975  10.962  67.674  1.00  0.00    -0.197 C  
HETATM   31  C   UNL     1     -11.463  10.642  67.836  1.00  0.00    -0.261 C  
HETATM   32  C   UNL     1      -9.366  10.933  69.095  1.00  0.00    -0.096 C  
ENDBRANCH  23  24
ENDBRANCH  22  23
ENDBRANCH  21  22
ENDBRANCH  20  21
ENDBRANCH  19  20
ENDBRANCH  13  19
ENDBRANCH  12  13
ENDBRANCH   7  12
ENDBRANCH   2   3
TORSDOF 10
ENDMDL
MODEL      292
REMARK 921   NORMALIZED FREE ENERGY PREDICTED BY IDOCK:   -1.97 KCAL/MOL
REMARK 922        TOTAL FREE ENERGY PREDICTED BY IDOCK:   -4.39 KCAL/MOL
REMARK 923 INTER-LIGAND FREE ENERGY PREDICTED BY IDOCK:   -4.23 KCAL/MOL
REMARK 924 INTRA-LIGAND FREE ENERGY PREDICTED BY IDOCK:   -0.16 KCAL/MOL
REMARK 927      BINDING AFFINITY PREDICTED BY RF-SCORE:    0.00 PKD
ROOT
HETATM    1  C   UNL     1     -10.529   4.791  68.818  1.00  0.00     0.232 C  
HETATM    2  O   UNL     1      -9.388   4.915  69.655  1.00  0.00    -0.110 OA 
ENDROOT
BRANCH   2   3
HETATM    3  C   UNL     1      -8.304   5.595  69.175  1.00  0.00    -0.100 A  
HETATM    4  C   UNL     1      -7.905   6.907  69.462  1.00  0.00    -0.120 A  
HETATM    5  C   UNL     1      -7.583   4.860  68.226  1.00  0.00    -0.078 A  
HETATM    6  C   UNL     1      -6.810   7.452  68.776  1.00  0.00    -0.072 A  
HETATM    7  C   UNL     1      -6.171   6.769  67.717  1.00  0.00    -0.040 A  
HETATM    8 BR   UNL     1      -5.579   4.275  66.337  1.00  0.00    -0.018 Br 
HETATM    9  C   UNL     1      -6.517   5.425  67.523  1.00  0.00    -0.051 A  
BRANCH   4  10
HETATM   10  O   UNL     1      -8.573   7.621  70.415  1.00  0.00    -0.135 OA 
HETATM   11  C   UNL     1      -8.228   7.322  71.768  1.00  0.00    -0.104 C  
ENDBRANCH   4  10
BRANCH   7  12
HETATM   12  C   UNL     1      -5.272   7.546  66.767  1.00  0.00    -0.023 C  
BRANCH  12  13
HETATM   13  N   UNL     1      -6.033   8.228  65.552  1.00  0.00    -0.044 N  
HETATM   14  O   UNL     1      -5.543   9.783  63.074  1.00  0.00    -0.087 OA 
HETATM   15  C   UNL     1      -5.733   9.762  65.514  1.00  0.00    -0.058 C  
HETATM   16  C   UNL     1      -6.203  10.389  64.186  1.00  0.00    -0.061 C  
HETATM   17  C   UNL     1      -5.413   7.644  64.245  1.00  0.00    -0.033 C  
HETATM   18  C   UNL     1      -5.845   8.391  62.982  1.00  0.00    -0.077 C  
BRANCH  13  19
HETATM   19  C   UNL     1      -7.576   7.964  65.637  1.00  0.00    -0.084 C  
BRANCH  19  20
HETATM   20  C   UNL     1      -8.369   9.286  65.677  1.00  0.00    -0.123 C  
BRANCH  20  21
HETATM   21  O   UNL     1      -9.781   9.131  65.572  1.00  0.00    -0.247 OA 
BRANCH  21  22
HETATM   22  C   UNL     1     -10.494  10.324  65.998  1.00  0.00    -0.111 C  
BRANCH  22  23
HETATM   23  C   UNL     1     -10.420  10.550  67.510  1.00  0.00    -0.284 C  
BRANCH  23  24
HETATM   24  C   UNL     1     -10.821  11.941  68.035  1.00  0.00    -0.256 C  
HETATM   25  C   UNL     1     -11.728  12.615  66.968  1.00  0.00    -0.438 C  
HETATM   26  C   UNL     1     -11.066  13.741  66.162  1.00  0.00    -0.296 C  
HETATM   27  C   UNL     1      -9.859  14.333  66.891  1.00  0.00    -0.264 C  
HETATM   28  C   UNL     1      -8.793  13.215  67.082  1.00  0.00    -0.222 C  
HETATM   29  C   UNL     1      -9.606  12.848  68.362  1.00  0.00    -0.176 C  
HETATM   30  C   UNL     1      -9.906  14.419  68.473  1.00  0.00    -0.233 C  
HETATM   31  C   UNL     1     -11.201  14.861  69.160  1.00  0.00    -0.293 C  
HETATM   32  C   UNL     1      -8.782  15.310  69.049  1.00  0.00    -0.226 C  
ENDBRANCH  23  24
ENDBRANCH  22  23
ENDBRANCH  21  22
ENDBRANCH  20  21
ENDBRANCH  19  20
ENDBRANCH  13  19
ENDBRANCH  12  13
ENDBRANCH   7  12
ENDBRANCH   2   3
TORSDOF 10
ENDMDL
MODEL      293
REMARK 921   NORMALIZED FREE ENERGY PREDICTED BY IDOCK:   -1.95 KCAL/MOL
REMARK 922        TOTAL FREE ENERGY PREDICTED BY IDOCK:   -4.36 KCAL/MOL
REMARK 923 INTER-LIGAND FREE ENERGY PREDICTED BY IDOCK:   -4.21 KCAL/MOL
REMARK 924 INTRA-LIGAND FREE ENERGY PREDICTED BY IDOCK:   -0.15 KCAL/MOL
REMARK 927      BINDING AFFINITY PREDICTED BY RF-SCORE:    0.00 PKD
ROOT
HETATM    1  C   UNL     1     -13.922   9.816  72.007  1.00  0.00    -0.063 C  
HETATM    2  O   UNL     1     -12.770  10.643  72.069  1.00  0.00    -0.366 OA 
ENDROOT
BRANCH   2   3
HETATM    3  C   UNL     1     -12.273  11.150  70.901  1.00  0.00    -0.364 A  
HETATM    4  C   UNL     1     -12.391  12.454  70.401  1.00  0.00    -0.227 A  
HETATM    5  C   UNL     1     -11.642  10.178  70.116  1.00  0.00    -0.350 A  
HETATM    6  C   UNL     1     -11.892  12.741  69.123  1.00  0.00    -0.352 A  
HETATM    7  C   UNL     1     -11.386  11.736  68.269  1.00  0.00    -0.343 A  
HETATM    8 BR   UNL     1     -10.265   9.071  67.923  1.00  0.00    -0.287 Br 
HETATM    9  C   UNL     1     -11.182  10.466  68.829  1.00  0.00    -0.241 A  
BRANCH   4  10
HETATM   10  O   UNL     1     -12.966  13.422  71.173  1.00  0.00    -0.304 OA 
HETATM   11  C   UNL     1     -14.390  13.510  71.098  1.00  0.00     1.288 C  
ENDBRANCH   4  10
BRANCH   7  12
HETATM   12  C   UNL     1     -11.234  12.028  66.784  1.00  0.00    -0.322 C  
BRANCH  12  13
HETATM   13  N   UNL     1     -10.372  13.320  66.454  1.00  0.00    -0.280 N  
HETATM   14  O   UNL     1     -10.478  16.283  66.570  1.00  0.00    -0.301 OA 
HETATM   15  C   UNL     1     -11.119  14.221  65.417  1.00  0.00    -0.327 C  
HETATM   16  C   UNL     1     -10.461  15.611  65.310  1.00  0.00    -0.412 C  
HETATM   17  C   UNL     1     -10.297  14.161  67.766  1.00  0.00    -0.242 C  
HETATM   18  C   UNL     1      -9.732  15.567  67.555  1.00  0.00    -0.215 C  
BRANCH  13  19
HETATM   19  C   UNL     1      -8.949  12.927  65.928  1.00  0.00     0.400 C  
BRANCH  19  20
HETATM   20  C   UNL     1      -8.351  11.764  66.746  1.00  0.00    -0.165 C  
BRANCH  20  21
HETATM   21  O   UNL     1      -7.006  11.436  66.411  1.00  0.00    -0.100 OA 
BRANCH  21  22
HETATM   22  C   UNL     1      -6.624  10.124  66.905  1.00  0.00    -0.075 C  
BRANCH  22  23
HETATM   23  C   UNL     1      -5.928  10.183  68.267  1.00  0.00    -0.041 C  
BRANCH  23  24
HETATM   24  C   UNL     1      -6.749   9.761  69.499  1.00  0.00    -0.054 C  
HETATM   25  C   UNL     1      -6.311  10.650  70.696  1.00  0.00    -0.015 C  
HETATM   26  C   UNL     1      -5.442   9.949  71.749  1.00  0.00    -0.013 C  
HETATM   27  C   UNL     1      -5.604   8.429  71.705  1.00  0.00    -0.039 C  
HETATM   28  C   UNL     1      -5.142   7.917  70.310  1.00  0.00    -0.023 C  
HETATM   29  C   UNL     1      -6.595   8.260  69.855  1.00  0.00    -0.039 C  
HETATM   30  C   UNL     1      -7.028   7.837  71.340  1.00  0.00    -0.053 C  
HETATM   31  C   UNL     1      -8.282   8.481  71.937  1.00  0.00    -0.201 C  
HETATM   32  C   UNL     1      -7.133   6.324  71.637  1.00  0.00    -0.082 C  
ENDBRANCH  23  24
ENDBRANCH  22  23
ENDBRANCH  21  22
ENDBRANCH  20  21
ENDBRANCH  19  20
ENDBRANCH  13  19
ENDBRANCH  12  13
ENDBRANCH   7  12
ENDBRANCH   2   3
TORSDOF 10
ENDMDL
MODEL      294
REMARK 921   NORMALIZED FREE ENERGY PREDICTED BY IDOCK:   -1.87 KCAL/MOL
REMARK 922        TOTAL FREE ENERGY PREDICTED BY IDOCK:   -4.23 KCAL/MOL
REMARK 923 INTER-LIGAND FREE ENERGY PREDICTED BY IDOCK:   -3.71 KCAL/MOL
REMARK 924 INTRA-LIGAND FREE ENERGY PREDICTED BY IDOCK:   -0.52 KCAL/MOL
REMARK 927      BINDING AFFINITY PREDICTED BY RF-SCORE:    0.00 PKD
ROOT
HETATM    1  C   UNL     1      -7.695   3.116  69.370  1.00  0.00    -0.047 C  
HETATM    2  O   UNL     1      -6.845   4.248  69.253  1.00  0.00    -0.044 OA 
ENDROOT
BRANCH   2   3
HETATM    3  C   UNL     1      -7.296   5.326  68.544  1.00  0.00    -0.071 A  
HETATM    4  C   UNL     1      -7.220   6.683  68.885  1.00  0.00    -0.091 A  
HETATM    5  C   UNL     1      -7.975   4.958  67.376  1.00  0.00    -0.095 A  
HETATM    6  C   UNL     1      -7.842   7.629  68.058  1.00  0.00    -0.121 A  
HETATM    7  C   UNL     1      -8.650   7.254  66.961  1.00  0.00    -0.122 A  
HETATM    8 BR   UNL     1      -9.422   5.265  64.981  1.00  0.00     0.278 Br 
HETATM    9  C   UNL     1      -8.623   5.905  66.580  1.00  0.00    -0.119 A  
BRANCH   4  10
HETATM   10  O   UNL     1      -6.525   7.060  69.998  1.00  0.00    -0.035 OA 
HETATM   11  C   UNL     1      -5.150   7.385  69.790  1.00  0.00    -0.015 C  
ENDBRANCH   4  10
BRANCH   7  12
HETATM   12  C   UNL     1      -9.602   8.274  66.355  1.00  0.00    -0.230 C  
BRANCH  12  13
HETATM   13  N   UNL     1      -8.898   9.595  65.824  1.00  0.00    -0.149 N  
HETATM   14  O   UNL     1      -6.319  11.058  65.915  1.00  0.00    -0.110 OA 
HETATM   15  C   UNL     1      -8.423  10.477  67.023  1.00  0.00    -0.128 C  
HETATM   16  C   UNL     1      -7.478  11.600  66.549  1.00  0.00     0.032 C  
HETATM   17  C   UNL     1      -7.598   9.149  65.087  1.00  0.00    -0.098 C  
HETATM   18  C   UNL     1      -6.663  10.311  64.747  1.00  0.00    -0.089 C  
BRANCH  13  19
HETATM   19  C   UNL     1      -9.858  10.402  64.883  1.00  0.00    -0.334 C  
BRANCH  19  20
HETATM   20  C   UNL     1     -10.978  11.094  65.686  1.00  0.00    -0.079 C  
BRANCH  20  21
HETATM   21  O   UNL     1     -11.944  11.772  64.889  1.00  0.00    -0.177 OA 
BRANCH  21  22
HETATM   22  C   UNL     1     -12.330  13.048  65.468  1.00  0.00    -0.472 C  
BRANCH  22  23
HETATM   23  C   UNL     1     -11.444  13.457  66.648  1.00  0.00    -0.376 C  
BRANCH  23  24
HETATM   24  C   UNL     1     -12.116  14.225  67.801  1.00  0.00    -0.316 C  
HETATM   25  C   UNL     1     -11.159  15.370  68.237  1.00  0.00    -0.309 C  
HETATM   26  C   UNL     1     -10.433  15.145  69.571  1.00  0.00    -0.268 C  
HETATM   27  C   UNL     1     -11.159  14.127  70.452  1.00  0.00     0.200 C  
HETATM   28  C   UNL     1     -11.195  12.759  69.711  1.00  0.00     0.010 C  
HETATM   29  C   UNL     1     -12.471  13.327  69.013  1.00  0.00     0.242 C  
HETATM   30  C   UNL     1     -12.743  14.084  70.400  1.00  0.00    -0.316 C  
HETATM   31  C   UNL     1     -13.526  15.398  70.363  1.00  0.00     0.071 C  
HETATM   32  C   UNL     1     -13.348  13.248  71.551  1.00  0.00    -0.330 C  
ENDBRANCH  23  24
ENDBRANCH  22  23
ENDBRANCH  21  22
ENDBRANCH  20  21
ENDBRANCH  19  20
ENDBRANCH  13  19
ENDBRANCH  12  13
ENDBRANCH   7  12
ENDBRANCH   2   3
TORSDOF 10
ENDMDL
MODEL      295
REMARK 921   NORMALIZED FREE ENERGY PREDICTED BY IDOCK:   -1.86 KCAL/MOL
REMARK 922        TOTAL FREE ENERGY PREDICTED BY IDOCK:   -4.22 KCAL/MOL
REMARK 923 INTER-LIGAND FREE ENERGY PREDICTED BY IDOCK:   -4.00 KCAL/MOL
REMARK 924 INTRA-LIGAND FREE ENERGY PREDICTED BY IDOCK:   -0.22 KCAL/MOL
REMARK 927      BINDING AFFINITY PREDICTED BY RF-SCORE:    0.00 PKD
ROOT
HETATM    1  C   UNL     1     -12.455   6.991  69.958  1.00  0.00     0.535 C  
HETATM    2  O   UNL     1     -12.821   6.966  71.330  1.00  0.00    -0.366 OA 
ENDROOT
BRANCH   2   3
HETATM    3  C   UNL     1     -11.880   6.582  72.244  1.00  0.00    -0.258 A  
HETATM    4  C   UNL     1     -10.858   7.354  72.814  1.00  0.00    -0.326 A  
HETATM    5  C   UNL     1     -11.953   5.220  72.555  1.00  0.00     0.046 A  
HETATM    6  C   UNL     1      -9.928   6.734  73.660  1.00  0.00    -0.293 A  
HETATM    7  C   UNL     1      -9.909   5.336  73.862  1.00  0.00    -0.178 A  
HETATM    8 BR   UNL     1     -11.285   2.772  73.775  1.00  0.00    -0.196 Br 
HETATM    9  C   UNL     1     -11.000   4.605  73.370  1.00  0.00    -0.318 A  
BRANCH   4  10
HETATM   10  O   UNL     1     -10.799   8.693  72.553  1.00  0.00    -0.306 OA 
HETATM   11  C   UNL     1     -10.085   9.064  71.373  1.00  0.00    -0.329 C  
ENDBRANCH   4  10
BRANCH   7  12
HETATM   12  C   UNL     1      -8.667   4.687  74.454  1.00  0.00    -0.109 C  
BRANCH  12  13
HETATM   13  N   UNL     1      -7.596   4.216  73.380  1.00  0.00    -0.075 N  
HETATM   14  O   UNL     1      -5.762   1.972  72.750  1.00  0.00    -0.007 OA 
HETATM   15  C   UNL     1      -6.207   3.989  74.062  1.00  0.00    -0.032 C  
HETATM   16  C   UNL     1      -5.238   3.248  73.119  1.00  0.00     0.000 C  
HETATM   17  C   UNL     1      -8.051   2.813  72.873  1.00  0.00    -0.066 C  
HETATM   18  C   UNL     1      -6.991   2.097  72.034  1.00  0.00    -0.026 C  
BRANCH  13  19
HETATM   19  C   UNL     1      -7.480   5.253  72.211  1.00  0.00    -0.095 C  
BRANCH  19  20
HETATM   20  C   UNL     1      -8.141   4.722  70.923  1.00  0.00    -0.083 C  
BRANCH  20  21
HETATM   21  O   UNL     1      -7.249   4.555  69.826  1.00  0.00    -0.049 OA 
BRANCH  21  22
HETATM   22  C   UNL     1      -7.475   5.541  68.783  1.00  0.00    -0.079 C  
BRANCH  22  23
HETATM   23  C   UNL     1      -8.672   6.450  69.075  1.00  0.00    -0.123 C  
BRANCH  23  24
HETATM   24  C   UNL     1      -9.173   7.347  67.929  1.00  0.00    -0.132 C  
HETATM   25  C   UNL     1      -8.775   6.676  66.584  1.00  0.00    -0.126 C  
HETATM   26  C   UNL     1      -7.614   7.346  65.836  1.00  0.00    -0.089 C  
HETATM   27  C   UNL     1      -7.424   8.802  66.263  1.00  0.00    -0.087 C  
HETATM   28  C   UNL     1      -7.076   8.838  67.779  1.00  0.00    -0.083 C  
HETATM   29  C   UNL     1      -8.620   8.794  67.994  1.00  0.00    -0.134 C  
HETATM   30  C   UNL     1      -8.710   9.648  66.640  1.00  0.00    -0.146 C  
HETATM   31  C   UNL     1      -9.972   9.514  65.784  1.00  0.00    -0.316 C  
HETATM   32  C   UNL     1      -8.412  11.161  66.743  1.00  0.00    -0.153 C  
ENDBRANCH  23  24
ENDBRANCH  22  23
ENDBRANCH  21  22
ENDBRANCH  20  21
ENDBRANCH  19  20
ENDBRANCH  13  19
ENDBRANCH  12  13
ENDBRANCH   7  12
ENDBRANCH   2   3
TORSDOF 10
ENDMDL
MODEL      296
REMARK 921   NORMALIZED FREE ENERGY PREDICTED BY IDOCK:   -1.67 KCAL/MOL
REMARK 922        TOTAL FREE ENERGY PREDICTED BY IDOCK:   -3.92 KCAL/MOL
REMARK 923 INTER-LIGAND FREE ENERGY PREDICTED BY IDOCK:   -5.65 KCAL/MOL
REMARK 924 INTRA-LIGAND FREE ENERGY PREDICTED BY IDOCK:    1.73 KCAL/MOL
REMARK 927      BINDING AFFINITY PREDICTED BY RF-SCORE:    0.00 PKD
ROOT
HETATM    1  C   UNL     1     -11.716  15.374  73.009  1.00  0.00    -0.367 C  
HETATM    2  O   UNL     1     -10.982  15.762  71.856  1.00  0.00    -0.084 OA 
ENDROOT
BRANCH   2   3
HETATM    3  C   UNL     1     -11.273  15.153  70.668  1.00  0.00    -0.287 A  
HETATM    4  C   UNL     1     -12.527  14.981  70.065  1.00  0.00    -0.275 A  
HETATM    5  C   UNL     1     -10.146  14.586  70.061  1.00  0.00     0.457 A  
HETATM    6  C   UNL     1     -12.617  14.230  68.885  1.00  0.00     0.315 A  
HETATM    7  C   UNL     1     -11.510  13.535  68.348  1.00  0.00    -0.346 A  
HETATM    8 BR   UNL     1      -8.626  13.186  68.149  1.00  0.00    -0.176 Br 
HETATM    9  C   UNL     1     -10.253  13.809  68.906  1.00  0.00    -0.102 A  
BRANCH   4  10
HETATM   10  O   UNL     1     -13.629  15.563  70.622  1.00  0.00    -0.424 OA 
HETATM   11  C   UNL     1     -14.410  14.723  71.473  1.00  0.00    -0.505 C  
ENDBRANCH   4  10
BRANCH   7  12
HETATM   12  C   UNL     1     -11.746  12.440  67.319  1.00  0.00    -0.349 C  
BRANCH  12  13
HETATM   13  N   UNL     1     -11.452  12.872  65.820  1.00  0.00    -0.322 N  
HETATM   14  O   UNL     1     -12.163  14.933  63.808  1.00  0.00    -0.526 OA 
HETATM   15  C   UNL     1     -12.775  12.877  64.987  1.00  0.00    -0.404 C  
HETATM   16  C   UNL     1     -12.575  13.578  63.628  1.00  0.00    -0.047 C  
HETATM   17  C   UNL     1     -10.975  14.357  65.863  1.00  0.00    -0.312 C  
HETATM   18  C   UNL     1     -10.907  15.013  64.483  1.00  0.00    -0.129 C  
BRANCH  13  19
HETATM   19  C   UNL     1     -10.384  11.932  65.164  1.00  0.00    -0.277 C  
BRANCH  19  20
HETATM   20  C   UNL     1     -10.126  12.317  63.693  1.00  0.00    -0.344 C  
BRANCH  20  21
HETATM   21  O   UNL     1      -9.095  11.568  63.058  1.00  0.00    -0.244 OA 
BRANCH  21  22
HETATM   22  C   UNL     1      -8.318  10.792  64.010  1.00  0.00     0.067 C  
BRANCH  22  23
HETATM   23  C   UNL     1      -8.541   9.284  63.867  1.00  0.00    -0.208 C  
BRANCH  23  24
HETATM   24  C   UNL     1      -7.707   8.359  64.772  1.00  0.00    -0.109 C  
HETATM   25  C   UNL     1      -8.524   7.058  65.013  1.00  0.00     0.018 C  
HETATM   26  C   UNL     1      -9.142   6.921  66.411  1.00  0.00    -0.185 C  
HETATM   27  C   UNL     1      -8.425   7.795  67.441  1.00  0.00    -0.119 C  
HETATM   28  C   UNL     1      -8.568   9.286  67.018  1.00  0.00    -0.128 C  
HETATM   29  C   UNL     1      -7.319   9.010  66.125  1.00  0.00    -0.091 C  
HETATM   30  C   UNL     1      -6.862   8.006  67.289  1.00  0.00    -0.074 C  
HETATM   31  C   UNL     1      -5.979   6.814  66.908  1.00  0.00    -0.018 C  
HETATM   32  C   UNL     1      -6.224   8.634  68.549  1.00  0.00    -0.053 C  
ENDBRANCH  23  24
ENDBRANCH  22  23
ENDBRANCH  21  22
ENDBRANCH  20  21
ENDBRANCH  19  20
ENDBRANCH  13  19
ENDBRANCH  12  13
ENDBRANCH   7  12
ENDBRANCH   2   3
TORSDOF 10
ENDMDL
MODEL      297
REMARK 921   NORMALIZED FREE ENERGY PREDICTED BY IDOCK:   -1.45 KCAL/MOL
REMARK 922        TOTAL FREE ENERGY PREDICTED BY IDOCK:   -3.58 KCAL/MOL
REMARK 923 INTER-LIGAND FREE ENERGY PREDICTED BY IDOCK:   -4.24 KCAL/MOL
REMARK 924 INTRA-LIGAND FREE ENERGY PREDICTED BY IDOCK:    0.66 KCAL/MOL
REMARK 927      BINDING AFFINITY PREDICTED BY RF-SCORE:    0.00 PKD
ROOT
HETATM    1  C   UNL     1      -5.513   9.558  71.030  1.00  0.00    -0.055 C  
HETATM    2  O   UNL     1      -6.697   9.601  70.247  1.00  0.00    -0.071 OA 
ENDROOT
BRANCH   2   3
HETATM    3  C   UNL     1      -6.906  10.691  69.448  1.00  0.00    -0.095 A  
HETATM    4  C   UNL     1      -6.769  12.047  69.776  1.00  0.00     0.077 A  
HETATM    5  C   UNL     1      -7.384  10.346  68.179  1.00  0.00    -0.088 A  
HETATM    6  C   UNL     1      -7.135  13.016  68.833  1.00  0.00    -0.068 A  
HETATM    7  C   UNL     1      -7.754  12.678  67.608  1.00  0.00    -0.155 A  
HETATM    8 BR   UNL     1      -8.321  10.701  65.547  1.00  0.00    -0.131 Br 
HETATM    9  C   UNL     1      -7.780  11.320  67.260  1.00  0.00    -0.138 A  
BRANCH   4  10
HETATM   10  O   UNL     1      -6.264  12.397  70.996  1.00  0.00    -0.064 OA 
HETATM   11  C   UNL     1      -5.672  13.695  71.071  1.00  0.00    -0.201 C  
ENDBRANCH   4  10
BRANCH   7  12
HETATM   12  C   UNL     1      -8.477  13.758  66.817  1.00  0.00     0.032 C  
BRANCH  12  13
HETATM   13  N   UNL     1     -10.057  13.604  66.787  1.00  0.00    -0.263 N  
HETATM   14  O   UNL     1     -12.215  11.957  65.592  1.00  0.00    -0.413 OA 
HETATM   15  C   UNL     1     -10.591  13.769  65.327  1.00  0.00    -0.353 C  
HETATM   16  C   UNL     1     -12.064  13.327  65.220  1.00  0.00    -0.418 C  
HETATM   17  C   UNL     1     -10.375  12.131  67.189  1.00  0.00    -0.214 C  
HETATM   18  C   UNL     1     -11.835  11.739  66.951  1.00  0.00    -0.006 C  
BRANCH  13  19
HETATM   19  C   UNL     1     -10.739  14.635  67.750  1.00  0.00    -0.265 C  
BRANCH  19  20
HETATM   20  C   UNL     1     -10.228  14.474  69.197  1.00  0.00    -0.164 C  
BRANCH  20  21
HETATM   21  O   UNL     1     -11.250  14.478  70.188  1.00  0.00    -0.231 OA 
BRANCH  21  22
HETATM   22  C   UNL     1     -12.266  13.471  69.929  1.00  0.00    -0.292 C  
BRANCH  22  23
HETATM   23  C   UNL     1     -12.308  12.381  71.002  1.00  0.00    -0.309 C  
BRANCH  23  24
HETATM   24  C   UNL     1     -11.917  10.955  70.575  1.00  0.00    -0.466 C  
HETATM   25  C   UNL     1     -13.093  10.359  69.752  1.00  0.00     0.591 C  
HETATM   26  C   UNL     1     -13.930   9.297  70.478  1.00  0.00     0.671 C  
HETATM   27  C   UNL     1     -13.161   8.656  71.635  1.00  0.00    -0.381 C  
HETATM   28  C   UNL     1     -12.812   9.759  72.676  1.00  0.00     0.098 C  
HETATM   29  C   UNL     1     -11.571  10.029  71.770  1.00  0.00     0.038 C  
HETATM   30  C   UNL     1     -11.597   8.453  71.475  1.00  0.00    -0.338 C  
HETATM   31  C   UNL     1     -11.039   7.960  70.138  1.00  0.00    -0.204 C  
HETATM   32  C   UNL     1     -11.008   7.525  72.562  1.00  0.00    -0.362 C  
ENDBRANCH  23  24
ENDBRANCH  22  23
ENDBRANCH  21  22
ENDBRANCH  20  21
ENDBRANCH  19  20
ENDBRANCH  13  19
ENDBRANCH  12  13
ENDBRANCH   7  12
ENDBRANCH   2   3
TORSDOF 10
ENDMDL
MODEL      298
REMARK 921   NORMALIZED FREE ENERGY PREDICTED BY IDOCK:   -1.29 KCAL/MOL
REMARK 922        TOTAL FREE ENERGY PREDICTED BY IDOCK:   -3.32 KCAL/MOL
REMARK 923 INTER-LIGAND FREE ENERGY PREDICTED BY IDOCK:   -7.82 KCAL/MOL
REMARK 924 INTRA-LIGAND FREE ENERGY PREDICTED BY IDOCK:    4.50 KCAL/MOL
REMARK 927      BINDING AFFINITY PREDICTED BY RF-SCORE:    0.00 PKD
ROOT
HETATM    1  C   UNL     1     -13.939  13.852  72.450  1.00  0.00    -0.531 C  
HETATM    2  O   UNL     1     -12.715  14.560  72.315  1.00  0.00    -0.321 OA 
ENDROOT
BRANCH   2   3
HETATM    3  C   UNL     1     -12.076  14.524  71.107  1.00  0.00    -0.344 A  
HETATM    4  C   UNL     1     -11.682  13.401  70.367  1.00  0.00    -0.108 A  
HETATM    5  C   UNL     1     -11.734  15.797  70.639  1.00  0.00    -0.412 A  
HETATM    6  C   UNL     1     -10.940  13.585  69.192  1.00  0.00    -0.220 A  
HETATM    7  C   UNL     1     -10.468  14.855  68.792  1.00  0.00    -0.242 A  
HETATM    8 BR   UNL     1     -10.658  17.757  68.928  1.00  0.00     0.065 Br 
HETATM    9  C   UNL     1     -10.963  15.968  69.487  1.00  0.00    -0.326 A  
BRANCH   4  10
HETATM   10  O   UNL     1     -12.045  12.154  70.789  1.00  0.00    -0.347 OA 
HETATM   11  C   UNL     1     -11.695  11.078  69.918  1.00  0.00    -0.346 C  
ENDBRANCH   4  10
BRANCH   7  12
HETATM   12  C   UNL     1      -9.360  14.944  67.754  1.00  0.00    -0.194 C  
BRANCH  12  13
HETATM   13  N   UNL     1      -8.522  16.292  67.801  1.00  0.00    -0.162 N  
HETATM   14  O   UNL     1      -5.858  17.354  68.562  1.00  0.00    -0.155 OA 
HETATM   15  C   UNL     1      -8.079  16.606  69.268  1.00  0.00    -0.044 C  
HETATM   16  C   UNL     1      -7.021  17.726  69.303  1.00  0.00    -0.152 C  
HETATM   17  C   UNL     1      -7.203  16.032  67.009  1.00  0.00    -0.213 C  
HETATM   18  C   UNL     1      -6.162  17.140  67.183  1.00  0.00    -0.175 C  
BRANCH  13  19
HETATM   19  C   UNL     1      -9.342  17.483  67.199  1.00  0.00    -0.250 C  
BRANCH  19  20
HETATM   20  C   UNL     1      -9.534  17.320  65.677  1.00  0.00     0.286 C  
BRANCH  20  21
HETATM   21  O   UNL     1     -10.891  17.221  65.260  1.00  0.00    -0.576 OA 
BRANCH  21  22
HETATM   22  C   UNL     1     -11.159  15.973  64.564  1.00  0.00    -0.253 C  
BRANCH  22  23
HETATM   23  C   UNL     1     -10.439  14.777  65.192  1.00  0.00    -0.443 C  
BRANCH  23  24
HETATM   24  C   UNL     1     -10.308  13.504  64.337  1.00  0.00    -0.306 C  
HETATM   25  C   UNL     1     -11.663  13.271  63.612  1.00  0.00    -0.447 C  
HETATM   26  C   UNL     1     -12.515  12.121  64.167  1.00  0.00    -0.497 C  
HETATM   27  C   UNL     1     -11.673  11.114  64.952  1.00  0.00     0.502 C  
HETATM   28  C   UNL     1     -11.029  11.840  66.169  1.00  0.00    -0.355 C  
HETATM   29  C   UNL     1      -9.913  12.250  65.159  1.00  0.00    -0.236 C  
HETATM   30  C   UNL     1     -10.192  10.832  64.465  1.00  0.00    -0.428 C  
HETATM   31  C   UNL     1      -9.911  10.694  62.966  1.00  0.00    -0.318 C  
HETATM   32  C   UNL     1      -9.575   9.585  65.139  1.00  0.00    -0.270 C  
ENDBRANCH  23  24
ENDBRANCH  22  23
ENDBRANCH  21  22
ENDBRANCH  20  21
ENDBRANCH  19  20
ENDBRANCH  13  19
ENDBRANCH  12  13
ENDBRANCH   7  12
ENDBRANCH   2   3
TORSDOF 10
ENDMDL
MODEL      299
REMARK 921   NORMALIZED FREE ENERGY PREDICTED BY IDOCK:   -1.23 KCAL/MOL
REMARK 922        TOTAL FREE ENERGY PREDICTED BY IDOCK:   -3.22 KCAL/MOL
REMARK 923 INTER-LIGAND FREE ENERGY PREDICTED BY IDOCK:   -3.21 KCAL/MOL
REMARK 924 INTRA-LIGAND FREE ENERGY PREDICTED BY IDOCK:   -0.01 KCAL/MOL
REMARK 927      BINDING AFFINITY PREDICTED BY RF-SCORE:    0.00 PKD
ROOT
HETATM    1  C   UNL     1     -12.278   7.008  69.837  1.00  0.00     0.341 C  
HETATM    2  O   UNL     1     -12.676   7.106  71.197  1.00  0.00    -0.367 OA 
ENDROOT
BRANCH   2   3
HETATM    3  C   UNL     1     -11.784   6.728  72.162  1.00  0.00    -0.297 A  
HETATM    4  C   UNL     1     -10.865   7.527  72.856  1.00  0.00    -0.373 A  
HETATM    5  C   UNL     1     -11.787   5.347  72.388  1.00  0.00    -0.042 A  
HETATM    6  C   UNL     1      -9.963   6.917  73.739  1.00  0.00    -0.345 A  
HETATM    7  C   UNL     1      -9.864   5.513  73.862  1.00  0.00    -0.180 A  
HETATM    8 BR   UNL     1     -11.049   2.876  73.519  1.00  0.00    -0.292 Br 
HETATM    9  C   UNL     1     -10.860   4.746  73.242  1.00  0.00    -0.281 A  
BRANCH   4  10
HETATM   10  O   UNL     1     -10.879   8.881  72.677  1.00  0.00    -0.050 OA 
HETATM   11  C   UNL     1     -10.259   9.354  71.480  1.00  0.00    -0.152 C  
ENDBRANCH   4  10
BRANCH   7  12
HETATM   12  C   UNL     1      -8.630   4.910  74.516  1.00  0.00    -0.109 C  
BRANCH  12  13
HETATM   13  N   UNL     1      -7.466   4.535  73.503  1.00  0.00    -0.080 N  
HETATM   14  O   UNL     1      -5.646   2.311  72.767  1.00  0.00     0.000 OA 
HETATM   15  C   UNL     1      -6.165   4.159  74.285  1.00  0.00    -0.037 C  
HETATM   16  C   UNL     1      -5.125   3.504  73.355  1.00  0.00     0.000 C  
HETATM   17  C   UNL     1      -7.908   3.231  72.769  1.00  0.00    -0.067 C  
HETATM   18  C   UNL     1      -6.788   2.583  71.954  1.00  0.00    -0.022 C  
BRANCH  13  19
HETATM   19  C   UNL     1      -7.195   5.708  72.501  1.00  0.00    -0.090 C  
BRANCH  19  20
HETATM   20  C   UNL     1      -6.447   6.870  73.187  1.00  0.00    -0.062 C  
BRANCH  20  21
HETATM   21  O   UNL     1      -5.769   7.746  72.293  1.00  0.00    -0.036 OA 
BRANCH  21  22
HETATM   22  C   UNL     1      -6.614   8.846  71.859  1.00  0.00    -0.028 C  
BRANCH  22  23
HETATM   23  C   UNL     1      -5.859   9.879  71.020  1.00  0.00    -0.082 C  
BRANCH  23  24
HETATM   24  C   UNL     1      -5.635   9.553  69.532  1.00  0.00    -0.034 C  
HETATM   25  C   UNL     1      -6.337  10.654  68.688  1.00  0.00    -0.046 C  
HETATM   26  C   UNL     1      -7.637  10.221  67.997  1.00  0.00    -0.088 C  
HETATM   27  C   UNL     1      -7.720   8.703  67.833  1.00  0.00    -0.102 C  
HETATM   28  C   UNL     1      -7.706   8.045  69.244  1.00  0.00    -0.102 C  
HETATM   29  C   UNL     1      -6.154   8.149  69.126  1.00  0.00    -0.039 C  
HETATM   30  C   UNL     1      -6.379   7.904  67.558  1.00  0.00    -0.055 C  
HETATM   31  C   UNL     1      -5.351   8.481  66.582  1.00  0.00    -0.032 C  
HETATM   32  C   UNL     1      -6.641   6.449  67.104  1.00  0.00    -0.058 C  
ENDBRANCH  23  24
ENDBRANCH  22  23
ENDBRANCH  21  22
ENDBRANCH  20  21
ENDBRANCH  19  20
ENDBRANCH  13  19
ENDBRANCH  12  13
ENDBRANCH   7  12
ENDBRANCH   2   3
TORSDOF 10
ENDMDL
MODEL      300
REMARK 921   NORMALIZED FREE ENERGY PREDICTED BY IDOCK:   -1.07 KCAL/MOL
REMARK 922        TOTAL FREE ENERGY PREDICTED BY IDOCK:   -2.98 KCAL/MOL
REMARK 923 INTER-LIGAND FREE ENERGY PREDICTED BY IDOCK:   -3.99 KCAL/MOL
REMARK 924 INTRA-LIGAND FREE ENERGY PREDICTED BY IDOCK:    1.02 KCAL/MOL
REMARK 927      BINDING AFFINITY PREDICTED BY RF-SCORE:    0.00 PKD
ROOT
HETATM    1  C   UNL     1      -6.566   9.769  64.699  1.00  0.00    -0.112 C  
HETATM    2  O   UNL     1      -6.265  10.767  65.664  1.00  0.00    -0.129 OA 
ENDROOT
BRANCH   2   3
HETATM    3  C   UNL     1      -7.202  11.049  66.618  1.00  0.00    -0.143 A  
HETATM    4  C   UNL     1      -7.049  11.051  68.012  1.00  0.00    -0.077 A  
HETATM    5  C   UNL     1      -8.471  11.284  66.077  1.00  0.00    -0.102 A  
HETATM    6  C   UNL     1      -8.173  11.268  68.820  1.00  0.00    -0.122 A  
HETATM    7  C   UNL     1      -9.477  11.361  68.286  1.00  0.00    -0.187 A  
HETATM    8 BR   UNL     1     -11.225  11.864  66.012  1.00  0.00    -0.361 Br 
HETATM    9  C   UNL     1      -9.590  11.463  66.892  1.00  0.00    -0.185 A  
BRANCH   4  10
HETATM   10  O   UNL     1      -5.809  10.865  68.554  1.00  0.00    -0.044 OA 
HETATM   11  C   UNL     1      -5.589  11.480  69.823  1.00  0.00    -0.081 C  
ENDBRANCH   4  10
BRANCH   7  12
HETATM   12  C   UNL     1     -10.674  11.199  69.211  1.00  0.00    -0.199 C  
BRANCH  12  13
HETATM   13  N   UNL     1     -10.728   9.810  69.977  1.00  0.00    -0.261 N  
HETATM   14  O   UNL     1     -10.135   8.577  72.610  1.00  0.00    -0.282 OA 
HETATM   15  C   UNL     1      -9.299   9.400  70.462  1.00  0.00    -0.262 C  
HETATM   16  C   UNL     1      -9.364   8.227  71.460  1.00  0.00    -0.180 C  
HETATM   17  C   UNL     1     -11.563  10.041  71.275  1.00  0.00    -0.350 C  
HETATM   18  C   UNL     1     -11.488   8.875  72.262  1.00  0.00    -0.237 C  
BRANCH  13  19
HETATM   19  C   UNL     1     -11.351   8.693  69.071  1.00  0.00     0.549 C  
BRANCH  19  20
HETATM   20  C   UNL     1     -10.283   7.675  68.622  1.00  0.00    -0.199 C  
BRANCH  20  21
HETATM   21  O   UNL     1      -9.265   8.217  67.786  1.00  0.00    -0.134 OA 
BRANCH  21  22
HETATM   22  C   UNL     1      -9.666   8.252  66.390  1.00  0.00    -0.230 C  
BRANCH  22  23
HETATM   23  C   UNL     1      -8.598   7.685  65.451  1.00  0.00    -0.074 C  
BRANCH  23  24
HETATM   24  C   UNL     1      -8.582   6.160  65.241  1.00  0.00    -0.082 C  
HETATM   25  C   UNL     1      -7.846   5.515  66.449  1.00  0.00    -0.100 C  
HETATM   26  C   UNL     1      -6.432   4.995  66.153  1.00  0.00    -0.044 C  
HETATM   27  C   UNL     1      -6.221   4.731  64.662  1.00  0.00    -0.030 C  
HETATM   28  C   UNL     1      -6.390   6.070  63.887  1.00  0.00    -0.029 C  
HETATM   29  C   UNL     1      -7.913   5.731  63.910  1.00  0.00    -0.121 C  
HETATM   30  C   UNL     1      -7.448   4.199  63.812  1.00  0.00    -0.058 C  
HETATM   31  C   UNL     1      -8.364   3.128  64.410  1.00  0.00    -0.093 C  
HETATM   32  C   UNL     1      -7.023   3.681  62.420  1.00  0.00    -0.035 C  
ENDBRANCH  23  24
ENDBRANCH  22  23
ENDBRANCH  21  22
ENDBRANCH  20  21
ENDBRANCH  19  20
ENDBRANCH  13  19
ENDBRANCH  12  13
ENDBRANCH   7  12
ENDBRANCH   2   3
TORSDOF 10
ENDMDL
MODEL      301
REMARK 921   NORMALIZED FREE ENERGY PREDICTED BY IDOCK:   -1.03 KCAL/MOL
REMARK 922        TOTAL FREE ENERGY PREDICTED BY IDOCK:   -2.91 KCAL/MOL
REMARK 923 INTER-LIGAND FREE ENERGY PREDICTED BY IDOCK:   -2.12 KCAL/MOL
REMARK 924 INTRA-LIGAND FREE ENERGY PREDICTED BY IDOCK:   -0.79 KCAL/MOL
REMARK 927      BINDING AFFINITY PREDICTED BY RF-SCORE:    0.00 PKD
ROOT
HETATM    1  C   UNL     1      -9.092  11.166  64.152  1.00  0.00    -0.039 C  
HETATM    2  O   UNL     1      -9.701  12.426  63.906  1.00  0.00    -0.187 OA 
ENDROOT
BRANCH   2   3
HETATM    3  C   UNL     1     -10.649  12.869  64.785  1.00  0.00    -0.342 A  
HETATM    4  C   UNL     1     -11.288  14.116  64.816  1.00  0.00    -0.371 A  
HETATM    5  C   UNL     1     -10.918  11.945  65.800  1.00  0.00    -0.359 A  
HETATM    6  C   UNL     1     -12.162  14.407  65.873  1.00  0.00    -0.354 A  
HETATM    7  C   UNL     1     -12.326  13.538  66.975  1.00  0.00    -0.260 A  
HETATM    8 BR   UNL     1     -12.101  10.870  68.118  1.00  0.00     0.603 Br 
HETATM    9  C   UNL     1     -11.761  12.259  66.868  1.00  0.00    -0.334 A  
BRANCH   4  10
HETATM   10  O   UNL     1     -11.068  15.012  63.810  1.00  0.00     0.660 OA 
HETATM   11  C   UNL     1     -11.642  16.306  63.995  1.00  0.00     0.425 C  
ENDBRANCH   4  10
BRANCH   7  12
HETATM   12  C   UNL     1     -12.959  14.068  68.252  1.00  0.00     1.951 C  
BRANCH  12  13
HETATM   13  N   UNL     1     -11.919  14.515  69.366  1.00  0.00    -0.318 N  
HETATM   14  O   UNL     1     -11.666  16.266  71.747  1.00  0.00    -0.486 OA 
HETATM   15  C   UNL     1     -11.694  16.061  69.308  1.00  0.00    -0.298 C  
HETATM   16  C   UNL     1     -10.937  16.561  70.555  1.00  0.00    -0.056 C  
HETATM   17  C   UNL     1     -12.589  14.238  70.747  1.00  0.00    -0.356 C  
HETATM   18  C   UNL     1     -11.833  14.859  71.923  1.00  0.00    -0.344 C  
BRANCH  13  19
HETATM   19  C   UNL     1     -10.563  13.747  69.207  1.00  0.00     0.001 C  
BRANCH  19  20
HETATM   20  C   UNL     1      -9.541  14.576  68.400  1.00  0.00    -0.213 C  
BRANCH  20  21
HETATM   21  O   UNL     1      -8.737  13.814  67.505  1.00  0.00    -0.171 OA 
BRANCH  21  22
HETATM   22  C   UNL     1      -7.998  12.768  68.192  1.00  0.00    -0.156 C  
BRANCH  22  23
HETATM   23  C   UNL     1      -7.683  11.573  67.288  1.00  0.00    -0.150 C  
BRANCH  23  24
HETATM   24  C   UNL     1      -7.286  10.254  67.975  1.00  0.00    -0.086 C  
HETATM   25  C   UNL     1      -6.401   9.444  66.986  1.00  0.00    -0.066 C  
HETATM   26  C   UNL     1      -7.084   8.234  66.334  1.00  0.00    -0.071 C  
HETATM   27  C   UNL     1      -8.285   7.749  67.146  1.00  0.00    -0.118 C  
HETATM   28  C   UNL     1      -9.339   8.893  67.213  1.00  0.00    -0.173 C  
HETATM   29  C   UNL     1      -8.503   9.406  68.426  1.00  0.00    -0.120 C  
HETATM   30  C   UNL     1      -8.216   7.857  68.726  1.00  0.00    -0.127 C  
HETATM   31  C   UNL     1      -6.915   7.491  69.445  1.00  0.00    -0.057 C  
HETATM   32  C   UNL     1      -9.339   7.056  69.423  1.00  0.00    -0.146 C  
ENDBRANCH  23  24
ENDBRANCH  22  23
ENDBRANCH  21  22
ENDBRANCH  20  21
ENDBRANCH  19  20
ENDBRANCH  13  19
ENDBRANCH  12  13
ENDBRANCH   7  12
ENDBRANCH   2   3
TORSDOF 10
ENDMDL
MODEL      302
REMARK 921   NORMALIZED FREE ENERGY PREDICTED BY IDOCK:   -1.00 KCAL/MOL
REMARK 922        TOTAL FREE ENERGY PREDICTED BY IDOCK:   -2.86 KCAL/MOL
REMARK 923 INTER-LIGAND FREE ENERGY PREDICTED BY IDOCK:   -1.69 KCAL/MOL
REMARK 924 INTRA-LIGAND FREE ENERGY PREDICTED BY IDOCK:   -1.18 KCAL/MOL
REMARK 927      BINDING AFFINITY PREDICTED BY RF-SCORE:    0.00 PKD
ROOT
HETATM    1  C   UNL     1     -11.755   7.272  67.271  1.00  0.00     1.633 C  
HETATM    2  O   UNL     1     -10.442   7.511  66.786  1.00  0.00    -0.305 OA 
ENDROOT
BRANCH   2   3
HETATM    3  C   UNL     1      -9.819   8.673  67.148  1.00  0.00    -0.207 A  
HETATM    4  C   UNL     1      -8.996   8.907  68.258  1.00  0.00    -0.137 A  
HETATM    5  C   UNL     1     -10.143   9.744  66.307  1.00  0.00    -0.313 A  
HETATM    6  C   UNL     1      -8.538  10.209  68.504  1.00  0.00    -0.118 A  
HETATM    7  C   UNL     1      -8.978  11.317  67.745  1.00  0.00    -0.141 A  
HETATM    8 BR   UNL     1     -10.155  12.373  65.300  1.00  0.00    -0.261 Br 
HETATM    9  C   UNL     1      -9.713  11.043  66.582  1.00  0.00    -0.195 A  
BRANCH   4  10
HETATM   10  O   UNL     1      -8.637   7.864  69.063  1.00  0.00    -0.133 OA 
HETATM   11  C   UNL     1      -7.858   6.841  68.441  1.00  0.00    -0.114 C  
ENDBRANCH   4  10
BRANCH   7  12
HETATM   12  C   UNL     1      -8.770  12.722  68.290  1.00  0.00    -0.168 C  
BRANCH  12  13
HETATM   13  N   UNL     1      -7.282  13.261  68.168  1.00  0.00    -0.097 N  
HETATM   14  O   UNL     1      -5.352  15.092  69.481  1.00  0.00    -0.089 OA 
HETATM   15  C   UNL     1      -7.279  14.815  67.998  1.00  0.00    -0.137 C  
HETATM   16  C   UNL     1      -5.862  15.394  68.182  1.00  0.00    -0.132 C  
HETATM   17  C   UNL     1      -6.587  12.985  69.537  1.00  0.00    -0.030 C  
HETATM   18  C   UNL     1      -5.234  13.683  69.683  1.00  0.00    -0.085 C  
BRANCH  13  19
HETATM   19  C   UNL     1      -6.531  12.569  66.979  1.00  0.00     0.079 C  
BRANCH  19  20
HETATM   20  C   UNL     1      -5.497  11.544  67.490  1.00  0.00    -0.061 C  
BRANCH  20  21
HETATM   21  O   UNL     1      -5.462  10.324  66.757  1.00  0.00    -0.043 OA 
BRANCH  21  22
HETATM   22  C   UNL     1      -5.706  10.532  65.339  1.00  0.00    -0.139 C  
BRANCH  22  23
HETATM   23  C   UNL     1      -6.670   9.502  64.745  1.00  0.00    -0.096 C  
BRANCH  23  24
HETATM   24  C   UNL     1      -6.380   8.017  65.032  1.00  0.00    -0.048 C  
HETATM   25  C   UNL     1      -5.303   7.534  64.020  1.00  0.00    -0.030 C  
HETATM   26  C   UNL     1      -5.821   6.624  62.897  1.00  0.00    -0.035 C  
HETATM   27  C   UNL     1      -7.143   5.952  63.269  1.00  0.00    -0.047 C  
HETATM   28  C   UNL     1      -8.217   7.055  63.501  1.00  0.00     0.100 C  
HETATM   29  C   UNL     1      -7.640   7.118  64.950  1.00  0.00    -0.103 C  
HETATM   30  C   UNL     1      -7.378   5.545  64.782  1.00  0.00    -0.064 C  
HETATM   31  C   UNL     1      -6.229   4.916  65.575  1.00  0.00    -0.034 C  
HETATM   32  C   UNL     1      -8.594   4.607  64.960  1.00  0.00    -0.138 C  
ENDBRANCH  23  24
ENDBRANCH  22  23
ENDBRANCH  21  22
ENDBRANCH  20  21
ENDBRANCH  19  20
ENDBRANCH  13  19
ENDBRANCH  12  13
ENDBRANCH   7  12
ENDBRANCH   2   3
TORSDOF 10
ENDMDL
MODEL      303
REMARK 921   NORMALIZED FREE ENERGY PREDICTED BY IDOCK:   -0.63 KCAL/MOL
REMARK 922        TOTAL FREE ENERGY PREDICTED BY IDOCK:   -2.28 KCAL/MOL
REMARK 923 INTER-LIGAND FREE ENERGY PREDICTED BY IDOCK:   -2.38 KCAL/MOL
REMARK 924 INTRA-LIGAND FREE ENERGY PREDICTED BY IDOCK:    0.10 KCAL/MOL
REMARK 927      BINDING AFFINITY PREDICTED BY RF-SCORE:    0.00 PKD
ROOT
HETATM    1  C   UNL     1     -11.653  10.808  67.657  1.00  0.00     0.000 C  
HETATM    2  O   UNL     1     -11.893   9.469  68.064  1.00  0.00     0.788 OA 
ENDROOT
BRANCH   2   3
HETATM    3  C   UNL     1     -10.947   8.845  68.828  1.00  0.00     0.100 A  
HETATM    4  C   UNL     1      -9.769   8.212  68.407  1.00  0.00    -0.161 A  
HETATM    5  C   UNL     1     -11.291   8.803  70.184  1.00  0.00    -0.099 A  
HETATM    6  C   UNL     1      -8.983   7.539  69.352  1.00  0.00    -0.139 A  
HETATM    7  C   UNL     1      -9.397   7.368  70.692  1.00  0.00    -0.160 A  
HETATM    8 BR   UNL     1     -11.063   8.209  72.927  1.00  0.00    -0.159 Br 
HETATM    9  C   UNL     1     -10.520   8.098  71.110  1.00  0.00    -0.199 A  
BRANCH   4  10
HETATM   10  O   UNL     1      -9.399   8.281  67.095  1.00  0.00    -0.141 OA 
HETATM   11  C   UNL     1      -8.693   7.147  66.590  1.00  0.00    -0.128 C  
ENDBRANCH   4  10
BRANCH   7  12
HETATM   12  C   UNL     1      -8.717   6.315  71.553  1.00  0.00    -0.134 C  
BRANCH  12  13
HETATM   13  N   UNL     1      -7.260   6.709  72.045  1.00  0.00    -0.080 N  
HETATM   14  O   UNL     1      -5.521   6.664  74.448  1.00  0.00    -0.049 OA 
HETATM   15  C   UNL     1      -7.343   7.740  73.218  1.00  0.00    -0.109 C  
HETATM   16  C   UNL     1      -5.976   7.906  73.912  1.00  0.00    -0.076 C  
HETATM   17  C   UNL     1      -6.626   5.422  72.658  1.00  0.00    -0.065 C  
HETATM   18  C   UNL     1      -5.328   5.690  73.422  1.00  0.00    -0.023 C  
BRANCH  13  19
HETATM   19  C   UNL     1      -6.403   7.278  70.863  1.00  0.00    -0.036 C  
BRANCH  19  20
HETATM   20  C   UNL     1      -6.027   8.755  71.103  1.00  0.00    -0.045 C  
BRANCH  20  21
HETATM   21  O   UNL     1      -6.776   9.689  70.334  1.00  0.00    -0.077 OA 
BRANCH  21  22
HETATM   22  C   UNL     1      -6.192  11.019  70.369  1.00  0.00    -0.106 C  
BRANCH  22  23
HETATM   23  C   UNL     1      -6.551  11.858  69.140  1.00  0.00    -0.103 C  
BRANCH  23  24
HETATM   24  C   UNL     1      -7.971  12.448  69.079  1.00  0.00     0.266 C  
HETATM   25  C   UNL     1      -8.717  11.785  67.887  1.00  0.00    -0.164 C  
HETATM   26  C   UNL     1      -8.910  12.680  66.655  1.00  0.00    -0.129 C  
HETATM   27  C   UNL     1      -8.815  14.165  67.006  1.00  0.00    -0.237 C  
HETATM   28  C   UNL     1      -7.394  14.457  67.570  1.00  0.00    -0.208 C  
HETATM   29  C   UNL     1      -7.990  13.992  68.935  1.00  0.00    -0.025 C  
HETATM   30  C   UNL     1      -9.362  14.639  68.417  1.00  0.00    -0.201 C  
HETATM   31  C   UNL     1     -10.677  14.058  68.942  1.00  0.00    -0.265 C  
HETATM   32  C   UNL     1      -9.495  16.176  68.513  1.00  0.00    -0.216 C  
ENDBRANCH  23  24
ENDBRANCH  22  23
ENDBRANCH  21  22
ENDBRANCH  20  21
ENDBRANCH  19  20
ENDBRANCH  13  19
ENDBRANCH  12  13
ENDBRANCH   7  12
ENDBRANCH   2   3
TORSDOF 10
ENDMDL
MODEL      304
REMARK 921   NORMALIZED FREE ENERGY PREDICTED BY IDOCK:    0.39 KCAL/MOL
REMARK 922        TOTAL FREE ENERGY PREDICTED BY IDOCK:   -0.66 KCAL/MOL
REMARK 923 INTER-LIGAND FREE ENERGY PREDICTED BY IDOCK:   -4.96 KCAL/MOL
REMARK 924 INTRA-LIGAND FREE ENERGY PREDICTED BY IDOCK:    4.31 KCAL/MOL
REMARK 927      BINDING AFFINITY PREDICTED BY RF-SCORE:    0.00 PKD
ROOT
HETATM    1  C   UNL     1     -11.563  13.832  70.172  1.00  0.00    -0.160 C  
HETATM    2  O   UNL     1     -11.931  13.672  68.810  1.00  0.00    -0.345 OA 
ENDROOT
BRANCH   2   3
HETATM    3  C   UNL     1     -11.249  12.757  68.059  1.00  0.00    -0.270 A  
HETATM    4  C   UNL     1     -11.569  12.268  66.784  1.00  0.00    -0.369 A  
HETATM    5  C   UNL     1     -10.144  12.222  68.730  1.00  0.00    -0.082 A  
HETATM    6  C   UNL     1     -10.786  11.246  66.230  1.00  0.00    -0.312 A  
HETATM    7  C   UNL     1      -9.761  10.604  66.960  1.00  0.00    -0.207 A  
HETATM    8 BR   UNL     1      -7.869  10.624  69.173  1.00  0.00    -0.133 Br 
HETATM    9  C   UNL     1      -9.393  11.180  68.185  1.00  0.00    -0.176 A  
BRANCH   4  10
HETATM   10  O   UNL     1     -12.619  12.809  66.099  1.00  0.00    -0.428 OA 
HETATM   11  C   UNL     1     -12.497  12.808  64.677  1.00  0.00    -0.456 C  
ENDBRANCH   4  10
BRANCH   7  12
HETATM   12  C   UNL     1      -9.223   9.269  66.469  1.00  0.00    -0.161 C  
BRANCH  12  13
HETATM   13  N   UNL     1      -8.932   8.214  67.620  1.00  0.00    -0.132 N  
HETATM   14  O   UNL     1     -10.261   6.130  69.260  1.00  0.00    -0.173 OA 
HETATM   15  C   UNL     1      -9.832   8.507  68.865  1.00  0.00    -0.176 C  
HETATM   16  C   UNL     1      -9.795   7.336  69.867  1.00  0.00    -0.178 C  
HETATM   17  C   UNL     1      -9.391   6.823  67.085  1.00  0.00    -0.136 C  
HETATM   18  C   UNL     1      -9.431   5.740  68.165  1.00  0.00    -0.111 C  
BRANCH  13  19
HETATM   19  C   UNL     1      -7.415   8.219  68.015  1.00  0.00    -0.097 C  
BRANCH  19  20
HETATM   20  C   UNL     1      -6.588   9.097  67.053  1.00  0.00    -0.064 C  
BRANCH  20  21
HETATM   21  O   UNL     1      -6.345   8.511  65.779  1.00  0.00    -0.051 OA 
BRANCH  21  22
HETATM   22  C   UNL     1      -6.616   7.083  65.774  1.00  0.00    -0.052 C  
BRANCH  22  23
HETATM   23  C   UNL     1      -6.083   6.383  64.521  1.00  0.00    -0.030 C  
BRANCH  23  24
HETATM   24  C   UNL     1      -6.241   4.853  64.447  1.00  0.00    -0.030 C  
HETATM   25  C   UNL     1      -6.345   4.453  62.948  1.00  0.00    -0.022 C  
HETATM   26  C   UNL     1      -7.747   4.048  62.473  1.00  0.00    -0.061 C  
HETATM   27  C   UNL     1      -8.640   3.612  63.635  1.00  0.00    -0.091 C  
HETATM   28  C   UNL     1      -8.813   4.813  64.611  1.00  0.00    -0.152 C  
HETATM   29  C   UNL     1      -7.468   4.324  65.233  1.00  0.00    -0.073 C  
HETATM   30  C   UNL     1      -7.970   2.849  64.853  1.00  0.00    -0.082 C  
HETATM   31  C   UNL     1      -6.914   1.777  64.573  1.00  0.00    -0.042 C  
HETATM   32  C   UNL     1      -9.014   2.199  65.789  1.00  0.00    -0.110 C  
ENDBRANCH  23  24
ENDBRANCH  22  23
ENDBRANCH  21  22
ENDBRANCH  20  21
ENDBRANCH  19  20
ENDBRANCH  13  19
ENDBRANCH  12  13
ENDBRANCH   7  12
ENDBRANCH   2   3
TORSDOF 10
ENDMDL
MODEL      305
REMARK 921   NORMALIZED FREE ENERGY PREDICTED BY IDOCK:    0.42 KCAL/MOL
REMARK 922        TOTAL FREE ENERGY PREDICTED BY IDOCK:   -0.61 KCAL/MOL
REMARK 923 INTER-LIGAND FREE ENERGY PREDICTED BY IDOCK:   -1.39 KCAL/MOL
REMARK 924 INTRA-LIGAND FREE ENERGY PREDICTED BY IDOCK:    0.77 KCAL/MOL
REMARK 927      BINDING AFFINITY PREDICTED BY RF-SCORE:    0.00 PKD
ROOT
HETATM    1  C   UNL     1      -6.083  11.579  67.450  1.00  0.00    -0.083 C  
HETATM    2  O   UNL     1      -7.147  11.657  68.388  1.00  0.00    -0.072 OA 
ENDROOT
BRANCH   2   3
HETATM    3  C   UNL     1      -7.608  10.495  68.942  1.00  0.00    -0.108 A  
HETATM    4  C   UNL     1      -8.933  10.058  69.064  1.00  0.00    -0.163 A  
HETATM    5  C   UNL     1      -6.585   9.724  69.506  1.00  0.00    -0.051 A  
HETATM    6  C   UNL     1      -9.197   8.872  69.765  1.00  0.00    -0.167 A  
HETATM    7  C   UNL     1      -8.188   8.168  70.459  1.00  0.00    -0.117 A  
HETATM    8 BR   UNL     1      -5.366   7.576  70.858  1.00  0.00    -0.027 Br 
HETATM    9  C   UNL     1      -6.862   8.564  70.233  1.00  0.00    -0.039 A  
BRANCH   4  10
HETATM   10  O   UNL     1      -9.937  10.778  68.483  1.00  0.00    -0.164 OA 
HETATM   11  C   UNL     1     -11.073  11.035  69.309  1.00  0.00    -0.254 C  
ENDBRANCH   4  10
BRANCH   7  12
HETATM   12  C   UNL     1      -8.586   7.139  71.506  1.00  0.00    -0.115 C  
BRANCH  12  13
HETATM   13  N   UNL     1     -10.066   7.299  72.056  1.00  0.00    -0.184 N  
HETATM   14  O   UNL     1     -12.336   9.209  72.114  1.00  0.00    -0.369 OA 
HETATM   15  C   UNL     1     -10.161   8.534  73.011  1.00  0.00     0.177 C  
HETATM   16  C   UNL     1     -11.629   8.893  73.314  1.00  0.00     2.054 C  
HETATM   17  C   UNL     1     -10.969   7.643  70.831  1.00  0.00    -0.250 C  
HETATM   18  C   UNL     1     -12.377   8.094  71.222  1.00  0.00    -0.265 C  
BRANCH  13  19
HETATM   19  C   UNL     1     -10.539   5.994  72.784  1.00  0.00    -0.225 C  
BRANCH  19  20
HETATM   20  C   UNL     1     -10.780   4.848  71.780  1.00  0.00    -0.026 C  
BRANCH  20  21
HETATM   21  O   UNL     1      -9.611   4.117  71.425  1.00  0.00    -0.146 OA 
BRANCH  21  22
HETATM   22  C   UNL     1      -9.370   4.134  69.992  1.00  0.00    -0.167 C  
BRANCH  22  23
HETATM   23  C   UNL     1      -8.892   2.783  69.455  1.00  0.00    -0.152 C  
BRANCH  23  24
HETATM   24  C   UNL     1      -7.760   2.799  68.411  1.00  0.00    -0.055 C  
HETATM   25  C   UNL     1      -6.444   3.198  69.136  1.00  0.00    -0.029 C  
HETATM   26  C   UNL     1      -5.947   4.623  68.855  1.00  0.00    -0.025 C  
HETATM   27  C   UNL     1      -6.520   5.182  67.552  1.00  0.00    -0.045 C  
HETATM   28  C   UNL     1      -8.070   5.250  67.674  1.00  0.00    -0.100 C  
HETATM   29  C   UNL     1      -8.033   3.757  67.223  1.00  0.00    -0.091 C  
HETATM   30  C   UNL     1      -6.759   4.180  66.347  1.00  0.00    -0.050 C  
HETATM   31  C   UNL     1      -5.706   3.112  66.042  1.00  0.00    -0.018 C  
HETATM   32  C   UNL     1      -7.034   4.914  65.015  1.00  0.00    -0.061 C  
ENDBRANCH  23  24
ENDBRANCH  22  23
ENDBRANCH  21  22
ENDBRANCH  20  21
ENDBRANCH  19  20
ENDBRANCH  13  19
ENDBRANCH  12  13
ENDBRANCH   7  12
ENDBRANCH   2   3
TORSDOF 10
ENDMDL
MODEL      306
REMARK 921   NORMALIZED FREE ENERGY PREDICTED BY IDOCK:    0.52 KCAL/MOL
REMARK 922        TOTAL FREE ENERGY PREDICTED BY IDOCK:   -0.45 KCAL/MOL
REMARK 923 INTER-LIGAND FREE ENERGY PREDICTED BY IDOCK:   -3.32 KCAL/MOL
REMARK 924 INTRA-LIGAND FREE ENERGY PREDICTED BY IDOCK:    2.87 KCAL/MOL
REMARK 927      BINDING AFFINITY PREDICTED BY RF-SCORE:    0.00 PKD
ROOT
HETATM    1  C   UNL     1      -9.297  10.780  67.291  1.00  0.00    -0.151 C  
HETATM    2  O   UNL     1      -9.273  11.362  68.586  1.00  0.00    -0.183 OA 
ENDROOT
BRANCH   2   3
HETATM    3  C   UNL     1      -9.543  12.696  68.701  1.00  0.00    -0.021 A  
HETATM    4  C   UNL     1     -10.582  13.314  69.411  1.00  0.00     0.234 A  
HETATM    5  C   UNL     1      -8.684  13.489  67.931  1.00  0.00    -0.183 A  
HETATM    6  C   UNL     1     -10.742  14.703  69.313  1.00  0.00    -0.254 A  
HETATM    7  C   UNL     1      -9.971  15.489  68.427  1.00  0.00    -0.214 A  
HETATM    8 BR   UNL     1      -7.574  15.820  66.807  1.00  0.00    -0.079 Br 
HETATM    9  C   UNL     1      -8.875  14.867  67.812  1.00  0.00    -0.173 A  
BRANCH   4  10
HETATM   10  O   UNL     1     -11.401  12.559  70.200  1.00  0.00    -0.023 OA 
HETATM   11  C   UNL     1     -12.477  11.904  69.527  1.00  0.00     0.126 C  
ENDBRANCH   4  10
BRANCH   7  12
HETATM   12  C   UNL     1     -10.443  16.891  68.073  1.00  0.00    -0.347 C  
BRANCH  12  13
HETATM   13  N   UNL     1      -9.303  17.995  68.102  1.00  0.00    -0.275 N  
HETATM   14  O   UNL     1      -7.609  19.546  69.980  1.00  0.00     0.164 OA 
HETATM   15  C   UNL     1      -9.784  19.253  68.897  1.00  0.00    -0.430 C  
HETATM   16  C   UNL     1      -8.609  20.203  69.201  1.00  0.00     0.445 C  
HETATM   17  C   UNL     1      -8.120  17.401  68.928  1.00  0.00    -0.183 C  
HETATM   18  C   UNL     1      -7.048  18.434  69.281  1.00  0.00    -0.136 C  
BRANCH  13  19
HETATM   19  C   UNL     1      -8.865  18.387  66.649  1.00  0.00    -0.289 C  
BRANCH  19  20
HETATM   20  C   UNL     1     -10.085  18.541  65.718  1.00  0.00    -0.002 C  
BRANCH  20  21
HETATM   21  O   UNL     1     -10.239  17.491  64.769  1.00  0.00     0.405 OA 
BRANCH  21  22
HETATM   22  C   UNL     1     -11.124  16.444  65.252  1.00  0.00    -0.113 C  
BRANCH  22  23
HETATM   23  C   UNL     1     -12.159  16.014  64.209  1.00  0.00     0.223 C  
BRANCH  23  24
HETATM   24  C   UNL     1     -12.509  14.517  64.137  1.00  0.00    -0.215 C  
HETATM   25  C   UNL     1     -12.952  14.058  65.554  1.00  0.00    -0.353 C  
HETATM   26  C   UNL     1     -11.933  13.197  66.314  1.00  0.00    -0.473 C  
HETATM   27  C   UNL     1     -10.934  12.528  65.370  1.00  0.00    -0.329 C  
HETATM   28  C   UNL     1     -10.135  13.634  64.620  1.00  0.00    -0.228 C  
HETATM   29  C   UNL     1     -11.339  13.637  63.627  1.00  0.00     0.134 C  
HETATM   30  C   UNL     1     -11.443  12.068  63.941  1.00  0.00    -0.518 C  
HETATM   31  C   UNL     1     -12.813  11.396  63.816  1.00  0.00     0.438 C  
HETATM   32  C   UNL     1     -10.436  11.139  63.226  1.00  0.00    -0.323 C  
ENDBRANCH  23  24
ENDBRANCH  22  23
ENDBRANCH  21  22
ENDBRANCH  20  21
ENDBRANCH  19  20
ENDBRANCH  13  19
ENDBRANCH  12  13
ENDBRANCH   7  12
ENDBRANCH   2   3
TORSDOF 10
ENDMDL
MODEL      307
REMARK 921   NORMALIZED FREE ENERGY PREDICTED BY IDOCK:    0.54 KCAL/MOL
REMARK 922        TOTAL FREE ENERGY PREDICTED BY IDOCK:   -0.42 KCAL/MOL
REMARK 923 INTER-LIGAND FREE ENERGY PREDICTED BY IDOCK:   -3.15 KCAL/MOL
REMARK 924 INTRA-LIGAND FREE ENERGY PREDICTED BY IDOCK:    2.74 KCAL/MOL
REMARK 927      BINDING AFFINITY PREDICTED BY RF-SCORE:    0.00 PKD
ROOT
HETATM    1  C   UNL     1     -11.442   5.777  70.779  1.00  0.00     0.102 C  
HETATM    2  O   UNL     1     -12.437   6.717  70.400  1.00  0.00    -0.196 OA 
ENDROOT
BRANCH   2   3
HETATM    3  C   UNL     1     -12.033   7.922  69.898  1.00  0.00     0.665 A  
HETATM    4  C   UNL     1     -11.263   8.171  68.753  1.00  0.00     0.514 A  
HETATM    5  C   UNL     1     -12.403   8.998  70.712  1.00  0.00    -0.064 A  
HETATM    6  C   UNL     1     -10.869   9.486  68.470  1.00  0.00    -0.175 A  
HETATM    7  C   UNL     1     -11.115  10.554  69.363  1.00  0.00    -0.310 A  
HETATM    8 BR   UNL     1     -12.633  11.666  71.584  1.00  0.00    -0.179 Br 
HETATM    9  C   UNL     1     -11.974  10.299  70.441  1.00  0.00    -0.303 A  
BRANCH   4  10
HETATM   10  O   UNL     1     -10.930   7.136  67.927  1.00  0.00    -0.170 OA 
HETATM   11  C   UNL     1     -10.604   7.497  66.584  1.00  0.00    -0.039 C  
ENDBRANCH   4  10
BRANCH   7  12
HETATM   12  C   UNL     1     -10.337  11.851  69.202  1.00  0.00     0.061 C  
BRANCH  12  13
HETATM   13  N   UNL     1     -10.357  12.451  67.733  1.00  0.00    -0.212 N  
HETATM   14  O   UNL     1     -11.283  11.844  64.980  1.00  0.00    -0.313 OA 
HETATM   15  C   UNL     1      -9.622  11.489  66.743  1.00  0.00    -0.186 C  
HETATM   16  C   UNL     1      -9.887  11.889  65.278  1.00  0.00    -0.230 C  
HETATM   17  C   UNL     1     -11.847  12.472  67.272  1.00  0.00    -0.311 C  
HETATM   18  C   UNL     1     -12.019  12.769  65.782  1.00  0.00    -0.449 C  
BRANCH  13  19
HETATM   19  C   UNL     1      -9.714  13.880  67.701  1.00  0.00    -0.226 C  
BRANCH  19  20
HETATM   20  C   UNL     1      -9.734  14.535  69.098  1.00  0.00    -0.055 C  
BRANCH  20  21
HETATM   21  O   UNL     1      -8.568  15.287  69.415  1.00  0.00    -0.238 OA 
BRANCH  21  22
HETATM   22  C   UNL     1      -7.361  14.672  68.888  1.00  0.00    -0.128 C  
BRANCH  22  23
HETATM   23  C   UNL     1      -7.557  13.199  68.522  1.00  0.00    -0.122 C  
BRANCH  23  24
HETATM   24  C   UNL     1      -6.705  12.164  69.280  1.00  0.00    -0.084 C  
HETATM   25  C   UNL     1      -5.340  12.036  68.546  1.00  0.00    -0.053 C  
HETATM   26  C   UNL     1      -5.151  10.748  67.734  1.00  0.00    -0.039 C  
HETATM   27  C   UNL     1      -6.082   9.631  68.207  1.00  0.00    -0.051 C  
HETATM   28  C   UNL     1      -7.556  10.090  68.008  1.00  0.00    -0.088 C  
HETATM   29  C   UNL     1      -7.386  10.776  69.399  1.00  0.00    -0.128 C  
HETATM   30  C   UNL     1      -6.424   9.544  69.753  1.00  0.00    -0.046 C  
HETATM   31  C   UNL     1      -5.310   9.769  70.779  1.00  0.00    -0.052 C  
HETATM   32  C   UNL     1      -7.103   8.208  70.133  1.00  0.00    -0.048 C  
ENDBRANCH  23  24
ENDBRANCH  22  23
ENDBRANCH  21  22
ENDBRANCH  20  21
ENDBRANCH  19  20
ENDBRANCH  13  19
ENDBRANCH  12  13
ENDBRANCH   7  12
ENDBRANCH   2   3
TORSDOF 10
ENDMDL
MODEL      308
REMARK 921   NORMALIZED FREE ENERGY PREDICTED BY IDOCK:    1.43 KCAL/MOL
REMARK 922        TOTAL FREE ENERGY PREDICTED BY IDOCK:    0.99 KCAL/MOL
REMARK 923 INTER-LIGAND FREE ENERGY PREDICTED BY IDOCK:   -0.22 KCAL/MOL
REMARK 924 INTRA-LIGAND FREE ENERGY PREDICTED BY IDOCK:    1.21 KCAL/MOL
REMARK 927      BINDING AFFINITY PREDICTED BY RF-SCORE:    0.00 PKD
ROOT
HETATM    1  C   UNL     1      -6.754  10.545  65.935  1.00  0.00    -0.130 C  
HETATM    2  O   UNL     1      -7.189  11.192  67.122  1.00  0.00    -0.105 OA 
ENDROOT
BRANCH   2   3
HETATM    3  C   UNL     1      -7.846  12.385  67.006  1.00  0.00    -0.085 A  
HETATM    4  C   UNL     1      -7.585  13.589  67.674  1.00  0.00    -0.177 A  
HETATM    5  C   UNL     1      -8.953  12.311  66.153  1.00  0.00    -0.009 A  
HETATM    6  C   UNL     1      -8.451  14.675  67.485  1.00  0.00    -0.200 A  
HETATM    7  C   UNL     1      -9.647  14.562  66.743  1.00  0.00    -0.274 A  
HETATM    8 BR   UNL     1     -11.233  13.167  64.739  1.00  0.00    -0.371 Br 
HETATM    9  C   UNL     1      -9.830  13.387  66.000  1.00  0.00    -0.263 A  
BRANCH   4  10
HETATM   10  O   UNL     1      -6.484  13.689  68.477  1.00  0.00    -0.077 OA 
HETATM   11  C   UNL     1      -6.634  14.514  69.633  1.00  0.00    -0.153 C  
ENDBRANCH   4  10
BRANCH   7  12
HETATM   12  C   UNL     1     -10.722  15.628  66.898  1.00  0.00    -0.307 C  
BRANCH  12  13
HETATM   13  N   UNL     1     -10.167  17.078  67.230  1.00  0.00    -0.303 N  
HETATM   14  O   UNL     1     -10.560  19.937  66.542  1.00  0.00    -0.460 OA 
HETATM   15  C   UNL     1      -9.619  17.760  65.934  1.00  0.00     0.040 C  
HETATM   16  C   UNL     1      -9.359  19.263  66.162  1.00  0.00    -0.269 C  
HETATM   17  C   UNL     1     -11.389  17.939  67.676  1.00  0.00     0.557 C  
HETATM   18  C   UNL     1     -11.076  19.433  67.775  1.00  0.00     0.003 C  
BRANCH  13  19
HETATM   19  C   UNL     1      -9.059  17.014  68.337  1.00  0.00    -0.256 C  
BRANCH  19  20
HETATM   20  C   UNL     1      -9.672  16.763  69.730  1.00  0.00     0.368 C  
BRANCH  20  21
HETATM   21  O   UNL     1     -10.203  15.455  69.915  1.00  0.00    -0.282 OA 
BRANCH  21  22
HETATM   22  C   UNL     1     -10.772  15.279  71.240  1.00  0.00     0.137 C  
BRANCH  22  23
HETATM   23  C   UNL     1     -11.809  14.154  71.296  1.00  0.00    -0.139 C  
BRANCH  23  24
HETATM   24  C   UNL     1     -12.061  13.362  70.000  1.00  0.00    -0.404 C  
HETATM   25  C   UNL     1     -13.406  12.599  70.156  1.00  0.00     1.467 C  
HETATM   26  C   UNL     1     -13.279  11.086  70.379  1.00  0.00     0.209 C  
HETATM   27  C   UNL     1     -11.935  10.547  69.889  1.00  0.00    -0.339 C  
HETATM   28  C   UNL     1     -10.796  11.229  70.703  1.00  0.00     1.252 C  
HETATM   29  C   UNL     1     -10.918  12.375  69.650  1.00  0.00     0.115 C  
HETATM   30  C   UNL     1     -11.281  11.212  68.608  1.00  0.00    -0.314 C  
HETATM   31  C   UNL     1     -12.170  11.565  67.413  1.00  0.00     0.734 C  
HETATM   32  C   UNL     1     -10.106  10.380  68.045  1.00  0.00    -0.189 C  
ENDBRANCH  23  24
ENDBRANCH  22  23
ENDBRANCH  21  22
ENDBRANCH  20  21
ENDBRANCH  19  20
ENDBRANCH  13  19
ENDBRANCH  12  13
ENDBRANCH   7  12
ENDBRANCH   2   3
TORSDOF 10
ENDMDL
MODEL      309
REMARK 921   NORMALIZED FREE ENERGY PREDICTED BY IDOCK:    1.45 KCAL/MOL
REMARK 922        TOTAL FREE ENERGY PREDICTED BY IDOCK:    1.02 KCAL/MOL
REMARK 923 INTER-LIGAND FREE ENERGY PREDICTED BY IDOCK:   -1.54 KCAL/MOL
REMARK 924 INTRA-LIGAND FREE ENERGY PREDICTED BY IDOCK:    2.56 KCAL/MOL
REMARK 927      BINDING AFFINITY PREDICTED BY RF-SCORE:    0.00 PKD
ROOT
HETATM    1  C   UNL     1      -6.026  11.591  67.427  1.00  0.00    -0.082 C  
HETATM    2  O   UNL     1      -7.112  11.934  68.276  1.00  0.00    -0.070 OA 
ENDROOT
BRANCH   2   3
HETATM    3  C   UNL     1      -7.800  10.924  68.887  1.00  0.00    -0.142 A  
HETATM    4  C   UNL     1      -9.188  10.760  68.996  1.00  0.00    -0.146 A  
HETATM    5  C   UNL     1      -6.958  10.008  69.529  1.00  0.00    -0.078 A  
HETATM    6  C   UNL     1      -9.691   9.698  69.760  1.00  0.00    -0.247 A  
HETATM    7  C   UNL     1      -8.851   8.860  70.527  1.00  0.00    -0.221 A  
HETATM    8 BR   UNL     1      -6.206   7.761  71.049  1.00  0.00    -0.034 Br 
HETATM    9  C   UNL     1      -7.469   8.976  70.318  1.00  0.00    -0.083 A  
BRANCH   4  10
HETATM   10  O   UNL     1     -10.021  11.621  68.340  1.00  0.00    -0.191 OA 
HETATM   11  C   UNL     1     -11.071  12.186  69.126  1.00  0.00    -0.205 C  
ENDBRANCH   4  10
BRANCH   7  12
HETATM   12  C   UNL     1      -9.460   8.000  71.624  1.00  0.00    -0.164 C  
BRANCH  12  13
HETATM   13  N   UNL     1     -11.038   8.123  71.755  1.00  0.00    -0.256 N  
HETATM   14  O   UNL     1     -13.401   9.316  70.416  1.00  0.00     0.399 OA 
HETATM   15  C   UNL     1     -11.458   9.624  71.873  1.00  0.00    -0.017 C  
HETATM   16  C   UNL     1     -12.981   9.792  71.694  1.00  0.00    -0.419 C  
HETATM   17  C   UNL     1     -11.644   7.619  70.409  1.00  0.00    -0.119 C  
HETATM   18  C   UNL     1     -13.136   7.920  70.264  1.00  0.00     1.369 C  
BRANCH  13  19
HETATM   19  C   UNL     1     -11.565   7.299  72.980  1.00  0.00    -0.020 C  
BRANCH  19  20
HETATM   20  C   UNL     1     -12.082   5.913  72.542  1.00  0.00    -0.046 C  
BRANCH  20  21
HETATM   21  O   UNL     1     -11.257   5.247  71.592  1.00  0.00    -0.073 OA 
BRANCH  21  22
HETATM   22  C   UNL     1      -9.909   5.033  72.093  1.00  0.00    -0.170 C  
BRANCH  22  23
HETATM   23  C   UNL     1      -8.859   5.012  70.980  1.00  0.00    -0.153 C  
BRANCH  23  24
HETATM   24  C   UNL     1      -7.756   3.942  71.071  1.00  0.00    -0.048 C  
HETATM   25  C   UNL     1      -8.404   2.559  70.781  1.00  0.00    -0.078 C  
HETATM   26  C   UNL     1      -8.589   1.652  72.005  1.00  0.00    -0.069 C  
HETATM   27  C   UNL     1      -7.653   2.039  73.151  1.00  0.00    -0.041 C  
HETATM   28  C   UNL     1      -7.985   3.492  73.599  1.00  0.00    -0.074 C  
HETATM   29  C   UNL     1      -7.031   3.921  72.441  1.00  0.00    -0.046 C  
HETATM   30  C   UNL     1      -6.211   2.588  72.789  1.00  0.00    -0.009 C  
HETATM   31  C   UNL     1      -5.415   1.917  71.666  1.00  0.00    -0.004 C  
HETATM   32  C   UNL     1      -5.273   2.639  74.016  1.00  0.00     0.000 C  
ENDBRANCH  23  24
ENDBRANCH  22  23
ENDBRANCH  21  22
ENDBRANCH  20  21
ENDBRANCH  19  20
ENDBRANCH  13  19
ENDBRANCH  12  13
ENDBRANCH   7  12
ENDBRANCH   2   3
TORSDOF 10
ENDMDL
MODEL      310
REMARK 921   NORMALIZED FREE ENERGY PREDICTED BY IDOCK:    1.85 KCAL/MOL
REMARK 922        TOTAL FREE ENERGY PREDICTED BY IDOCK:    1.65 KCAL/MOL
REMARK 923 INTER-LIGAND FREE ENERGY PREDICTED BY IDOCK:    0.71 KCAL/MOL
REMARK 924 INTRA-LIGAND FREE ENERGY PREDICTED BY IDOCK:    0.95 KCAL/MOL
REMARK 927      BINDING AFFINITY PREDICTED BY RF-SCORE:    0.00 PKD
ROOT
HETATM    1  C   UNL     1      -5.143  12.570  65.842  1.00  0.00     2.611 C  
HETATM    2  O   UNL     1      -5.610  12.419  67.175  1.00  0.00    -0.240 OA 
ENDROOT
BRANCH   2   3
HETATM    3  C   UNL     1      -6.931  12.127  67.369  1.00  0.00    -0.146 A  
HETATM    4  C   UNL     1      -7.949  12.975  67.826  1.00  0.00    -0.164 A  
HETATM    5  C   UNL     1      -7.226  10.779  67.135  1.00  0.00    -0.100 A  
HETATM    6  C   UNL     1      -9.226  12.444  68.055  1.00  0.00    -0.203 A  
HETATM    7  C   UNL     1      -9.493  11.059  67.961  1.00  0.00    -0.169 A  
HETATM    8 BR   UNL     1      -8.765   8.429  66.947  1.00  0.00    -0.147 Br 
HETATM    9  C   UNL     1      -8.492  10.253  67.402  1.00  0.00    -0.125 A  
BRANCH   4  10
HETATM   10  O   UNL     1      -7.687  14.301  68.018  1.00  0.00    -0.116 OA 
HETATM   11  C   UNL     1      -8.202  14.866  69.224  1.00  0.00    -0.124 C  
ENDBRANCH   4  10
BRANCH   7  12
HETATM   12  C   UNL     1     -10.760  10.502  68.592  1.00  0.00    -0.215 C  
BRANCH  12  13
HETATM   13  N   UNL     1     -11.779  11.605  69.105  1.00  0.00    -0.298 N  
HETATM   14  O   UNL     1     -12.105  14.545  69.342  1.00  0.00    -0.308 OA 
HETATM   15  C   UNL     1     -11.114  12.484  70.215  1.00  0.00     0.926 C  
HETATM   16  C   UNL     1     -11.959  13.739  70.512  1.00  0.00    -0.296 C  
HETATM   17  C   UNL     1     -12.044  12.569  67.907  1.00  0.00    -0.058 C  
HETATM   18  C   UNL     1     -12.792  13.842  68.306  1.00  0.00     1.458 C  
BRANCH  13  19
HETATM   19  C   UNL     1     -13.100  10.947  69.632  1.00  0.00     0.754 C  
BRANCH  19  20
HETATM   20  C   UNL     1     -12.803   9.699  70.487  1.00  0.00     0.114 C  
BRANCH  20  21
HETATM   21  O   UNL     1     -11.800   9.888  71.481  1.00  0.00    -0.381 OA 
BRANCH  21  22
HETATM   22  C   UNL     1     -10.734   8.906  71.375  1.00  0.00    -0.312 C  
BRANCH  22  23
HETATM   23  C   UNL     1     -11.255   7.467  71.345  1.00  0.00    -0.272 C  
BRANCH  23  24
HETATM   24  C   UNL     1     -10.758   6.514  72.447  1.00  0.00    -0.253 C  
HETATM   25  C   UNL     1      -9.220   6.698  72.585  1.00  0.00    -0.148 C  
HETATM   26  C   UNL     1      -8.369   5.557  72.010  1.00  0.00    -0.122 C  
HETATM   27  C   UNL     1      -9.162   4.254  71.895  1.00  0.00    -0.173 C  
HETATM   28  C   UNL     1     -10.353   4.478  70.919  1.00  0.00    -0.074 C  
HETATM   29  C   UNL     1     -11.101   5.027  72.173  1.00  0.00    -0.065 C  
HETATM   30  C   UNL     1     -10.256   3.942  72.999  1.00  0.00    -0.228 C  
HETATM   31  C   UNL     1      -9.943   4.237  74.468  1.00  0.00    -0.221 C  
HETATM   32  C   UNL     1     -10.749   2.477  72.944  1.00  0.00    -0.199 C  
ENDBRANCH  23  24
ENDBRANCH  22  23
ENDBRANCH  21  22
ENDBRANCH  20  21
ENDBRANCH  19  20
ENDBRANCH  13  19
ENDBRANCH  12  13
ENDBRANCH   7  12
ENDBRANCH   2   3
TORSDOF 10
ENDMDL
MODEL      311
REMARK 921   NORMALIZED FREE ENERGY PREDICTED BY IDOCK:    1.95 KCAL/MOL
REMARK 922        TOTAL FREE ENERGY PREDICTED BY IDOCK:    1.81 KCAL/MOL
REMARK 923 INTER-LIGAND FREE ENERGY PREDICTED BY IDOCK:    1.55 KCAL/MOL
REMARK 924 INTRA-LIGAND FREE ENERGY PREDICTED BY IDOCK:    0.26 KCAL/MOL
REMARK 927      BINDING AFFINITY PREDICTED BY RF-SCORE:    0.00 PKD
ROOT
HETATM    1  C   UNL     1     -12.079   7.406  67.170  1.00  0.00     4.181 C  
HETATM    2  O   UNL     1     -10.801   7.642  66.597  1.00  0.00    -0.162 OA 
ENDROOT
BRANCH   2   3
HETATM    3  C   UNL     1     -10.084   8.720  67.035  1.00  0.00    -0.265 A  
HETATM    4  C   UNL     1      -9.093   8.760  68.025  1.00  0.00    -0.140 A  
HETATM    5  C   UNL     1     -10.487   9.917  66.432  1.00  0.00    -0.197 A  
HETATM    6  C   UNL     1      -8.551   9.998  68.397  1.00  0.00    -0.113 A  
HETATM    7  C   UNL     1      -9.055  11.220  67.899  1.00  0.00    -0.150 A  
HETATM    8 BR   UNL     1     -10.544  12.674  65.862  1.00  0.00    -0.307 Br 
HETATM    9  C   UNL     1      -9.967  11.148  66.836  1.00  0.00    -0.198 A  
BRANCH   4  10
HETATM   10  O   UNL     1      -8.659   7.596  68.592  1.00  0.00    -0.128 OA 
HETATM   11  C   UNL     1      -7.616   6.917  67.892  1.00  0.00    -0.107 C  
ENDBRANCH   4  10
BRANCH   7  12
HETATM   12  C   UNL     1      -8.710  12.515  68.617  1.00  0.00     0.048 C  
BRANCH  12  13
HETATM   13  N   UNL     1      -7.153  12.801  68.747  1.00  0.00    -0.096 N  
HETATM   14  O   UNL     1      -5.161  14.989  68.538  1.00  0.00    -0.090 OA 
HETATM   15  C   UNL     1      -6.590  13.359  67.400  1.00  0.00    -0.023 C  
HETATM   16  C   UNL     1      -5.168  13.927  67.583  1.00  0.00     0.087 C  
HETATM   17  C   UNL     1      -6.990  13.955  69.784  1.00  0.00     0.139 C  
HETATM   18  C   UNL     1      -5.576  14.536  69.827  1.00  0.00    -0.099 C  
BRANCH  13  19
HETATM   19  C   UNL     1      -6.381  11.509  69.182  1.00  0.00    -0.078 C  
BRANCH  19  20
HETATM   20  C   UNL     1      -6.313  11.386  70.718  1.00  0.00     0.525 C  
BRANCH  20  21
HETATM   21  O   UNL     1      -6.580  10.080  71.219  1.00  0.00    -0.327 OA 
BRANCH  21  22
HETATM   22  C   UNL     1      -5.686   9.084  70.652  1.00  0.00    -0.034 C  
BRANCH  22  23
HETATM   23  C   UNL     1      -6.329   7.699  70.548  1.00  0.00    -0.038 C  
BRANCH  23  24
HETATM   24  C   UNL     1      -7.086   7.179  71.784  1.00  0.00    -0.068 C  
HETATM   25  C   UNL     1      -6.049   6.542  72.750  1.00  0.00    -0.050 C  
HETATM   26  C   UNL     1      -6.061   5.008  72.807  1.00  0.00    -0.026 C  
HETATM   27  C   UNL     1      -7.394   4.430  72.331  1.00  0.00    -0.072 C  
HETATM   28  C   UNL     1      -7.614   4.838  70.845  1.00  0.00    -0.069 C  
HETATM   29  C   UNL     1      -8.199   6.157  71.437  1.00  0.00    -0.123 C  
HETATM   30  C   UNL     1      -8.720   5.240  72.645  1.00  0.00    -0.120 C  
HETATM   31  C   UNL     1      -8.892   5.888  74.022  1.00  0.00    -0.123 C  
HETATM   32  C   UNL     1      -9.996   4.405  72.395  1.00  0.00    -0.232 C  
ENDBRANCH  23  24
ENDBRANCH  22  23
ENDBRANCH  21  22
ENDBRANCH  20  21
ENDBRANCH  19  20
ENDBRANCH  13  19
ENDBRANCH  12  13
ENDBRANCH   7  12
ENDBRANCH   2   3
TORSDOF 10
ENDMDL
MODEL      312
REMARK 921   NORMALIZED FREE ENERGY PREDICTED BY IDOCK:    2.87 KCAL/MOL
REMARK 922        TOTAL FREE ENERGY PREDICTED BY IDOCK:    3.27 KCAL/MOL
REMARK 923 INTER-LIGAND FREE ENERGY PREDICTED BY IDOCK:    3.56 KCAL/MOL
REMARK 924 INTRA-LIGAND FREE ENERGY PREDICTED BY IDOCK:   -0.29 KCAL/MOL
REMARK 927      BINDING AFFINITY PREDICTED BY RF-SCORE:    0.00 PKD
ROOT
HETATM    1  C   UNL     1      -5.125  12.963  66.493  1.00  0.00     1.554 C  
HETATM    2  O   UNL     1      -5.390  12.422  67.779  1.00  0.00    -0.074 OA 
ENDROOT
BRANCH   2   3
HETATM    3  C   UNL     1      -6.678  12.081  68.085  1.00  0.00    -0.064 A  
HETATM    4  C   UNL     1      -7.296  12.063  69.343  1.00  0.00     0.222 A  
HETATM    5  C   UNL     1      -7.397  11.632  66.971  1.00  0.00    -0.143 A  
HETATM    6  C   UNL     1      -8.606  11.578  69.452  1.00  0.00     0.584 A  
HETATM    7  C   UNL     1      -9.283  10.990  68.360  1.00  0.00    -0.175 A  
HETATM    8 BR   UNL     1      -9.569  10.633  65.484  1.00  0.00    -0.294 Br 
HETATM    9  C   UNL     1      -8.688  11.116  67.097  1.00  0.00    -0.141 A  
BRANCH   4  10
HETATM   10  O   UNL     1      -6.622  12.538  70.432  1.00  0.00     0.098 OA 
HETATM   11  C   UNL     1      -5.934  11.558  71.210  1.00  0.00     0.628 C  
ENDBRANCH   4  10
BRANCH   7  12
HETATM   12  C   UNL     1     -10.517  10.139  68.621  1.00  0.00    -0.202 C  
BRANCH  12  13
HETATM   13  N   UNL     1     -11.691  10.898  69.373  1.00  0.00    -0.301 N  
HETATM   14  O   UNL     1     -12.443  13.570  70.421  1.00  0.00    -0.321 OA 
HETATM   15  C   UNL     1     -11.174  11.499  70.721  1.00  0.00     1.122 C  
HETATM   16  C   UNL     1     -12.195  12.488  71.319  1.00  0.00     0.142 C  
HETATM   17  C   UNL     1     -12.080  12.122  68.487  1.00  0.00    -0.057 C  
HETATM   18  C   UNL     1     -13.009  13.111  69.192  1.00  0.00     1.554 C  
BRANCH  13  19
HETATM   19  C   UNL     1     -12.909   9.943  69.620  1.00  0.00     1.080 C  
BRANCH  19  20
HETATM   20  C   UNL     1     -12.465   8.633  70.303  1.00  0.00     0.742 C  
BRANCH  20  21
HETATM   21  O   UNL     1     -12.338   8.719  71.719  1.00  0.00    -0.309 OA 
BRANCH  21  22
HETATM   22  C   UNL     1     -11.356   7.781  72.237  1.00  0.00    -0.321 C  
BRANCH  22  23
HETATM   23  C   UNL     1     -10.704   6.938  71.138  1.00  0.00    -0.252 C  
BRANCH  23  24
HETATM   24  C   UNL     1     -10.313   5.493  71.496  1.00  0.00    -0.282 C  
HETATM   25  C   UNL     1     -11.238   5.016  72.651  1.00  0.00    -0.239 C  
HETATM   26  C   UNL     1     -10.573   4.931  74.031  1.00  0.00    -0.350 C  
HETATM   27  C   UNL     1      -9.052   4.819  73.927  1.00  0.00    -0.112 C  
HETATM   28  C   UNL     1      -8.502   6.096  73.229  1.00  0.00    -0.116 C  
HETATM   29  C   UNL     1      -8.824   5.342  71.901  1.00  0.00    -0.140 C  
HETATM   30  C   UNL     1      -8.441   4.011  72.708  1.00  0.00    -0.100 C  
HETATM   31  C   UNL     1      -9.094   2.694  72.280  1.00  0.00    -0.130 C  
HETATM   32  C   UNL     1      -6.936   3.709  72.894  1.00  0.00    -0.044 C  
ENDBRANCH  23  24
ENDBRANCH  22  23
ENDBRANCH  21  22
ENDBRANCH  20  21
ENDBRANCH  19  20
ENDBRANCH  13  19
ENDBRANCH  12  13
ENDBRANCH   7  12
ENDBRANCH   2   3
TORSDOF 10
ENDMDL
MODEL      313
REMARK 921   NORMALIZED FREE ENERGY PREDICTED BY IDOCK:    3.05 KCAL/MOL
REMARK 922        TOTAL FREE ENERGY PREDICTED BY IDOCK:    3.55 KCAL/MOL
REMARK 923 INTER-LIGAND FREE ENERGY PREDICTED BY IDOCK:    3.22 KCAL/MOL
REMARK 924 INTRA-LIGAND FREE ENERGY PREDICTED BY IDOCK:    0.33 KCAL/MOL
REMARK 927      BINDING AFFINITY PREDICTED BY RF-SCORE:    0.00 PKD
ROOT
HETATM    1  C   UNL     1      -5.125  12.963  66.493  1.00  0.00     1.554 C  
HETATM    2  O   UNL     1      -5.386  12.411  67.775  1.00  0.00    -0.074 OA 
ENDROOT
BRANCH   2   3
HETATM    3  C   UNL     1      -6.670  12.053  68.077  1.00  0.00    -0.070 A  
HETATM    4  C   UNL     1      -7.290  12.019  69.334  1.00  0.00     0.222 A  
HETATM    5  C   UNL     1      -7.382  11.602  66.959  1.00  0.00    -0.143 A  
HETATM    6  C   UNL     1      -8.594  11.518  69.437  1.00  0.00     0.584 A  
HETATM    7  C   UNL     1      -9.263  10.929  68.340  1.00  0.00    -0.168 A  
HETATM    8 BR   UNL     1      -9.540  10.587  65.462  1.00  0.00    -0.307 Br 
HETATM    9  C   UNL     1      -8.667  11.071  67.079  1.00  0.00    -0.141 A  
BRANCH   4  10
HETATM   10  O   UNL     1      -6.623  12.495  70.426  1.00  0.00     0.098 OA 
HETATM   11  C   UNL     1      -6.272  13.878  70.385  1.00  0.00    -0.105 C  
ENDBRANCH   4  10
BRANCH   7  12
HETATM   12  C   UNL     1     -10.487  10.062  68.593  1.00  0.00    -0.204 C  
BRANCH  12  13
HETATM   13  N   UNL     1     -11.671  10.802  69.349  1.00  0.00    -0.297 N  
HETATM   14  O   UNL     1     -12.456  13.458  70.412  1.00  0.00    -0.310 OA 
HETATM   15  C   UNL     1     -11.163  11.400  70.701  1.00  0.00     0.719 C  
HETATM   16  C   UNL     1     -12.196  12.373  71.304  1.00  0.00     0.140 C  
HETATM   17  C   UNL     1     -12.072  12.027  68.470  1.00  0.00    -0.056 C  
HETATM   18  C   UNL     1     -13.015  13.001  69.180  1.00  0.00     1.590 C  
BRANCH  13  19
HETATM   19  C   UNL     1     -12.878   9.831  69.587  1.00  0.00     1.274 C  
BRANCH  19  20
HETATM   20  C   UNL     1     -12.420   8.522  70.263  1.00  0.00     0.771 C  
BRANCH  20  21
HETATM   21  O   UNL     1     -11.370   8.683  71.211  1.00  0.00    -0.255 OA 
BRANCH  21  22
HETATM   22  C   UNL     1     -10.466   7.545  71.224  1.00  0.00    -0.207 C  
BRANCH  22  23
HETATM   23  C   UNL     1     -10.906   6.428  70.274  1.00  0.00    -0.350 C  
BRANCH  23  24
HETATM   24  C   UNL     1      -9.800   5.563  69.642  1.00  0.00    -0.258 C  
HETATM   25  C   UNL     1      -8.827   5.125  70.773  1.00  0.00    -0.154 C  
HETATM   26  C   UNL     1      -7.469   5.840  70.783  1.00  0.00    -0.090 C  
HETATM   27  C   UNL     1      -7.129   6.439  69.418  1.00  0.00    -0.073 C  
HETATM   28  C   UNL     1      -8.206   7.502  69.054  1.00  0.00    -0.128 C  
HETATM   29  C   UNL     1      -9.023   6.288  68.513  1.00  0.00    -0.123 C  
HETATM   30  C   UNL     1      -7.600   5.663  68.119  1.00  0.00    -0.081 C  
HETATM   31  C   UNL     1      -7.470   4.139  68.069  1.00  0.00    -0.068 C  
HETATM   32  C   UNL     1      -6.929   6.199  66.834  1.00  0.00    -0.071 C  
ENDBRANCH  23  24
ENDBRANCH  22  23
ENDBRANCH  21  22
ENDBRANCH  20  21
ENDBRANCH  19  20
ENDBRANCH  13  19
ENDBRANCH  12  13
ENDBRANCH   7  12
ENDBRANCH   2   3
TORSDOF 10
ENDMDL
MODEL      314
REMARK 921   NORMALIZED FREE ENERGY PREDICTED BY IDOCK:    3.93 KCAL/MOL
REMARK 922        TOTAL FREE ENERGY PREDICTED BY IDOCK:    4.96 KCAL/MOL
REMARK 923 INTER-LIGAND FREE ENERGY PREDICTED BY IDOCK:    0.28 KCAL/MOL
REMARK 924 INTRA-LIGAND FREE ENERGY PREDICTED BY IDOCK:    4.68 KCAL/MOL
REMARK 927      BINDING AFFINITY PREDICTED BY RF-SCORE:    0.00 PKD
ROOT
HETATM    1  C   UNL     1      -8.113   9.637  67.921  1.00  0.00    -0.106 C  
HETATM    2  O   UNL     1      -9.206   9.719  67.019  1.00  0.00    -0.140 OA 
ENDROOT
BRANCH   2   3
HETATM    3  C   UNL     1     -10.142  10.694  67.222  1.00  0.00    -0.199 A  
HETATM    4  C   UNL     1     -10.240  11.947  66.601  1.00  0.00    -0.208 A  
HETATM    5  C   UNL     1     -11.044  10.373  68.243  1.00  0.00    -0.338 A  
HETATM    6  C   UNL     1     -11.223  12.847  67.034  1.00  0.00    -0.329 A  
HETATM    7  C   UNL     1     -12.039  12.586  68.157  1.00  0.00    -0.124 A  
HETATM    8 BR   UNL     1     -13.208  10.677  70.019  1.00  0.00     0.688 Br 
HETATM    9  C   UNL     1     -11.996  11.291  68.691  1.00  0.00    -0.243 A  
BRANCH   4  10
HETATM   10  O   UNL     1      -9.394  12.258  65.575  1.00  0.00    -0.097 OA 
HETATM   11  C   UNL     1      -8.570  11.190  65.106  1.00  0.00     0.069 C  
ENDBRANCH   4  10
BRANCH   7  12
HETATM   12  C   UNL     1     -12.794  13.734  68.810  1.00  0.00     1.250 C  
BRANCH  12  13
HETATM   13  N   UNL     1     -12.544  13.881  70.372  1.00  0.00    -0.312 N  
HETATM   14  O   UNL     1     -13.365  12.730  72.980  1.00  0.00    -0.077 OA 
HETATM   15  C   UNL     1     -13.882  14.218  71.107  1.00  0.00    -0.137 C  
HETATM   16  C   UNL     1     -13.733  14.065  72.634  1.00  0.00    -0.477 C  
HETATM   17  C   UNL     1     -12.118  12.474  70.895  1.00  0.00    -0.041 C  
HETATM   18  C   UNL     1     -12.099  12.375  72.422  1.00  0.00     2.603 C  
BRANCH  13  19
HETATM   19  C   UNL     1     -11.457  14.970  70.666  1.00  0.00    -0.293 C  
BRANCH  19  20
HETATM   20  C   UNL     1     -11.961  16.380  70.296  1.00  0.00     0.343 C  
BRANCH  20  21
HETATM   21  O   UNL     1     -11.493  16.865  69.041  1.00  0.00    -0.003 OA 
BRANCH  21  22
HETATM   22  C   UNL     1     -10.126  16.450  68.771  1.00  0.00    -0.247 C  
BRANCH  22  23
HETATM   23  C   UNL     1      -9.089  17.413  69.354  1.00  0.00     0.348 C  
BRANCH  23  24
HETATM   24  C   UNL     1      -8.501  18.474  68.407  1.00  0.00    -0.352 C  
HETATM   25  C   UNL     1      -9.653  19.008  67.509  1.00  0.00    -0.358 C  
HETATM   26  C   UNL     1      -9.628  18.522  66.053  1.00  0.00    -0.071 C  
HETATM   27  C   UNL     1      -8.236  18.053  65.630  1.00  0.00     0.470 C  
HETATM   28  C   UNL     1      -7.819  16.849  66.525  1.00  0.00    -0.330 C  
HETATM   29  C   UNL     1      -7.338  17.941  67.531  1.00  0.00    -0.209 C  
HETATM   30  C   UNL     1      -6.976  18.805  66.230  1.00  0.00    -0.264 C  
HETATM   31  C   UNL     1      -7.002  20.331  66.348  1.00  0.00    -0.296 C  
HETATM   32  C   UNL     1      -5.667  18.448  65.490  1.00  0.00    -0.244 C  
ENDBRANCH  23  24
ENDBRANCH  22  23
ENDBRANCH  21  22
ENDBRANCH  20  21
ENDBRANCH  19  20
ENDBRANCH  13  19
ENDBRANCH  12  13
ENDBRANCH   7  12
ENDBRANCH   2   3
TORSDOF 10
ENDMDL
MODEL      315
REMARK 921   NORMALIZED FREE ENERGY PREDICTED BY IDOCK:    6.91 KCAL/MOL
REMARK 922        TOTAL FREE ENERGY PREDICTED BY IDOCK:    9.67 KCAL/MOL
REMARK 923 INTER-LIGAND FREE ENERGY PREDICTED BY IDOCK:    4.17 KCAL/MOL
REMARK 924 INTRA-LIGAND FREE ENERGY PREDICTED BY IDOCK:    5.50 KCAL/MOL
REMARK 927      BINDING AFFINITY PREDICTED BY RF-SCORE:    0.00 PKD
ROOT
HETATM    1  C   UNL     1     -11.871  10.811  67.446  1.00  0.00     0.722 C  
HETATM    2  O   UNL     1     -12.230   9.443  67.577  1.00  0.00     3.108 OA 
ENDROOT
BRANCH   2   3
HETATM    3  C   UNL     1     -11.336   8.593  68.166  1.00  0.00     0.868 A  
HETATM    4  C   UNL     1     -10.222   7.969  67.589  1.00  0.00    -0.228 A  
HETATM    5  C   UNL     1     -11.672   8.289  69.490  1.00  0.00     0.803 A  
HETATM    6  C   UNL     1      -9.490   7.044  68.347  1.00  0.00    -0.133 A  
HETATM    7  C   UNL     1      -9.908   6.625  69.630  1.00  0.00    -0.168 A  
HETATM    8 BR   UNL     1     -11.476   7.102  72.036  1.00  0.00    -0.328 Br 
HETATM    9  C   UNL     1     -10.959   7.339  70.224  1.00  0.00    -0.260 A  
BRANCH   4  10
HETATM   10  O   UNL     1      -9.857   8.287  66.312  1.00  0.00    -0.232 OA 
HETATM   11  C   UNL     1     -10.042   9.652  65.937  1.00  0.00    -0.234 C  
ENDBRANCH   4  10
BRANCH   7  12
HETATM   12  C   UNL     1      -9.316   5.358  70.228  1.00  0.00    -0.154 C  
BRANCH  12  13
HETATM   13  N   UNL     1      -7.764   5.164  69.953  1.00  0.00    -0.067 N  
HETATM   14  O   UNL     1      -5.269   4.220  71.251  1.00  0.00     0.000 OA 
HETATM   15  C   UNL     1      -6.924   6.002  70.972  1.00  0.00    -0.068 C  
HETATM   16  C   UNL     1      -5.436   5.601  70.929  1.00  0.00    -0.009 C  
HETATM   17  C   UNL     1      -7.433   3.671  70.260  1.00  0.00    -0.041 C  
HETATM   18  C   UNL     1      -5.933   3.378  70.306  1.00  0.00    -0.019 C  
BRANCH  13  19
HETATM   19  C   UNL     1      -7.403   5.553  68.479  1.00  0.00    -0.076 C  
BRANCH  19  20
HETATM   20  C   UNL     1      -6.501   6.805  68.434  1.00  0.00    -0.042 C  
BRANCH  20  21
HETATM   21  O   UNL     1      -6.994   7.859  67.614  1.00  0.00    -0.071 OA 
BRANCH  21  22
HETATM   22  C   UNL     1      -7.616   8.915  68.395  1.00  0.00    -0.091 C  
BRANCH  22  23
HETATM   23  C   UNL     1      -7.370  10.308  67.812  1.00  0.00    -0.087 C  
BRANCH  23  24
HETATM   24  C   UNL     1      -7.339  11.490  68.797  1.00  0.00    -0.115 C  
HETATM   25  C   UNL     1      -8.803  11.803  69.218  1.00  0.00     0.602 C  
HETATM   26  C   UNL     1      -9.405  13.074  68.602  1.00  0.00     0.009 C  
HETATM   27  C   UNL     1      -8.324  14.048  68.132  1.00  0.00    -0.164 C  
HETATM   28  C   UNL     1      -7.475  13.358  67.026  1.00  0.00     0.232 C  
HETATM   29  C   UNL     1      -6.663  12.758  68.215  1.00  0.00    -0.087 C  
HETATM   30  C   UNL     1      -6.980  14.138  68.967  1.00  0.00    -0.112 C  
HETATM   31  C   UNL     1      -7.047  14.129  70.496  1.00  0.00     0.706 C  
HETATM   32  C   UNL     1      -6.123  15.365  68.577  1.00  0.00    -0.093 C  
ENDBRANCH  23  24
ENDBRANCH  22  23
ENDBRANCH  21  22
ENDBRANCH  20  21
ENDBRANCH  19  20
ENDBRANCH  13  19
ENDBRANCH  12  13
ENDBRANCH   7  12
ENDBRANCH   2   3
TORSDOF 10
ENDMDL
MODEL      316
REMARK 921   NORMALIZED FREE ENERGY PREDICTED BY IDOCK:    7.96 KCAL/MOL
REMARK 922        TOTAL FREE ENERGY PREDICTED BY IDOCK:   11.33 KCAL/MOL
REMARK 923 INTER-LIGAND FREE ENERGY PREDICTED BY IDOCK:   -2.76 KCAL/MOL
REMARK 924 INTRA-LIGAND FREE ENERGY PREDICTED BY IDOCK:   14.09 KCAL/MOL
REMARK 927      BINDING AFFINITY PREDICTED BY RF-SCORE:    0.00 PKD
ROOT
HETATM    1  C   UNL     1      -6.910   4.448  73.965  1.00  0.00    -0.065 C  
HETATM    2  O   UNL     1      -7.570   3.824  72.873  1.00  0.00    -0.065 OA 
ENDROOT
BRANCH   2   3
HETATM    3  C   UNL     1      -7.773   4.555  71.736  1.00  0.00    -0.091 A  
HETATM    4  C   UNL     1      -8.872   5.358  71.405  1.00  0.00    -0.135 A  
HETATM    5  C   UNL     1      -6.755   4.378  70.792  1.00  0.00    -0.035 A  
HETATM    6  C   UNL     1      -8.929   5.944  70.133  1.00  0.00    -0.148 A  
HETATM    7  C   UNL     1      -7.980   5.654  69.128  1.00  0.00    -0.096 A  
HETATM    8 BR   UNL     1      -5.338   4.686  68.378  1.00  0.00    -0.008 Br 
HETATM    9  C   UNL     1      -6.839   4.936  69.515  1.00  0.00    -0.053 A  
BRANCH   4  10
HETATM   10  O   UNL     1      -9.853   5.574  72.331  1.00  0.00    -0.160 OA 
HETATM   11  C   UNL     1      -9.539   5.181  73.668  1.00  0.00    -0.133 C  
ENDBRANCH   4  10
BRANCH   7  12
HETATM   12  C   UNL     1      -8.303   5.992  67.680  1.00  0.00    -0.108 C  
BRANCH  12  13
HETATM   13  N   UNL     1      -7.472   5.163  66.611  1.00  0.00    -0.086 N  
HETATM   14  O   UNL     1      -7.063   2.400  65.611  1.00  0.00    -0.053 OA 
HETATM   15  C   UNL     1      -6.592   4.084  67.324  1.00  0.00    -0.046 C  
HETATM   16  C   UNL     1      -6.017   3.076  66.310  1.00  0.00    -0.024 C  
HETATM   17  C   UNL     1      -8.504   4.367  65.754  1.00  0.00    -0.114 C  
HETATM   18  C   UNL     1      -7.860   3.311  64.854  1.00  0.00    -0.082 C  
BRANCH  13  19
HETATM   19  C   UNL     1      -6.587   6.111  65.731  1.00  0.00    -0.047 C  
BRANCH  19  20
HETATM   20  C   UNL     1      -5.511   6.821  66.579  1.00  0.00    -0.018 C  
BRANCH  20  21
HETATM   21  O   UNL     1      -5.348   8.205  66.289  1.00  0.00    -0.025 OA 
BRANCH  21  22
HETATM   22  C   UNL     1      -6.591   8.945  66.437  1.00  0.00    -0.067 C  
BRANCH  22  23
HETATM   23  C   UNL     1      -7.808   8.031  66.599  1.00  0.00    -0.098 C  
BRANCH  23  24
HETATM   24  C   UNL     1      -9.139   8.694  66.999  1.00  0.00    -0.165 C  
HETATM   25  C   UNL     1      -9.297   9.997  66.166  1.00  0.00    -0.220 C  
HETATM   26  C   UNL     1      -9.073  11.303  66.941  1.00  0.00    -0.172 C  
HETATM   27  C   UNL     1      -9.257  11.112  68.447  1.00  0.00    -0.175 C  
HETATM   28  C   UNL     1      -8.201  10.087  68.955  1.00  0.00    -0.121 C  
HETATM   29  C   UNL     1      -9.238   9.008  68.514  1.00  0.00    -0.136 C  
HETATM   30  C   UNL     1     -10.351  10.078  68.945  1.00  0.00    -0.217 C  
HETATM   31  C   UNL     1     -11.710  10.030  68.241  1.00  0.00     0.446 C  
HETATM   32  C   UNL     1     -10.649  10.215  70.456  1.00  0.00    -0.243 C  
ENDBRANCH  23  24
ENDBRANCH  22  23
ENDBRANCH  21  22
ENDBRANCH  20  21
ENDBRANCH  19  20
ENDBRANCH  13  19
ENDBRANCH  12  13
ENDBRANCH   7  12
ENDBRANCH   2   3
TORSDOF 10
ENDMDL
MODEL      317
REMARK 921   NORMALIZED FREE ENERGY PREDICTED BY IDOCK:    9.55 KCAL/MOL
REMARK 922        TOTAL FREE ENERGY PREDICTED BY IDOCK:   13.86 KCAL/MOL
REMARK 923 INTER-LIGAND FREE ENERGY PREDICTED BY IDOCK:   11.07 KCAL/MOL
REMARK 924 INTRA-LIGAND FREE ENERGY PREDICTED BY IDOCK:    2.80 KCAL/MOL
REMARK 927      BINDING AFFINITY PREDICTED BY RF-SCORE:    0.00 PKD
ROOT
HETATM    1  C   UNL     1      -7.483   8.081  64.744  1.00  0.00    -0.091 C  
HETATM    2  O   UNL     1      -7.864   9.390  65.140  1.00  0.00    -0.105 OA 
ENDROOT
BRANCH   2   3
HETATM    3  C   UNL     1      -8.662   9.527  66.241  1.00  0.00    -0.143 A  
HETATM    4  C   UNL     1     -10.028   9.836  66.290  1.00  0.00    -0.262 A  
HETATM    5  C   UNL     1      -7.952   9.403  67.441  1.00  0.00    -0.106 A  
HETATM    6  C   UNL     1     -10.638  10.033  67.537  1.00  0.00    -0.336 A  
HETATM    7  C   UNL     1      -9.899  10.053  68.741  1.00  0.00    -0.173 A  
HETATM    8 BR   UNL     1      -7.493   9.339  70.219  1.00  0.00    -0.134 Br 
HETATM    9  C   UNL     1      -8.561   9.637  68.676  1.00  0.00    -0.120 A  
BRANCH   4  10
HETATM   10  O   UNL     1     -10.743   9.919  65.130  1.00  0.00     0.350 OA 
HETATM   11  C   UNL     1     -10.580   8.828  64.223  1.00  0.00     6.519 C  
ENDBRANCH   4  10
BRANCH   7  12
HETATM   12  C   UNL     1     -10.527  10.652  69.990  1.00  0.00    -0.009 C  
BRANCH  12  13
HETATM   13  N   UNL     1     -10.957  12.173  69.845  1.00  0.00     0.226 N  
HETATM   14  O   UNL     1     -13.150  13.886  68.817  1.00  0.00     1.262 OA 
HETATM   15  C   UNL     1     -11.165  12.537  68.338  1.00  0.00    -0.272 C  
HETATM   16  C   UNL     1     -11.869  13.900  68.186  1.00  0.00    -0.372 C  
HETATM   17  C   UNL     1     -12.361  12.313  70.510  1.00  0.00    -0.264 C  
HETATM   18  C   UNL     1     -13.039  13.653  70.221  1.00  0.00     0.305 C  
BRANCH  13  19
HETATM   19  C   UNL     1      -9.898  13.121  70.506  1.00  0.00     4.877 C  
BRANCH  19  20
HETATM   20  C   UNL     1      -9.987  14.549  69.930  1.00  0.00     0.447 C  
BRANCH  20  21
HETATM   21  O   UNL     1      -8.876  14.934  69.128  1.00  0.00    -0.193 OA 
BRANCH  21  22
HETATM   22  C   UNL     1      -8.454  16.298  69.397  1.00  0.00    -0.031 C  
BRANCH  22  23
HETATM   23  C   UNL     1      -9.411  17.341  68.813  1.00  0.00    -0.239 C  
BRANCH  23  24
HETATM   24  C   UNL     1      -8.864  18.255  67.701  1.00  0.00    -0.261 C  
HETATM   25  C   UNL     1      -9.487  17.797  66.353  1.00  0.00    -0.277 C  
HETATM   26  C   UNL     1      -8.535  17.045  65.412  1.00  0.00     1.432 C  
HETATM   27  C   UNL     1      -7.069  17.341  65.728  1.00  0.00     0.153 C  
HETATM   28  C   UNL     1      -6.761  16.861  67.176  1.00  0.00    -0.221 C  
HETATM   29  C   UNL     1      -7.317  18.253  67.609  1.00  0.00    -0.211 C  
HETATM   30  C   UNL     1      -6.688  18.793  66.236  1.00  0.00    -0.247 C  
HETATM   31  C   UNL     1      -7.338  20.012  65.575  1.00  0.00    -0.270 C  
HETATM   32  C   UNL     1      -5.164  19.047  66.213  1.00  0.00    -0.169 C  
ENDBRANCH  23  24
ENDBRANCH  22  23
ENDBRANCH  21  22
ENDBRANCH  20  21
ENDBRANCH  19  20
ENDBRANCH  13  19
ENDBRANCH  12  13
ENDBRANCH   7  12
ENDBRANCH   2   3
TORSDOF 10
ENDMDL
MODEL      318
REMARK 921   NORMALIZED FREE ENERGY PREDICTED BY IDOCK:    9.75 KCAL/MOL
REMARK 922        TOTAL FREE ENERGY PREDICTED BY IDOCK:   14.17 KCAL/MOL
REMARK 923 INTER-LIGAND FREE ENERGY PREDICTED BY IDOCK:   -1.02 KCAL/MOL
REMARK 924 INTRA-LIGAND FREE ENERGY PREDICTED BY IDOCK:   15.19 KCAL/MOL
REMARK 927      BINDING AFFINITY PREDICTED BY RF-SCORE:    0.00 PKD
ROOT
HETATM    1  C   UNL     1     -11.157  13.336  66.699  1.00  0.00    -0.291 C  
HETATM    2  O   UNL     1     -10.591  12.535  67.726  1.00  0.00    -0.212 OA 
ENDROOT
BRANCH   2   3
HETATM    3  C   UNL     1     -10.835  11.191  67.707  1.00  0.00    -0.239 A  
HETATM    4  C   UNL     1     -11.837  10.480  68.382  1.00  0.00     0.136 A  
HETATM    5  C   UNL     1      -9.886  10.480  66.963  1.00  0.00    -0.223 A  
HETATM    6  C   UNL     1     -11.848   9.081  68.307  1.00  0.00     2.156 A  
HETATM    7  C   UNL     1     -10.812   8.353  67.680  1.00  0.00    -0.078 A  
HETATM    8 BR   UNL     1      -8.591   8.267  65.799  1.00  0.00    -0.191 Br 
HETATM    9  C   UNL     1      -9.884   9.085  66.926  1.00  0.00    -0.224 A  
BRANCH   4  10
HETATM   10  O   UNL     1     -12.794  11.162  69.077  1.00  0.00    -0.055 OA 
HETATM   11  C   UNL     1     -12.317  12.206  69.927  1.00  0.00    -0.060 C  
ENDBRANCH   4  10
BRANCH   7  12
HETATM   12  C   UNL     1     -10.668   6.866  67.968  1.00  0.00    -0.218 C  
BRANCH  12  13
HETATM   13  N   UNL     1      -9.662   6.519  69.147  1.00  0.00    -0.136 N  
HETATM   14  O   UNL     1      -8.250   7.757  71.444  1.00  0.00    -0.096 OA 
HETATM   15  C   UNL     1      -8.366   7.386  69.027  1.00  0.00    -0.126 C  
HETATM   16  C   UNL     1      -7.515   7.296  70.310  1.00  0.00    -0.084 C  
HETATM   17  C   UNL     1     -10.349   6.968  70.474  1.00  0.00    -0.201 C  
HETATM   18  C   UNL     1      -9.408   6.954  71.679  1.00  0.00    -0.154 C  
BRANCH  13  19
HETATM   19  C   UNL     1      -9.313   4.992  69.155  1.00  0.00    -0.122 C  
BRANCH  19  20
HETATM   20  C   UNL     1      -7.796   4.763  68.995  1.00  0.00    -0.072 C  
BRANCH  20  21
HETATM   21  O   UNL     1      -7.351   4.671  67.645  1.00  0.00    -0.071 OA 
BRANCH  21  22
HETATM   22  C   UNL     1      -7.065   3.300  67.256  1.00  0.00    -0.058 C  
BRANCH  22  23
HETATM   23  C   UNL     1      -7.648   2.273  68.230  1.00  0.00    -0.054 C  
BRANCH  23  24
HETATM   24  C   UNL     1      -6.996   2.170  69.621  1.00  0.00    -0.033 C  
HETATM   25  C   UNL     1      -8.078   1.679  70.624  1.00  0.00    -0.052 C  
HETATM   26  C   UNL     1      -8.613   2.749  71.586  1.00  0.00    -0.099 C  
HETATM   27  C   UNL     1      -7.641   3.920  71.736  1.00  0.00    -0.061 C  
HETATM   28  C   UNL     1      -7.458   4.599  70.348  1.00  0.00    -0.050 C  
HETATM   29  C   UNL     1      -6.373   3.503  70.108  1.00  0.00    -0.028 C  
HETATM   30  C   UNL     1      -6.086   3.618  71.682  1.00  0.00    -0.014 C  
HETATM   31  C   UNL     1      -5.538   2.386  72.407  1.00  0.00    -0.008 C  
HETATM   32  C   UNL     1      -5.234   4.817  72.156  1.00  0.00    -0.004 C  
ENDBRANCH  23  24
ENDBRANCH  22  23
ENDBRANCH  21  22
ENDBRANCH  20  21
ENDBRANCH  19  20
ENDBRANCH  13  19
ENDBRANCH  12  13
ENDBRANCH   7  12
ENDBRANCH   2   3
TORSDOF 10
ENDMDL
MODEL      319
REMARK 921   NORMALIZED FREE ENERGY PREDICTED BY IDOCK:   12.03 KCAL/MOL
REMARK 922        TOTAL FREE ENERGY PREDICTED BY IDOCK:   17.79 KCAL/MOL
REMARK 923 INTER-LIGAND FREE ENERGY PREDICTED BY IDOCK:    9.13 KCAL/MOL
REMARK 924 INTRA-LIGAND FREE ENERGY PREDICTED BY IDOCK:    8.66 KCAL/MOL
REMARK 927      BINDING AFFINITY PREDICTED BY RF-SCORE:    0.00 PKD
ROOT
HETATM    1  C   UNL     1     -10.154   4.389  67.107  1.00  0.00    -0.072 C  
HETATM    2  O   UNL     1      -9.278   5.500  66.980  1.00  0.00    -0.115 OA 
ENDROOT
BRANCH   2   3
HETATM    3  C   UNL     1      -9.810   6.756  67.053  1.00  0.00    -0.167 A  
HETATM    4  C   UNL     1     -10.997   7.162  67.680  1.00  0.00    -0.155 A  
HETATM    5  C   UNL     1      -9.070   7.699  66.331  1.00  0.00    -0.214 A  
HETATM    6  C   UNL     1     -11.417   8.493  67.547  1.00  0.00     1.522 A  
HETATM    7  C   UNL     1     -10.753   9.410  66.702  1.00  0.00    -0.076 A  
HETATM    8 BR   UNL     1      -8.359  10.198  65.246  1.00  0.00    -0.171 Br 
HETATM    9  C   UNL     1      -9.516   9.013  66.174  1.00  0.00    -0.253 A  
BRANCH   4  10
HETATM   10  O   UNL     1     -11.707   6.263  68.423  1.00  0.00     0.205 OA 
HETATM   11  C   UNL     1     -12.689   6.821  69.297  1.00  0.00     3.557 C  
ENDBRANCH   4  10
BRANCH   7  12
HETATM   12  C   UNL     1     -11.463  10.692  66.293  1.00  0.00     0.810 C  
BRANCH  12  13
HETATM   13  N   UNL     1     -10.539  11.983  66.290  1.00  0.00    -0.244 N  
HETATM   14  O   UNL     1      -7.880  12.942  65.389  1.00  0.00     2.883 OA 
HETATM   15  C   UNL     1      -9.194  11.689  67.031  1.00  0.00    -0.183 C  
HETATM   16  C   UNL     1      -8.164  12.809  66.782  1.00  0.00     0.068 C  
HETATM   17  C   UNL     1     -10.151  12.258  64.805  1.00  0.00    -0.246 C  
HETATM   18  C   UNL     1      -9.046  13.305  64.649  1.00  0.00     1.890 C  
BRANCH  13  19
HETATM   19  C   UNL     1     -11.277  13.203  66.939  1.00  0.00    -0.296 C  
BRANCH  19  20
HETATM   20  C   UNL     1     -10.779  13.461  68.376  1.00  0.00    -0.256 C  
BRANCH  20  21
HETATM   21  O   UNL     1      -9.369  13.624  68.492  1.00  0.00    -0.194 OA 
BRANCH  21  22
HETATM   22  C   UNL     1      -9.013  14.587  69.521  1.00  0.00     0.340 C  
BRANCH  22  23
HETATM   23  C   UNL     1      -7.522  14.564  69.864  1.00  0.00     0.181 C  
BRANCH  23  24
HETATM   24  C   UNL     1      -6.618  15.585  69.149  1.00  0.00    -0.136 C  
HETATM   25  C   UNL     1      -5.509  16.026  70.146  1.00  0.00    -0.162 C  
HETATM   26  C   UNL     1      -5.674  17.438  70.727  1.00  0.00     0.151 C  
HETATM   27  C   UNL     1      -6.564  18.317  69.849  1.00  0.00     0.104 C  
HETATM   28  C   UNL     1      -7.983  17.680  69.777  1.00  0.00     1.151 C  
HETATM   29  C   UNL     1      -7.388  16.821  68.618  1.00  0.00    -0.218 C  
HETATM   30  C   UNL     1      -6.503  18.115  68.278  1.00  0.00    -0.196 C  
HETATM   31  C   UNL     1      -5.146  17.903  67.603  1.00  0.00    -0.130 C  
HETATM   32  C   UNL     1      -7.199  19.260  67.507  1.00  0.00    -0.246 C  
ENDBRANCH  23  24
ENDBRANCH  22  23
ENDBRANCH  21  22
ENDBRANCH  20  21
ENDBRANCH  19  20
ENDBRANCH  13  19
ENDBRANCH  12  13
ENDBRANCH   7  12
ENDBRANCH   2   3
TORSDOF 10
ENDMDL
MODEL      320
REMARK 921   NORMALIZED FREE ENERGY PREDICTED BY IDOCK:   14.33 KCAL/MOL
REMARK 922        TOTAL FREE ENERGY PREDICTED BY IDOCK:   21.44 KCAL/MOL
REMARK 923 INTER-LIGAND FREE ENERGY PREDICTED BY IDOCK:    9.85 KCAL/MOL
REMARK 924 INTRA-LIGAND FREE ENERGY PREDICTED BY IDOCK:   11.59 KCAL/MOL
REMARK 927      BINDING AFFINITY PREDICTED BY RF-SCORE:    0.00 PKD
ROOT
HETATM    1  C   UNL     1     -10.150  10.407  64.068  1.00  0.00    -0.145 C  
HETATM    2  O   UNL     1      -9.698  10.547  65.407  1.00  0.00    -0.219 OA 
ENDROOT
BRANCH   2   3
HETATM    3  C   UNL     1      -9.563  11.809  65.916  1.00  0.00    -0.230 A  
HETATM    4  C   UNL     1      -8.382  12.507  66.204  1.00  0.00     0.579 A  
HETATM    5  C   UNL     1     -10.792  12.396  66.238  1.00  0.00    -0.299 A  
HETATM    6  C   UNL     1      -8.465  13.761  66.823  1.00  0.00     0.007 A  
HETATM    7  C   UNL     1      -9.691  14.293  67.282  1.00  0.00    -0.234 A  
HETATM    8 BR   UNL     1     -12.601  14.339  67.177  1.00  0.00     0.577 Br 
HETATM    9  C   UNL     1     -10.862  13.629  66.889  1.00  0.00    -0.283 A  
BRANCH   4  10
HETATM   10  O   UNL     1      -7.177  11.965  65.857  1.00  0.00     0.619 OA 
HETATM   11  C   UNL     1      -6.229  11.833  66.916  1.00  0.00    -0.134 C  
ENDBRANCH   4  10
BRANCH   7  12
HETATM   12  C   UNL     1      -9.677  15.443  68.278  1.00  0.00    -0.209 C  
BRANCH  12  13
HETATM   13  N   UNL     1      -8.354  15.539  69.151  1.00  0.00    -0.235 N  
HETATM   14  O   UNL     1      -5.468  16.193  68.942  1.00  0.00    -0.110 OA 
HETATM   15  C   UNL     1      -7.264  14.566  68.594  1.00  0.00    -0.124 C  
HETATM   16  C   UNL     1      -5.886  14.856  69.222  1.00  0.00    -0.102 C  
HETATM   17  C   UNL     1      -7.781  16.976  68.947  1.00  0.00    -0.231 C  
HETATM   18  C   UNL     1      -6.367  17.150  69.503  1.00  0.00    -0.230 C  
BRANCH  13  19
HETATM   19  C   UNL     1      -8.654  15.236  70.659  1.00  0.00     1.770 C  
BRANCH  19  20
HETATM   20  C   UNL     1      -9.377  13.884  70.826  1.00  0.00     4.742 C  
BRANCH  20  21
HETATM   21  O   UNL     1     -10.793  13.951  70.694  1.00  0.00     0.669 OA 
BRANCH  21  22
HETATM   22  C   UNL     1     -11.247  13.441  69.411  1.00  0.00    -0.175 C  
BRANCH  22  23
HETATM   23  C   UNL     1     -10.441  12.229  68.936  1.00  0.00    -0.131 C  
BRANCH  23  24
HETATM   24  C   UNL     1      -9.704  11.407  70.010  1.00  0.00     1.617 C  
HETATM   25  C   UNL     1      -8.205  11.817  69.984  1.00  0.00     2.353 C  
HETATM   26  C   UNL     1      -7.255  10.785  69.360  1.00  0.00    -0.132 C  
HETATM   27  C   UNL     1      -7.854   9.379  69.366  1.00  0.00    -0.087 C  
HETATM   28  C   UNL     1      -9.154   9.385  68.510  1.00  0.00    -0.131 C  
HETATM   29  C   UNL     1      -9.849   9.876  69.818  1.00  0.00    -0.268 C  
HETATM   30  C   UNL     1      -8.778   8.962  70.584  1.00  0.00    -0.230 C  
HETATM   31  C   UNL     1      -8.370   9.364  72.004  1.00  0.00     1.010 C  
HETATM   32  C   UNL     1      -9.052   7.441  70.625  1.00  0.00    -0.156 C  
ENDBRANCH  23  24
ENDBRANCH  22  23
ENDBRANCH  21  22
ENDBRANCH  20  21
ENDBRANCH  19  20
ENDBRANCH  13  19
ENDBRANCH  12  13
ENDBRANCH   7  12
ENDBRANCH   2   3
TORSDOF 10
ENDMDL
MODEL      321
REMARK 921   NORMALIZED FREE ENERGY PREDICTED BY IDOCK:   16.49 KCAL/MOL
REMARK 922        TOTAL FREE ENERGY PREDICTED BY IDOCK:   24.85 KCAL/MOL
REMARK 923 INTER-LIGAND FREE ENERGY PREDICTED BY IDOCK:   21.64 KCAL/MOL
REMARK 924 INTRA-LIGAND FREE ENERGY PREDICTED BY IDOCK:    3.21 KCAL/MOL
REMARK 927      BINDING AFFINITY PREDICTED BY RF-SCORE:    0.00 PKD
ROOT
HETATM    1  C   UNL     1      -9.932  12.209  64.596  1.00  0.00    -0.202 C  
HETATM    2  O   UNL     1     -10.721  13.363  64.346  1.00  0.00    -0.396 OA 
ENDROOT
BRANCH   2   3
HETATM    3  C   UNL     1     -11.008  14.191  65.396  1.00  0.00    -0.327 A  
HETATM    4  C   UNL     1     -10.719  15.556  65.529  1.00  0.00    -0.381 A  
HETATM    5  C   UNL     1     -11.598  13.515  66.470  1.00  0.00    -0.391 A  
HETATM    6  C   UNL     1     -11.010  16.198  66.741  1.00  0.00    -0.080 A  
HETATM    7  C   UNL     1     -11.469  15.492  67.875  1.00  0.00    -0.276 A  
HETATM    8 BR   UNL     1     -12.737  13.133  69.017  1.00  0.00     1.181 Br 
HETATM    9  C   UNL     1     -11.849  14.156  67.685  1.00  0.00    -0.392 A  
BRANCH   4  10
HETATM   10  O   UNL     1     -10.183  16.237  64.475  1.00  0.00     0.008 OA 
HETATM   11  C   UNL     1      -8.765  16.404  64.501  1.00  0.00     6.470 C  
ENDBRANCH   4  10
BRANCH   7  12
HETATM   12  C   UNL     1     -11.389  16.152  69.244  1.00  0.00    -0.328 C  
BRANCH  12  13
HETATM   13  N   UNL     1     -10.858  15.202  70.400  1.00  0.00    -0.252 N  
HETATM   14  O   UNL     1     -10.385  15.138  73.329  1.00  0.00     2.616 OA 
HETATM   15  C   UNL     1      -9.627  15.852  71.113  1.00  0.00     2.688 C  
HETATM   16  C   UNL     1      -9.284  15.109  72.420  1.00  0.00     6.685 C  
HETATM   17  C   UNL     1     -11.982  15.132  71.480  1.00  0.00    -0.360 C  
HETATM   18  C   UNL     1     -11.529  14.477  72.786  1.00  0.00     0.783 C  
BRANCH  13  19
HETATM   19  C   UNL     1     -10.494  13.785  69.840  1.00  0.00     0.747 C  
BRANCH  19  20
HETATM   20  C   UNL     1      -9.096  13.337  70.314  1.00  0.00     4.356 C  
BRANCH  20  21
HETATM   21  O   UNL     1      -8.203  12.978  69.264  1.00  0.00     0.441 OA 
BRANCH  21  22
HETATM   22  C   UNL     1      -8.583  11.729  68.626  1.00  0.00    -0.062 C  
BRANCH  22  23
HETATM   23  C   UNL     1      -7.698  10.554  69.050  1.00  0.00    -0.125 C  
BRANCH  23  24
HETATM   24  C   UNL     1      -7.865   9.231  68.279  1.00  0.00    -0.098 C  
HETATM   25  C   UNL     1      -6.573   8.392  68.480  1.00  0.00    -0.059 C  
HETATM   26  C   UNL     1      -5.642   8.320  67.262  1.00  0.00    -0.038 C  
HETATM   27  C   UNL     1      -6.380   8.628  65.959  1.00  0.00    -0.053 C  
HETATM   28  C   UNL     1      -6.937  10.080  66.029  1.00  0.00    -0.110 C  
HETATM   29  C   UNL     1      -8.149   9.432  66.768  1.00  0.00    -0.109 C  
HETATM   30  C   UNL     1      -7.890   8.163  65.824  1.00  0.00    -0.096 C  
HETATM   31  C   UNL     1      -8.297   6.782  66.344  1.00  0.00    -0.121 C  
HETATM   32  C   UNL     1      -8.408   8.251  64.370  1.00  0.00    -0.082 C  
ENDBRANCH  23  24
ENDBRANCH  22  23
ENDBRANCH  21  22
ENDBRANCH  20  21
ENDBRANCH  19  20
ENDBRANCH  13  19
ENDBRANCH  12  13
ENDBRANCH   7  12
ENDBRANCH   2   3
TORSDOF 10
ENDMDL
MODEL      322
REMARK 921   NORMALIZED FREE ENERGY PREDICTED BY IDOCK:   19.48 KCAL/MOL
REMARK 922        TOTAL FREE ENERGY PREDICTED BY IDOCK:   29.59 KCAL/MOL
REMARK 923 INTER-LIGAND FREE ENERGY PREDICTED BY IDOCK:   17.10 KCAL/MOL
REMARK 924 INTRA-LIGAND FREE ENERGY PREDICTED BY IDOCK:   12.49 KCAL/MOL
REMARK 927      BINDING AFFINITY PREDICTED BY RF-SCORE:    0.00 PKD
ROOT
HETATM    1  C   UNL     1      -5.372   5.709  66.895  1.00  0.00    -0.008 C  
HETATM    2  O   UNL     1      -6.483   4.869  67.170  1.00  0.00    -0.045 OA 
ENDROOT
BRANCH   2   3
HETATM    3  C   UNL     1      -7.512   5.378  67.913  1.00  0.00    -0.077 A  
HETATM    4  C   UNL     1      -8.682   6.004  67.461  1.00  0.00    -0.107 A  
HETATM    5  C   UNL     1      -7.273   5.301  69.290  1.00  0.00    -0.057 A  
HETATM    6  C   UNL     1      -9.567   6.552  68.400  1.00  0.00    -0.122 A  
HETATM    7  C   UNL     1      -9.262   6.606  69.779  1.00  0.00    -0.146 A  
HETATM    8 BR   UNL     1      -7.733   5.614  72.050  1.00  0.00    -0.103 Br 
HETATM    9  C   UNL     1      -8.143   5.882  70.214  1.00  0.00    -0.107 A  
BRANCH   4  10
HETATM   10  O   UNL     1      -8.948   6.050  66.123  1.00  0.00    -0.147 OA 
HETATM   11  C   UNL     1      -8.224   5.121  65.315  1.00  0.00    -0.126 C  
ENDBRANCH   4  10
BRANCH   7  12
HETATM   12  C   UNL     1     -10.053   7.544  70.679  1.00  0.00    -0.187 C  
BRANCH  12  13
HETATM   13  N   UNL     1      -9.459   9.013  70.780  1.00  0.00    -0.229 N  
HETATM   14  O   UNL     1      -6.887  10.479  70.968  1.00  0.00    -0.203 OA 
HETATM   15  C   UNL     1      -8.625   9.173  72.093  1.00  0.00     0.574 C  
HETATM   16  C   UNL     1      -7.794  10.472  72.070  1.00  0.00     5.986 C  
HETATM   17  C   UNL     1      -8.439   9.170  69.610  1.00  0.00    -0.133 C  
HETATM   18  C   UNL     1      -7.579  10.430  69.719  1.00  0.00    -0.133 C  
BRANCH  13  19
HETATM   19  C   UNL     1     -10.601  10.085  70.710  1.00  0.00    -0.138 C  
BRANCH  19  20
HETATM   20  C   UNL     1     -10.085  11.416  70.126  1.00  0.00     1.569 C  
BRANCH  20  21
HETATM   21  O   UNL     1      -8.667  11.509  70.029  1.00  0.00     1.516 OA 
BRANCH  21  22
HETATM   22  C   UNL     1      -8.188  12.852  70.313  1.00  0.00     4.140 C  
BRANCH  22  23
HETATM   23  C   UNL     1      -7.224  13.375  69.244  1.00  0.00     0.117 C  
BRANCH  23  24
HETATM   24  C   UNL     1      -7.270  14.881  68.930  1.00  0.00    -0.128 C  
HETATM   25  C   UNL     1      -6.709  15.646  70.163  1.00  0.00     0.072 C  
HETATM   26  C   UNL     1      -7.758  16.375  71.014  1.00  0.00     4.497 C  
HETATM   27  C   UNL     1      -9.041  16.651  70.229  1.00  0.00     2.066 C  
HETATM   28  C   UNL     1      -9.663  15.293  69.793  1.00  0.00    -0.167 C  
HETATM   29  C   UNL     1      -8.690  15.393  68.578  1.00  0.00    -0.178 C  
HETATM   30  C   UNL     1      -8.919  16.977  68.683  1.00  0.00    -0.267 C  
HETATM   31  C   UNL     1      -7.798  17.901  68.199  1.00  0.00    -0.266 C  
HETATM   32  C   UNL     1     -10.232  17.538  68.092  1.00  0.00    -0.359 C  
ENDBRANCH  23  24
ENDBRANCH  22  23
ENDBRANCH  21  22
ENDBRANCH  20  21
ENDBRANCH  19  20
ENDBRANCH  13  19
ENDBRANCH  12  13
ENDBRANCH   7  12
ENDBRANCH   2   3
TORSDOF 10
ENDMDL
MODEL      323
REMARK 921   NORMALIZED FREE ENERGY PREDICTED BY IDOCK:   30.73 KCAL/MOL
REMARK 922        TOTAL FREE ENERGY PREDICTED BY IDOCK:   47.42 KCAL/MOL
REMARK 923 INTER-LIGAND FREE ENERGY PREDICTED BY IDOCK:   10.52 KCAL/MOL
REMARK 924 INTRA-LIGAND FREE ENERGY PREDICTED BY IDOCK:   36.90 KCAL/MOL
REMARK 927      BINDING AFFINITY PREDICTED BY RF-SCORE:    0.00 PKD
ROOT
HETATM    1  C   UNL     1     -10.324  14.031  64.752  1.00  0.00    -0.380 C  
HETATM    2  O   UNL     1     -11.395  13.098  64.773  1.00  0.00    -0.306 OA 
ENDROOT
BRANCH   2   3
HETATM    3  C   UNL     1     -11.399  12.139  65.747  1.00  0.00    -0.354 A  
HETATM    4  C   UNL     1     -10.995  10.801  65.650  1.00  0.00     0.103 A  
HETATM    5  C   UNL     1     -11.956  12.592  66.949  1.00  0.00    -0.345 A  
HETATM    6  C   UNL     1     -11.179   9.951  66.749  1.00  0.00     0.425 A  
HETATM    7  C   UNL     1     -11.871  10.363  67.910  1.00  0.00     0.648 A  
HETATM    8 BR   UNL     1     -12.847  12.509  69.619  1.00  0.00     1.086 Br 
HETATM    9  C   UNL     1     -12.168  11.729  68.025  1.00  0.00     0.346 A  
BRANCH   4  10
HETATM   10  O   UNL     1     -10.411  10.355  64.498  1.00  0.00    -0.311 OA 
HETATM   11  C   UNL     1      -9.239   9.556  64.666  1.00  0.00    -0.185 C  
ENDBRANCH   4  10
BRANCH   7  12
HETATM   12  C   UNL     1     -12.381   9.312  68.884  1.00  0.00     2.779 C  
BRANCH  12  13
HETATM   13  N   UNL     1     -11.286   8.771  69.899  1.00  0.00    -0.050 N  
HETATM   14  O   UNL     1     -10.938   7.947  72.728  1.00  0.00    -0.344 OA 
HETATM   15  C   UNL     1     -11.118   9.763  71.096  1.00  0.00    -0.344 C  
HETATM   16  C   UNL     1     -10.299   9.126  72.237  1.00  0.00     0.265 C  
HETATM   17  C   UNL     1     -11.854   7.456  70.518  1.00  0.00    -0.157 C  
HETATM   18  C   UNL     1     -11.046   6.948  71.713  1.00  0.00    -0.244 C  
BRANCH  13  19
HETATM   19  C   UNL     1      -9.917   8.534  69.174  1.00  0.00    -0.192 C  
BRANCH  19  20
HETATM   20  C   UNL     1      -9.997   8.925  67.684  1.00  0.00    -0.196 C  
BRANCH  20  21
HETATM   21  O   UNL     1      -8.873   8.524  66.907  1.00  0.00    -0.131 OA 
BRANCH  21  22
HETATM   22  C   UNL     1      -8.095   9.662  66.445  1.00  0.00    -0.112 C  
BRANCH  22  23
HETATM   23  C   UNL     1      -8.104  10.828  67.436  1.00  0.00    -0.112 C  
BRANCH  23  24
HETATM   24  C   UNL     1      -8.990  12.040  67.091  1.00  0.00    -0.185 C  
HETATM   25  C   UNL     1      -9.327  11.972  65.575  1.00  0.00    -0.042 C  
HETATM   26  C   UNL     1      -8.586  12.987  64.693  1.00  0.00     3.420 C  
HETATM   27  C   UNL     1      -8.079  14.183  65.500  1.00  0.00     4.274 C  
HETATM   28  C   UNL     1      -7.066  13.674  66.566  1.00  0.00     2.133 C  
HETATM   29  C   UNL     1      -8.332  13.400  67.437  1.00  0.00    -0.193 C  
HETATM   30  C   UNL     1      -8.954  14.691  66.719  1.00  0.00    -0.283 C  
HETATM   31  C   UNL     1     -10.476  14.769  66.567  1.00  0.00    -0.291 C  
HETATM   32  C   UNL     1      -8.498  16.074  67.238  1.00  0.00    -0.206 C  
ENDBRANCH  23  24
ENDBRANCH  22  23
ENDBRANCH  21  22
ENDBRANCH  20  21
ENDBRANCH  19  20
ENDBRANCH  13  19
ENDBRANCH  12  13
ENDBRANCH   7  12
ENDBRANCH   2   3
TORSDOF 10
ENDMDL
MODEL      324
REMARK 921   NORMALIZED FREE ENERGY PREDICTED BY IDOCK:   30.85 KCAL/MOL
REMARK 922        TOTAL FREE ENERGY PREDICTED BY IDOCK:   47.61 KCAL/MOL
REMARK 923 INTER-LIGAND FREE ENERGY PREDICTED BY IDOCK:   41.06 KCAL/MOL
REMARK 924 INTRA-LIGAND FREE ENERGY PREDICTED BY IDOCK:    6.55 KCAL/MOL
REMARK 927      BINDING AFFINITY PREDICTED BY RF-SCORE:    0.00 PKD
ROOT
HETATM    1  C   UNL     1      -8.177   7.960  65.654  1.00  0.00    -0.137 C  
HETATM    2  O   UNL     1      -8.690   9.155  66.224  1.00  0.00    -0.130 OA 
ENDROOT
BRANCH   2   3
HETATM    3  C   UNL     1      -9.399   9.064  67.389  1.00  0.00    -0.139 A  
HETATM    4  C   UNL     1     -10.783   9.181  67.574  1.00  0.00    -0.185 A  
HETATM    5  C   UNL     1      -8.577   8.908  68.511  1.00  0.00    -0.133 A  
HETATM    6  C   UNL     1     -11.301   9.158  68.876  1.00  0.00     0.347 A  
HETATM    7  C   UNL     1     -10.467   9.147  70.017  1.00  0.00    -0.244 A  
HETATM    8 BR   UNL     1      -7.872   8.608  71.220  1.00  0.00    -0.166 Br 
HETATM    9  C   UNL     1      -9.099   8.924  69.806  1.00  0.00    -0.150 A  
BRANCH   4  10
HETATM   10  O   UNL     1     -11.601   9.291  66.486  1.00  0.00     1.657 OA 
HETATM   11  C   UNL     1     -11.408   8.314  65.463  1.00  0.00     6.863 C  
ENDBRANCH   4  10
BRANCH   7  12
HETATM   12  C   UNL     1     -11.054   9.519  71.370  1.00  0.00    -0.368 C  
BRANCH  12  13
HETATM   13  N   UNL     1     -11.667  10.982  71.442  1.00  0.00     0.252 N  
HETATM   14  O   UNL     1     -14.124  12.512  70.791  1.00  0.00     2.127 OA 
HETATM   15  C   UNL     1     -12.045  11.483  70.009  1.00  0.00    -0.331 C  
HETATM   16  C   UNL     1     -12.912  12.756  70.075  1.00  0.00     0.751 C  
HETATM   17  C   UNL     1     -13.015  10.870  72.219  1.00  0.00     0.064 C  
HETATM   18  C   UNL     1     -13.866  12.139  72.145  1.00  0.00     0.129 C  
BRANCH  13  19
HETATM   19  C   UNL     1     -10.671  11.974  72.135  1.00  0.00    10.495 C  
BRANCH  19  20
HETATM   20  C   UNL     1     -10.933  13.429  71.694  1.00  0.00     4.531 C  
BRANCH  20  21
HETATM   21  O   UNL     1      -9.936  13.976  70.838  1.00  0.00     2.630 OA 
BRANCH  21  22
HETATM   22  C   UNL     1     -10.488  14.413  69.566  1.00  0.00    -0.007 C  
BRANCH  22  23
HETATM   23  C   UNL     1     -10.836  13.246  68.639  1.00  0.00    -0.285 C  
BRANCH  23  24
HETATM   24  C   UNL     1     -10.004  13.095  67.352  1.00  0.00    -0.229 C  
HETATM   25  C   UNL     1      -9.058  11.874  67.533  1.00  0.00    -0.178 C  
HETATM   26  C   UNL     1      -7.581  12.217  67.766  1.00  0.00    -0.131 C  
HETATM   27  C   UNL     1      -7.234  13.620  67.265  1.00  0.00     0.005 C  
HETATM   28  C   UNL     1      -8.080  14.658  68.058  1.00  0.00    -0.135 C  
HETATM   29  C   UNL     1      -9.185  14.363  66.997  1.00  0.00    -0.246 C  
HETATM   30  C   UNL     1      -7.972  14.158  65.969  1.00  0.00     2.383 C  
HETATM   31  C   UNL     1      -8.183  13.214  64.782  1.00  0.00     5.300 C  
HETATM   32  C   UNL     1      -7.311  15.433  65.399  1.00  0.00     6.725 C  
ENDBRANCH  23  24
ENDBRANCH  22  23
ENDBRANCH  21  22
ENDBRANCH  20  21
ENDBRANCH  19  20
ENDBRANCH  13  19
ENDBRANCH  12  13
ENDBRANCH   7  12
ENDBRANCH   2   3
TORSDOF 10
ENDMDL
MODEL      325
REMARK 921   NORMALIZED FREE ENERGY PREDICTED BY IDOCK:   32.05 KCAL/MOL
REMARK 922        TOTAL FREE ENERGY PREDICTED BY IDOCK:   49.51 KCAL/MOL
REMARK 923 INTER-LIGAND FREE ENERGY PREDICTED BY IDOCK:   22.07 KCAL/MOL
REMARK 924 INTRA-LIGAND FREE ENERGY PREDICTED BY IDOCK:   27.44 KCAL/MOL
REMARK 927      BINDING AFFINITY PREDICTED BY RF-SCORE:    0.00 PKD
ROOT
HETATM    1  C   UNL     1      -8.171   7.956  65.619  1.00  0.00    -0.137 C  
HETATM    2  O   UNL     1      -8.646   9.250  65.961  1.00  0.00    -0.134 OA 
ENDROOT
BRANCH   2   3
HETATM    3  C   UNL     1      -9.420   9.381  67.081  1.00  0.00    -0.145 A  
HETATM    4  C   UNL     1     -10.807   9.562  67.161  1.00  0.00    -0.086 A  
HETATM    5  C   UNL     1      -8.664   9.402  68.259  1.00  0.00    -0.124 A  
HETATM    6  C   UNL     1     -11.394   9.779  68.416  1.00  0.00     0.027 A  
HETATM    7  C   UNL     1     -10.623   9.946  69.588  1.00  0.00    -0.273 A  
HETATM    8 BR   UNL     1      -8.115   9.561  71.016  1.00  0.00     0.317 Br 
HETATM    9  C   UNL     1      -9.254   9.656  69.499  1.00  0.00    -0.203 A  
BRANCH   4  10
HETATM   10  O   UNL     1     -11.562   9.501  66.025  1.00  0.00     2.174 OA 
HETATM   11  C   UNL     1     -11.349   8.355  65.200  1.00  0.00     8.990 C  
ENDBRANCH   4  10
BRANCH   7  12
HETATM   12  C   UNL     1     -11.268  10.562  70.820  1.00  0.00    -0.105 C  
BRANCH  12  13
HETATM   13  N   UNL     1     -11.825  12.033  70.605  1.00  0.00    -0.158 N  
HETATM   14  O   UNL     1     -14.190  13.501  69.578  1.00  0.00     4.761 OA 
HETATM   15  C   UNL     1     -12.123  12.285  69.091  1.00  0.00    -0.161 C  
HETATM   16  C   UNL     1     -12.941  13.576  68.891  1.00  0.00     1.680 C  
HETATM   17  C   UNL     1     -13.208  12.102  71.324  1.00  0.00     0.028 C  
HETATM   18  C   UNL     1     -14.005  13.364  70.988  1.00  0.00     0.918 C  
BRANCH  13  19
HETATM   19  C   UNL     1     -10.822  13.100  71.161  1.00  0.00     4.033 C  
BRANCH  19  20
HETATM   20  C   UNL     1     -10.970  14.447  70.424  1.00  0.00     0.185 C  
BRANCH  20  21
HETATM   21  O   UNL     1      -9.881  14.775  69.567  1.00  0.00    -0.119 OA 
BRANCH  21  22
HETATM   22  C   UNL     1     -10.308  14.969  68.191  1.00  0.00    -0.239 C  
BRANCH  22  23
HETATM   23  C   UNL     1     -10.612  13.651  67.473  1.00  0.00    -0.243 C  
BRANCH  23  24
HETATM   24  C   UNL     1      -9.696  13.260  66.299  1.00  0.00    -0.274 C  
HETATM   25  C   UNL     1     -10.308  13.847  64.996  1.00  0.00    -0.418 C  
HETATM   26  C   UNL     1     -10.976  12.824  64.067  1.00  0.00    -0.454 C  
HETATM   27  C   UNL     1     -10.469  11.404  64.322  1.00  0.00    -0.401 C  
HETATM   28  C   UNL     1     -10.823  11.000  65.783  1.00  0.00    -0.167 C  
HETATM   29  C   UNL     1      -9.496  11.729  66.159  1.00  0.00    -0.240 C  
HETATM   30  C   UNL     1      -8.953  11.212  64.742  1.00  0.00    -0.033 C  
HETATM   31  C   UNL     1      -7.872  12.037  64.039  1.00  0.00     3.254 C  
HETATM   32  C   UNL     1      -8.499   9.737  64.658  1.00  0.00    -0.179 C  
ENDBRANCH  23  24
ENDBRANCH  22  23
ENDBRANCH  21  22
ENDBRANCH  20  21
ENDBRANCH  19  20
ENDBRANCH  13  19
ENDBRANCH  12  13
ENDBRANCH   7  12
ENDBRANCH   2   3
TORSDOF 10
ENDMDL
MODEL      326
REMARK 921   NORMALIZED FREE ENERGY PREDICTED BY IDOCK:   44.57 KCAL/MOL
REMARK 922        TOTAL FREE ENERGY PREDICTED BY IDOCK:   69.35 KCAL/MOL
REMARK 923 INTER-LIGAND FREE ENERGY PREDICTED BY IDOCK:   38.61 KCAL/MOL
REMARK 924 INTRA-LIGAND FREE ENERGY PREDICTED BY IDOCK:   30.74 KCAL/MOL
REMARK 927      BINDING AFFINITY PREDICTED BY RF-SCORE:    0.00 PKD
ROOT
HETATM    1  C   UNL     1     -10.145  10.405  64.117  1.00  0.00    -0.191 C  
HETATM    2  O   UNL     1      -9.686  10.326  65.459  1.00  0.00    -0.224 OA 
ENDROOT
BRANCH   2   3
HETATM    3  C   UNL     1      -9.560  11.486  66.170  1.00  0.00    -0.225 A  
HETATM    4  C   UNL     1      -8.385  12.161  66.528  1.00  0.00     0.020 A  
HETATM    5  C   UNL     1     -10.788  11.973  66.632  1.00  0.00    -0.311 A  
HETATM    6  C   UNL     1      -8.473  13.290  67.355  1.00  0.00    -0.206 A  
HETATM    7  C   UNL     1      -9.691  13.699  67.942  1.00  0.00    -0.234 A  
HETATM    8 BR   UNL     1     -12.602  13.673  67.953  1.00  0.00     0.916 Br 
HETATM    9  C   UNL     1     -10.861  13.076  67.485  1.00  0.00    -0.247 A  
BRANCH   4  10
HETATM   10  O   UNL     1      -7.183  11.723  66.050  1.00  0.00     0.322 OA 
HETATM   11  C   UNL     1      -6.189  11.442  67.036  1.00  0.00    -0.123 C  
ENDBRANCH   4  10
BRANCH   7  12
HETATM   12  C   UNL     1      -9.663  14.664  69.118  1.00  0.00    -0.103 C  
BRANCH  12  13
HETATM   13  N   UNL     1      -8.305  14.657  69.941  1.00  0.00     0.360 N  
HETATM   14  O   UNL     1      -5.452  15.440  69.734  1.00  0.00    -0.099 OA 
HETATM   15  C   UNL     1      -7.214  13.834  69.182  1.00  0.00    -0.016 C  
HETATM   16  C   UNL     1      -5.818  14.062  69.795  1.00  0.00    -0.115 C  
HETATM   17  C   UNL     1      -7.784  16.127  69.966  1.00  0.00     0.795 C  
HETATM   18  C   UNL     1      -6.352  16.255  70.487  1.00  0.00     0.504 C  
BRANCH  13  19
HETATM   19  C   UNL     1      -8.527  14.089  71.385  1.00  0.00     6.862 C  
BRANCH  19  20
HETATM   20  C   UNL     1      -9.180  12.691  71.344  1.00  0.00    15.349 C  
BRANCH  20  21
HETATM   21  O   UNL     1     -10.600  12.705  71.241  1.00  0.00     4.864 OA 
BRANCH  21  22
HETATM   22  C   UNL     1     -11.052  12.427  69.888  1.00  0.00     0.293 C  
BRANCH  22  23
HETATM   23  C   UNL     1     -11.635  13.660  69.193  1.00  0.00    -0.356 C  
BRANCH  23  24
HETATM   24  C   UNL     1     -11.216  15.039  69.734  1.00  0.00    -0.301 C  
HETATM   25  C   UNL     1     -12.360  15.565  70.647  1.00  0.00    -0.462 C  
HETATM   26  C   UNL     1     -13.210  16.694  70.048  1.00  0.00     4.570 C  
HETATM   27  C   UNL     1     -12.473  17.433  68.930  1.00  0.00     4.438 C  
HETATM   28  C   UNL     1     -12.168  16.427  67.782  1.00  0.00     1.380 C  
HETATM   29  C   UNL     1     -10.901  16.068  68.618  1.00  0.00    -0.301 C  
HETATM   30  C   UNL     1     -10.903  17.611  69.055  1.00  0.00     0.255 C  
HETATM   31  C   UNL     1     -10.297  17.977  70.413  1.00  0.00     1.616 C  
HETATM   32  C   UNL     1     -10.341  18.631  68.039  1.00  0.00    -0.421 C  
ENDBRANCH  23  24
ENDBRANCH  22  23
ENDBRANCH  21  22
ENDBRANCH  20  21
ENDBRANCH  19  20
ENDBRANCH  13  19
ENDBRANCH  12  13
ENDBRANCH   7  12
ENDBRANCH   2   3
TORSDOF 10
ENDMDL
