MODEL        1
REMARK 921   NORMALIZED FREE ENERGY PREDICTED BY IDOCK:   -6.41 KCAL/MOL
REMARK 922        TOTAL FREE ENERGY PREDICTED BY IDOCK:   -7.96 KCAL/MOL
REMARK 923 INTER-LIGAND FREE ENERGY PREDICTED BY IDOCK:   -7.53 KCAL/MOL
REMARK 924 INTRA-LIGAND FREE ENERGY PREDICTED BY IDOCK:   -0.43 KCAL/MOL
REMARK 927      BINDING AFFINITY PREDICTED BY RF-SCORE:    0.00 PKD
ROOT
HETATM    1  C   UNL     1     -12.718  13.825  65.643  1.00  0.00    -0.523 C  
HETATM    2  C   UNL     1     -11.907  14.351  66.830  1.00  0.00    -0.410 C  
ENDROOT
BRANCH   2   3
HETATM    3  C   UNL     1     -10.431  14.758  66.470  1.00  0.00    -0.291 C  
HETATM    4  C   UNL     1      -9.985  15.958  67.337  1.00  0.00    -0.239 C  
HETATM    5  C   UNL     1     -10.346  15.203  64.993  1.00  0.00    -0.377 C  
HETATM    6  C   UNL     1      -9.420  13.613  66.678  1.00  0.00    -0.285 C  
ENDBRANCH   2   3
BRANCH   2   7
HETATM    7  N   UNL     1     -11.916  13.369  67.923  1.00  0.00    -0.347 NA 
HETATM    8  H   UNL     1     -11.841  12.379  67.690  1.00  0.00     0.000 HD 
HETATM    9  C   UNL     1     -12.022  13.726  69.247  1.00  0.00    -0.352 C  
HETATM   10  N   UNL     1     -12.465  14.908  69.567  1.00  0.00    -0.570 NA 
HETATM   11  N   UNL     1     -11.502  12.822  70.131  1.00  0.00    -0.519 NA 
HETATM   12  N   UNL     1     -11.272  10.297  69.589  1.00  0.00    -0.255 NA 
HETATM   13  H   UNL     1     -11.207  13.144  71.053  1.00  0.00     0.000 HD 
HETATM   14  C   UNL     1     -11.356  11.432  69.801  1.00  0.00    -0.255 C  
HETATM   15  H   UNL     1     -12.724  15.533  68.804  1.00  0.00     0.000 HD 
BRANCH  10  16
HETATM   16  C   UNL     1     -12.617  15.395  70.882  1.00  0.00    -0.438 A  
HETATM   17  C   UNL     1     -13.826  15.103  71.507  1.00  0.00    -0.597 A  
HETATM   18  C   UNL     1     -14.029  15.510  72.815  1.00  0.00    -0.459 A  
HETATM   19  N   UNL     1     -13.111  16.183  73.536  1.00  0.00    -0.603 NA 
HETATM   20  C   UNL     1     -11.931  16.427  72.929  1.00  0.00    -0.474 A  
HETATM   21  C   UNL     1     -11.635  16.043  71.629  1.00  0.00    -0.538 A  
ENDBRANCH  10  16
ENDBRANCH   2   7
TORSDOF 3
ENDMDL
MODEL        2
REMARK 921   NORMALIZED FREE ENERGY PREDICTED BY IDOCK:   -6.09 KCAL/MOL
REMARK 922        TOTAL FREE ENERGY PREDICTED BY IDOCK:   -7.59 KCAL/MOL
REMARK 923 INTER-LIGAND FREE ENERGY PREDICTED BY IDOCK:   -7.25 KCAL/MOL
REMARK 924 INTRA-LIGAND FREE ENERGY PREDICTED BY IDOCK:   -0.34 KCAL/MOL
REMARK 927      BINDING AFFINITY PREDICTED BY RF-SCORE:    0.00 PKD
ROOT
HETATM    1  C   UNL     1     -10.942  15.416  71.199  1.00  0.00    -0.277 C  
HETATM    2  C   UNL     1     -12.194  14.581  70.918  1.00  0.00    -0.339 C  
ENDROOT
BRANCH   2   3
HETATM    3  C   UNL     1     -13.212  14.526  72.116  1.00  0.00    -0.455 C  
HETATM    4  C   UNL     1     -14.409  15.464  71.839  1.00  0.00    -0.649 C  
HETATM    5  C   UNL     1     -12.534  15.020  73.414  1.00  0.00    -0.603 C  
HETATM    6  C   UNL     1     -13.760  13.109  72.379  1.00  0.00    -0.640 C  
ENDBRANCH   2   3
BRANCH   2   7
HETATM    7  N   UNL     1     -11.815  13.224  70.504  1.00  0.00    -0.542 NA 
HETATM    8  H   UNL     1     -11.636  12.526  71.226  1.00  0.00     0.000 HD 
HETATM    9  C   UNL     1     -11.690  12.852  69.185  1.00  0.00    -0.324 C  
HETATM   10  N   UNL     1     -11.563  13.763  68.264  1.00  0.00    -0.316 NA 
HETATM   11  N   UNL     1     -11.859  11.517  68.946  1.00  0.00    -0.334 NA 
HETATM   12  N   UNL     1     -11.433   9.699  70.745  1.00  0.00    -0.302 NA 
HETATM   13  H   UNL     1     -12.145  11.214  68.014  1.00  0.00     0.000 HD 
HETATM   14  C   UNL     1     -11.646  10.527  69.964  1.00  0.00    -0.313 C  
HETATM   15  H   UNL     1     -11.557  14.737  68.567  1.00  0.00     0.000 HD 
BRANCH  10  16
HETATM   16  C   UNL     1     -11.431  13.514  66.882  1.00  0.00    -0.344 A  
HETATM   17  C   UNL     1     -12.521  13.868  66.091  1.00  0.00    -0.478 A  
HETATM   18  C   UNL     1     -12.447  13.694  64.719  1.00  0.00    -0.350 A  
HETATM   19  N   UNL     1     -11.366  13.194  64.089  1.00  0.00    -0.384 NA 
HETATM   20  C   UNL     1     -10.305  12.889  64.865  1.00  0.00    -0.308 A  
HETATM   21  C   UNL     1     -10.285  13.045  66.244  1.00  0.00    -0.291 A  
ENDBRANCH  10  16
ENDBRANCH   2   7
TORSDOF 3
ENDMDL
MODEL        3
REMARK 921   NORMALIZED FREE ENERGY PREDICTED BY IDOCK:   -6.02 KCAL/MOL
REMARK 922        TOTAL FREE ENERGY PREDICTED BY IDOCK:   -7.50 KCAL/MOL
REMARK 923 INTER-LIGAND FREE ENERGY PREDICTED BY IDOCK:   -7.19 KCAL/MOL
REMARK 924 INTRA-LIGAND FREE ENERGY PREDICTED BY IDOCK:   -0.31 KCAL/MOL
REMARK 927      BINDING AFFINITY PREDICTED BY RF-SCORE:    0.00 PKD
ROOT
HETATM    1  C   UNL     1     -10.602  19.056  67.449  1.00  0.00    -0.559 C  
HETATM    2  C   UNL     1     -10.082  17.746  68.047  1.00  0.00    -0.355 C  
ENDROOT
BRANCH   2   3
HETATM    3  C   UNL     1      -8.615  17.379  67.613  1.00  0.00    -0.217 C  
HETATM    4  C   UNL     1      -7.846  16.768  68.807  1.00  0.00    -0.243 C  
HETATM    5  C   UNL     1      -7.854  18.652  67.181  1.00  0.00    -0.241 C  
HETATM    6  C   UNL     1      -8.562  16.377  66.442  1.00  0.00    -0.358 C  
ENDBRANCH   2   3
BRANCH   2   7
HETATM    7  N   UNL     1     -11.001  16.644  67.729  1.00  0.00    -0.286 NA 
HETATM    8  H   UNL     1     -11.174  16.422  66.749  1.00  0.00     0.000 HD 
HETATM    9  C   UNL     1     -11.637  15.900  68.695  1.00  0.00    -0.380 C  
HETATM   10  N   UNL     1     -11.726  16.356  69.912  1.00  0.00    -0.292 NA 
HETATM   11  N   UNL     1     -12.007  14.644  68.303  1.00  0.00    -0.527 NA 
HETATM   12  N   UNL     1     -12.449  14.016  65.827  1.00  0.00    -0.491 NA 
HETATM   13  H   UNL     1     -12.137  13.922  69.013  1.00  0.00     0.000 HD 
HETATM   14  C   UNL     1     -12.219  14.308  66.923  1.00  0.00    -0.331 C  
HETATM   15  H   UNL     1     -11.313  17.269  70.100  1.00  0.00     0.000 HD 
BRANCH  10  16
HETATM   16  C   UNL     1     -12.347  15.691  70.990  1.00  0.00    -0.428 A  
HETATM   17  C   UNL     1     -11.600  15.596  72.161  1.00  0.00    -0.538 A  
HETATM   18  C   UNL     1     -12.162  14.997  73.276  1.00  0.00    -0.386 A  
HETATM   19  N   UNL     1     -13.410  14.489  73.299  1.00  0.00    -0.562 NA 
HETATM   20  C   UNL     1     -14.133  14.619  72.167  1.00  0.00    -0.510 A  
HETATM   21  C   UNL     1     -13.658  15.220  71.010  1.00  0.00    -0.486 A  
ENDBRANCH  10  16
ENDBRANCH   2   7
TORSDOF 3
ENDMDL
MODEL        4
REMARK 921   NORMALIZED FREE ENERGY PREDICTED BY IDOCK:   -6.01 KCAL/MOL
REMARK 922        TOTAL FREE ENERGY PREDICTED BY IDOCK:   -7.49 KCAL/MOL
REMARK 923 INTER-LIGAND FREE ENERGY PREDICTED BY IDOCK:   -7.21 KCAL/MOL
REMARK 924 INTRA-LIGAND FREE ENERGY PREDICTED BY IDOCK:   -0.29 KCAL/MOL
REMARK 927      BINDING AFFINITY PREDICTED BY RF-SCORE:    0.00 PKD
ROOT
HETATM    1  C   UNL     1     -10.497  18.629  67.701  1.00  0.00    -0.468 C  
HETATM    2  C   UNL     1     -10.103  17.220  68.151  1.00  0.00    -0.325 C  
ENDROOT
BRANCH   2   3
HETATM    3  C   UNL     1      -8.636  16.807  67.763  1.00  0.00    -0.199 C  
HETATM    4  C   UNL     1      -8.016  15.939  68.882  1.00  0.00    -0.204 C  
HETATM    5  C   UNL     1      -7.751  18.065  67.617  1.00  0.00    -0.215 C  
HETATM    6  C   UNL     1      -8.558  16.018  66.441  1.00  0.00    -0.369 C  
ENDBRANCH   2   3
BRANCH   2   7
HETATM    7  N   UNL     1     -11.065  16.237  67.635  1.00  0.00    -0.243 NA 
HETATM    8  H   UNL     1     -11.226  16.193  66.629  1.00  0.00     0.000 HD 
HETATM    9  C   UNL     1     -11.760  15.372  68.449  1.00  0.00    -0.316 C  
HETATM   10  N   UNL     1     -11.857  15.619  69.724  1.00  0.00    -0.354 NA 
HETATM   11  N   UNL     1     -12.180  14.222  67.842  1.00  0.00    -0.595 NA 
HETATM   12  N   UNL     1     -12.590  14.047  65.288  1.00  0.00    -0.591 NA 
HETATM   13  H   UNL     1     -12.360  13.397  68.415  1.00  0.00     0.000 HD 
HETATM   14  C   UNL     1     -12.374  14.137  66.422  1.00  0.00    -0.400 C  
HETATM   15  H   UNL     1     -11.405  16.464  70.073  1.00  0.00     0.000 HD 
BRANCH  10  16
HETATM   16  C   UNL     1     -12.535  14.812  70.662  1.00  0.00    -0.345 A  
HETATM   17  C   UNL     1     -13.643  15.389  71.277  1.00  0.00    -0.585 A  
HETATM   18  C   UNL     1     -14.385  14.641  72.176  1.00  0.00    -0.503 A  
HETATM   19  N   UNL     1     -14.096  13.365  72.500  1.00  0.00    -0.735 NA 
HETATM   20  C   UNL     1     -13.041  12.809  71.869  1.00  0.00    -0.371 A  
HETATM   21  C   UNL     1     -12.252  13.477  70.944  1.00  0.00    -0.387 A  
ENDBRANCH  10  16
ENDBRANCH   2   7
TORSDOF 3
ENDMDL
MODEL        5
REMARK 921   NORMALIZED FREE ENERGY PREDICTED BY IDOCK:   -5.93 KCAL/MOL
REMARK 922        TOTAL FREE ENERGY PREDICTED BY IDOCK:   -7.40 KCAL/MOL
REMARK 923 INTER-LIGAND FREE ENERGY PREDICTED BY IDOCK:   -7.11 KCAL/MOL
REMARK 924 INTRA-LIGAND FREE ENERGY PREDICTED BY IDOCK:   -0.29 KCAL/MOL
REMARK 927      BINDING AFFINITY PREDICTED BY RF-SCORE:    0.00 PKD
ROOT
HETATM    1  C   UNL     1     -10.725  16.173  65.372  1.00  0.00    -0.374 C  
HETATM    2  C   UNL     1     -10.500  16.014  66.878  1.00  0.00    -0.306 C  
ENDROOT
BRANCH   2   3
HETATM    3  C   UNL     1      -8.990  16.077  67.312  1.00  0.00    -0.211 C  
HETATM    4  C   UNL     1      -8.859  16.795  68.675  1.00  0.00    -0.255 C  
HETATM    5  C   UNL     1      -8.174  16.893  66.285  1.00  0.00    -0.344 C  
HETATM    6  C   UNL     1      -8.337  14.686  67.436  1.00  0.00    -0.223 C  
ENDBRANCH   2   3
BRANCH   2   7
HETATM    7  N   UNL     1     -11.119  14.769  67.352  1.00  0.00    -0.314 NA 
HETATM    8  H   UNL     1     -11.157  13.971  66.718  1.00  0.00     0.000 HD 
HETATM    9  C   UNL     1     -11.649  14.632  68.614  1.00  0.00    -0.314 C  
HETATM   10  N   UNL     1     -11.938  15.690  69.315  1.00  0.00    -0.489 NA 
HETATM   11  N   UNL     1     -11.694  13.348  69.083  1.00  0.00    -0.306 NA 
HETATM   12  N   UNL     1     -11.778  11.281  67.521  1.00  0.00    -0.599 NA 
HETATM   13  H   UNL     1     -11.716  13.191  70.091  1.00  0.00     0.000 HD 
HETATM   14  C   UNL     1     -11.711  12.215  68.202  1.00  0.00    -0.341 C  
HETATM   15  H   UNL     1     -11.757  16.598  68.887  1.00  0.00     0.000 HD 
BRANCH  10  16
HETATM   16  C   UNL     1     -12.480  15.684  70.618  1.00  0.00    -0.417 A  
HETATM   17  C   UNL     1     -11.656  16.179  71.625  1.00  0.00    -0.503 A  
HETATM   18  C   UNL     1     -12.137  16.247  72.921  1.00  0.00    -0.527 A  
HETATM   19  N   UNL     1     -13.377  15.856  73.277  1.00  0.00    -0.586 NA 
HETATM   20  C   UNL     1     -14.175  15.412  72.284  1.00  0.00    -0.545 A  
HETATM   21  C   UNL     1     -13.783  15.325  70.956  1.00  0.00    -0.452 A  
ENDBRANCH  10  16
ENDBRANCH   2   7
TORSDOF 3
ENDMDL
MODEL        6
REMARK 921   NORMALIZED FREE ENERGY PREDICTED BY IDOCK:   -5.90 KCAL/MOL
REMARK 922        TOTAL FREE ENERGY PREDICTED BY IDOCK:   -7.37 KCAL/MOL
REMARK 923 INTER-LIGAND FREE ENERGY PREDICTED BY IDOCK:   -6.91 KCAL/MOL
REMARK 924 INTRA-LIGAND FREE ENERGY PREDICTED BY IDOCK:   -0.46 KCAL/MOL
REMARK 927      BINDING AFFINITY PREDICTED BY RF-SCORE:    0.00 PKD
ROOT
HETATM    1  C   UNL     1      -9.519  13.155  67.175  1.00  0.00    -0.239 C  
HETATM    2  C   UNL     1     -10.746  14.053  66.991  1.00  0.00    -0.284 C  
ENDROOT
BRANCH   2   3
HETATM    3  C   UNL     1     -11.241  14.169  65.503  1.00  0.00    -0.317 C  
HETATM    4  C   UNL     1     -11.055  15.617  64.993  1.00  0.00    -0.399 C  
HETATM    5  C   UNL     1     -12.749  13.844  65.417  1.00  0.00    -0.525 C  
HETATM    6  C   UNL     1     -10.497  13.220  64.542  1.00  0.00    -0.434 C  
ENDBRANCH   2   3
BRANCH   2   7
HETATM    7  N   UNL     1     -10.485  15.387  67.550  1.00  0.00    -0.269 NA 
HETATM    8  H   UNL     1      -9.866  16.017  67.039  1.00  0.00     0.000 HD 
HETATM    9  C   UNL     1     -11.037  15.824  68.731  1.00  0.00    -0.321 C  
HETATM   10  N   UNL     1     -11.531  14.962  69.574  1.00  0.00    -0.279 NA 
HETATM   11  N   UNL     1     -11.145  17.181  68.849  1.00  0.00    -0.228 NA 
HETATM   12  N   UNL     1      -9.611  18.831  67.566  1.00  0.00    -0.297 NA 
HETATM   13  H   UNL     1     -11.844  17.569  69.483  1.00  0.00     0.000 HD 
HETATM   14  C   UNL     1     -10.305  18.079  68.108  1.00  0.00    -0.388 C  
HETATM   15  H   UNL     1     -11.483  13.977  69.317  1.00  0.00     0.000 HD 
BRANCH  10  16
HETATM   16  C   UNL     1     -12.127  15.281  70.812  1.00  0.00    -0.351 A  
HETATM   17  C   UNL     1     -13.514  15.181  70.867  1.00  0.00    -0.432 A  
HETATM   18  C   UNL     1     -14.165  15.434  72.063  1.00  0.00    -0.552 A  
HETATM   19  N   UNL     1     -13.528  15.779  73.199  1.00  0.00    -0.580 NA 
HETATM   20  C   UNL     1     -12.181  15.837  73.139  1.00  0.00    -0.500 A  
HETATM   21  C   UNL     1     -11.446  15.583  71.990  1.00  0.00    -0.515 A  
ENDBRANCH  10  16
ENDBRANCH   2   7
TORSDOF 3
ENDMDL
MODEL        7
REMARK 921   NORMALIZED FREE ENERGY PREDICTED BY IDOCK:   -5.82 KCAL/MOL
REMARK 922        TOTAL FREE ENERGY PREDICTED BY IDOCK:   -7.27 KCAL/MOL
REMARK 923 INTER-LIGAND FREE ENERGY PREDICTED BY IDOCK:   -6.91 KCAL/MOL
REMARK 924 INTRA-LIGAND FREE ENERGY PREDICTED BY IDOCK:   -0.36 KCAL/MOL
REMARK 927      BINDING AFFINITY PREDICTED BY RF-SCORE:    0.00 PKD
ROOT
HETATM    1  C   UNL     1      -9.526  12.979  67.178  1.00  0.00    -0.230 C  
HETATM    2  C   UNL     1     -10.737  13.902  67.013  1.00  0.00    -0.283 C  
ENDROOT
BRANCH   2   3
HETATM    3  C   UNL     1     -11.207  14.086  65.523  1.00  0.00    -0.311 C  
HETATM    4  C   UNL     1     -10.505  13.051  64.614  1.00  0.00    -0.400 C  
HETATM    5  C   UNL     1     -10.811  15.489  65.010  1.00  0.00    -0.468 C  
HETATM    6  C   UNL     1     -12.730  13.930  65.345  1.00  0.00    -0.525 C  
ENDBRANCH   2   3
BRANCH   2   7
HETATM    7  N   UNL     1     -10.465  15.207  67.630  1.00  0.00    -0.249 NA 
HETATM    8  H   UNL     1      -9.809  15.838  67.169  1.00  0.00     0.000 HD 
HETATM    9  C   UNL     1     -11.057  15.617  68.803  1.00  0.00    -0.307 C  
HETATM   10  N   UNL     1     -11.609  14.741  69.592  1.00  0.00    -0.286 NA 
HETATM   11  N   UNL     1     -11.134  16.973  68.965  1.00  0.00    -0.252 NA 
HETATM   12  N   UNL     1      -9.504  18.624  67.809  1.00  0.00    -0.295 NA 
HETATM   13  H   UNL     1     -11.849  17.356  69.583  1.00  0.00     0.000 HD 
HETATM   14  C   UNL     1     -10.240  17.873  68.293  1.00  0.00    -0.388 C  
HETATM   15  H   UNL     1     -11.575  13.764  69.302  1.00  0.00     0.000 HD 
BRANCH  10  16
HETATM   16  C   UNL     1     -12.249  15.032  70.815  1.00  0.00    -0.329 A  
HETATM   17  C   UNL     1     -11.415  15.384  71.872  1.00  0.00    -0.513 A  
HETATM   18  C   UNL     1     -11.975  15.728  73.091  1.00  0.00    -0.465 A  
HETATM   19  N   UNL     1     -13.303  15.742  73.323  1.00  0.00    -0.568 NA 
HETATM   20  C   UNL     1     -14.099  15.433  72.279  1.00  0.00    -0.564 A  
HETATM   21  C   UNL     1     -13.626  15.093  71.019  1.00  0.00    -0.473 A  
ENDBRANCH  10  16
ENDBRANCH   2   7
TORSDOF 3
ENDMDL
MODEL        8
REMARK 921   NORMALIZED FREE ENERGY PREDICTED BY IDOCK:   -5.74 KCAL/MOL
REMARK 922        TOTAL FREE ENERGY PREDICTED BY IDOCK:   -7.18 KCAL/MOL
REMARK 923 INTER-LIGAND FREE ENERGY PREDICTED BY IDOCK:   -6.82 KCAL/MOL
REMARK 924 INTRA-LIGAND FREE ENERGY PREDICTED BY IDOCK:   -0.36 KCAL/MOL
REMARK 927      BINDING AFFINITY PREDICTED BY RF-SCORE:    0.00 PKD
ROOT
HETATM    1  C   UNL     1      -7.360  17.977  68.360  1.00  0.00    -0.263 C  
HETATM    2  C   UNL     1      -8.753  17.881  67.733  1.00  0.00    -0.250 C  
ENDROOT
BRANCH   2   3
HETATM    3  C   UNL     1      -9.435  19.272  67.462  1.00  0.00    -0.379 C  
HETATM    4  C   UNL     1      -8.362  20.327  67.105  1.00  0.00    -0.394 C  
HETATM    5  C   UNL     1     -10.157  19.768  68.735  1.00  0.00    -0.523 C  
HETATM    6  C   UNL     1     -10.467  19.228  66.319  1.00  0.00    -0.567 C  
ENDBRANCH   2   3
BRANCH   2   7
HETATM    7  N   UNL     1      -9.624  17.036  68.562  1.00  0.00    -0.264 NA 
HETATM    8  H   UNL     1      -9.605  17.163  69.574  1.00  0.00     0.000 HD 
HETATM    9  C   UNL     1     -10.463  16.082  68.035  1.00  0.00    -0.275 C  
HETATM   10  N   UNL     1     -10.271  15.648  66.822  1.00  0.00    -0.269 NA 
HETATM   11  N   UNL     1     -11.543  15.772  68.814  1.00  0.00    -0.382 NA 
HETATM   12  N   UNL     1     -11.558  16.085  71.387  1.00  0.00    -0.446 NA 
HETATM   13  H   UNL     1     -12.375  15.380  68.372  1.00  0.00     0.000 HD 
HETATM   14  C   UNL     1     -11.542  15.979  70.235  1.00  0.00    -0.324 C  
HETATM   15  H   UNL     1      -9.485  16.041  66.304  1.00  0.00     0.000 HD 
BRANCH  10  16
HETATM   16  C   UNL     1     -11.060  14.680  66.167  1.00  0.00    -0.334 A  
HETATM   17  C   UNL     1     -11.603  15.060  64.943  1.00  0.00    -0.374 A  
HETATM   18  C   UNL     1     -12.351  14.146  64.221  1.00  0.00    -0.365 A  
HETATM   19  N   UNL     1     -12.591  12.886  64.636  1.00  0.00    -0.657 NA 
HETATM   20  C   UNL     1     -12.029  12.522  65.807  1.00  0.00    -0.420 A  
HETATM   21  C   UNL     1     -11.252  13.365  66.588  1.00  0.00    -0.330 A  
ENDBRANCH  10  16
ENDBRANCH   2   7
TORSDOF 3
ENDMDL
MODEL        9
REMARK 921   NORMALIZED FREE ENERGY PREDICTED BY IDOCK:   -5.69 KCAL/MOL
REMARK 922        TOTAL FREE ENERGY PREDICTED BY IDOCK:   -7.12 KCAL/MOL
REMARK 923 INTER-LIGAND FREE ENERGY PREDICTED BY IDOCK:   -6.84 KCAL/MOL
REMARK 924 INTRA-LIGAND FREE ENERGY PREDICTED BY IDOCK:   -0.28 KCAL/MOL
REMARK 927      BINDING AFFINITY PREDICTED BY RF-SCORE:    0.00 PKD
ROOT
HETATM    1  C   UNL     1      -9.973  12.312  67.666  1.00  0.00    -0.199 C  
HETATM    2  C   UNL     1     -11.068  13.253  67.156  1.00  0.00    -0.286 C  
ENDROOT
BRANCH   2   3
HETATM    3  C   UNL     1     -11.290  13.198  65.600  1.00  0.00    -0.328 C  
HETATM    4  C   UNL     1     -10.415  14.265  64.902  1.00  0.00    -0.454 C  
HETATM    5  C   UNL     1     -12.762  13.519  65.261  1.00  0.00    -0.481 C  
HETATM    6  C   UNL     1     -10.953  11.823  64.989  1.00  0.00    -0.357 C  
ENDBRANCH   2   3
BRANCH   2   7
HETATM    7  N   UNL     1     -10.791  14.630  67.586  1.00  0.00    -0.277 NA 
HETATM    8  H   UNL     1     -10.167  15.202  67.018  1.00  0.00     0.000 HD 
HETATM    9  C   UNL     1     -11.338  15.183  68.721  1.00  0.00    -0.300 C  
HETATM   10  N   UNL     1     -11.840  14.411  69.642  1.00  0.00    -0.302 NA 
HETATM   11  N   UNL     1     -11.431  16.547  68.710  1.00  0.00    -0.235 NA 
HETATM   12  N   UNL     1      -9.880  18.051  67.277  1.00  0.00    -0.296 NA 
HETATM   13  H   UNL     1     -12.125  17.000  69.305  1.00  0.00     0.000 HD 
HETATM   14  C   UNL     1     -10.582  17.361  67.887  1.00  0.00    -0.383 C  
HETATM   15  H   UNL     1     -11.803  13.404  69.479  1.00  0.00     0.000 HD 
BRANCH  10  16
HETATM   16  C   UNL     1     -12.431  14.851  70.844  1.00  0.00    -0.330 A  
HETATM   17  C   UNL     1     -11.553  15.291  71.831  1.00  0.00    -0.515 A  
HETATM   18  C   UNL     1     -12.063  15.781  73.022  1.00  0.00    -0.495 A  
HETATM   19  N   UNL     1     -13.381  15.861  73.291  1.00  0.00    -0.586 NA 
HETATM   20  C   UNL     1     -14.220  15.464  72.311  1.00  0.00    -0.545 A  
HETATM   21  C   UNL     1     -13.798  14.975  71.083  1.00  0.00    -0.468 A  
ENDBRANCH  10  16
ENDBRANCH   2   7
TORSDOF 3
ENDMDL
MODEL       10
REMARK 921   NORMALIZED FREE ENERGY PREDICTED BY IDOCK:   -5.65 KCAL/MOL
REMARK 922        TOTAL FREE ENERGY PREDICTED BY IDOCK:   -7.07 KCAL/MOL
REMARK 923 INTER-LIGAND FREE ENERGY PREDICTED BY IDOCK:   -6.59 KCAL/MOL
REMARK 924 INTRA-LIGAND FREE ENERGY PREDICTED BY IDOCK:   -0.47 KCAL/MOL
REMARK 927      BINDING AFFINITY PREDICTED BY RF-SCORE:    0.00 PKD
ROOT
HETATM    1  C   UNL     1     -12.772  13.614  65.696  1.00  0.00    -0.505 C  
HETATM    2  C   UNL     1     -11.610  13.790  66.678  1.00  0.00    -0.369 C  
ENDROOT
BRANCH   2   3
HETATM    3  C   UNL     1     -10.939  12.440  67.129  1.00  0.00    -0.304 C  
HETATM    4  C   UNL     1     -10.948  11.427  65.961  1.00  0.00    -0.286 C  
HETATM    5  C   UNL     1     -11.741  11.809  68.289  1.00  0.00    -0.377 C  
HETATM    6  C   UNL     1      -9.483  12.617  67.602  1.00  0.00    -0.189 C  
ENDBRANCH   2   3
BRANCH   2   7
HETATM    7  N   UNL     1     -12.050  14.560  67.849  1.00  0.00    -0.596 NA 
HETATM    8  H   UNL     1     -12.818  14.195  68.412  1.00  0.00     0.000 HD 
HETATM    9  C   UNL     1     -11.471  15.752  68.220  1.00  0.00    -0.337 C  
HETATM   10  N   UNL     1     -10.751  16.418  67.364  1.00  0.00    -0.309 NA 
HETATM   11  N   UNL     1     -11.597  16.065  69.545  1.00  0.00    -0.326 NA 
HETATM   12  N   UNL     1     -13.521  15.157  71.028  1.00  0.00    -0.443 NA 
HETATM   13  H   UNL     1     -10.920  16.699  69.970  1.00  0.00     0.000 HD 
HETATM   14  C   UNL     1     -12.653  15.529  70.357  1.00  0.00    -0.378 C  
HETATM   15  H   UNL     1     -10.647  16.019  66.431  1.00  0.00     0.000 HD 
BRANCH  10  16
HETATM   16  C   UNL     1     -10.103  17.644  67.621  1.00  0.00    -0.339 A  
HETATM   17  C   UNL     1      -8.801  17.558  68.105  1.00  0.00    -0.263 A  
HETATM   18  C   UNL     1      -8.086  18.721  68.338  1.00  0.00    -0.340 A  
HETATM   19  N   UNL     1      -8.581  19.955  68.120  1.00  0.00    -0.282 NA 
HETATM   20  C   UNL     1      -9.832  20.022  67.617  1.00  0.00    -0.413 A  
HETATM   21  C   UNL     1     -10.614  18.910  67.339  1.00  0.00    -0.534 A  
ENDBRANCH  10  16
ENDBRANCH   2   7
TORSDOF 3
ENDMDL
MODEL       11
REMARK 921   NORMALIZED FREE ENERGY PREDICTED BY IDOCK:   -5.58 KCAL/MOL
REMARK 922        TOTAL FREE ENERGY PREDICTED BY IDOCK:   -6.99 KCAL/MOL
REMARK 923 INTER-LIGAND FREE ENERGY PREDICTED BY IDOCK:   -6.63 KCAL/MOL
REMARK 924 INTRA-LIGAND FREE ENERGY PREDICTED BY IDOCK:   -0.36 KCAL/MOL
REMARK 927      BINDING AFFINITY PREDICTED BY RF-SCORE:    0.00 PKD
ROOT
HETATM    1  C   UNL     1      -7.694  17.515  66.413  1.00  0.00    -0.332 C  
HETATM    2  C   UNL     1      -9.196  17.811  66.467  1.00  0.00    -0.265 C  
ENDROOT
BRANCH   2   3
HETATM    3  C   UNL     1      -9.546  19.282  66.901  1.00  0.00    -0.398 C  
HETATM    4  C   UNL     1     -10.630  19.866  65.967  1.00  0.00    -0.527 C  
HETATM    5  C   UNL     1      -8.299  20.185  66.777  1.00  0.00    -0.356 C  
HETATM    6  C   UNL     1     -10.057  19.378  68.352  1.00  0.00    -0.538 C  
ENDBRANCH   2   3
BRANCH   2   7
HETATM    7  N   UNL     1      -9.871  16.843  67.342  1.00  0.00    -0.255 NA 
HETATM    8  H   UNL     1      -9.892  17.025  68.345  1.00  0.00     0.000 HD 
HETATM    9  C   UNL     1     -10.477  15.703  66.867  1.00  0.00    -0.307 C  
HETATM   10  N   UNL     1     -10.181  15.257  65.681  1.00  0.00    -0.341 NA 
HETATM   11  N   UNL     1     -11.472  15.206  67.663  1.00  0.00    -0.331 NA 
HETATM   12  N   UNL     1     -11.585  15.646  70.215  1.00  0.00    -0.324 NA 
HETATM   13  H   UNL     1     -12.194  14.620  67.243  1.00  0.00     0.000 HD 
HETATM   14  C   UNL     1     -11.533  15.485  69.070  1.00  0.00    -0.352 C  
HETATM   15  H   UNL     1      -9.494  15.783  65.141  1.00  0.00     0.000 HD 
BRANCH  10  16
HETATM   16  C   UNL     1     -10.733  14.106  65.080  1.00  0.00    -0.416 A  
HETATM   17  C   UNL     1     -11.818  14.319  64.234  1.00  0.00    -0.401 A  
HETATM   18  C   UNL     1     -12.383  13.241  63.573  1.00  0.00    -0.366 A  
HETATM   19  N   UNL     1     -11.941  11.974  63.700  1.00  0.00    -0.501 NA 
HETATM   20  C   UNL     1     -10.867  11.789  64.495  1.00  0.00    -0.321 A  
HETATM   21  C   UNL     1     -10.227  12.811  65.182  1.00  0.00    -0.297 A  
ENDBRANCH  10  16
ENDBRANCH   2   7
TORSDOF 3
ENDMDL
MODEL       12
REMARK 921   NORMALIZED FREE ENERGY PREDICTED BY IDOCK:   -5.57 KCAL/MOL
REMARK 922        TOTAL FREE ENERGY PREDICTED BY IDOCK:   -6.98 KCAL/MOL
REMARK 923 INTER-LIGAND FREE ENERGY PREDICTED BY IDOCK:   -6.61 KCAL/MOL
REMARK 924 INTRA-LIGAND FREE ENERGY PREDICTED BY IDOCK:   -0.37 KCAL/MOL
REMARK 927      BINDING AFFINITY PREDICTED BY RF-SCORE:    0.00 PKD
ROOT
HETATM    1  C   UNL     1     -10.496  18.819  67.631  1.00  0.00    -0.495 C  
HETATM    2  C   UNL     1      -9.552  17.946  68.462  1.00  0.00    -0.326 C  
ENDROOT
BRANCH   2   3
HETATM    3  C   UNL     1      -8.026  18.182  68.160  1.00  0.00    -0.290 C  
HETATM    4  C   UNL     1      -7.781  18.175  66.633  1.00  0.00    -0.264 C  
HETATM    5  C   UNL     1      -7.181  17.038  68.764  1.00  0.00    -0.226 C  
HETATM    6  C   UNL     1      -7.495  19.513  68.727  1.00  0.00    -0.387 C  
ENDBRANCH   2   3
BRANCH   2   7
HETATM    7  N   UNL     1      -9.895  16.528  68.294  1.00  0.00    -0.236 NA 
HETATM    8  H   UNL     1      -9.593  16.051  67.444  1.00  0.00     0.000 HD 
HETATM    9  C   UNL     1     -10.605  15.814  69.231  1.00  0.00    -0.244 C  
HETATM   10  N   UNL     1     -11.298  16.443  70.137  1.00  0.00    -0.444 NA 
HETATM   11  N   UNL     1     -10.395  14.464  69.207  1.00  0.00    -0.404 NA 
HETATM   12  N   UNL     1      -9.615  13.199  67.082  1.00  0.00    -0.228 NA 
HETATM   13  H   UNL     1     -10.571  13.921  70.053  1.00  0.00     0.000 HD 
HETATM   14  C   UNL     1      -9.935  13.785  68.028  1.00  0.00    -0.246 C  
HETATM   15  H   UNL     1     -11.287  17.463  70.109  1.00  0.00     0.000 HD 
BRANCH  10  16
HETATM   16  C   UNL     1     -12.062  15.831  71.152  1.00  0.00    -0.427 A  
HETATM   17  C   UNL     1     -13.345  15.428  70.791  1.00  0.00    -0.385 A  
HETATM   18  C   UNL     1     -14.138  14.778  71.723  1.00  0.00    -0.509 A  
HETATM   19  N   UNL     1     -13.738  14.506  72.981  1.00  0.00    -0.528 NA 
HETATM   20  C   UNL     1     -12.479  14.871  73.303  1.00  0.00    -0.427 A  
HETATM   21  C   UNL     1     -11.611  15.510  72.430  1.00  0.00    -0.543 A  
ENDBRANCH  10  16
ENDBRANCH   2   7
TORSDOF 3
ENDMDL
MODEL       13
REMARK 921   NORMALIZED FREE ENERGY PREDICTED BY IDOCK:   -5.53 KCAL/MOL
REMARK 922        TOTAL FREE ENERGY PREDICTED BY IDOCK:   -6.93 KCAL/MOL
REMARK 923 INTER-LIGAND FREE ENERGY PREDICTED BY IDOCK:   -6.47 KCAL/MOL
REMARK 924 INTRA-LIGAND FREE ENERGY PREDICTED BY IDOCK:   -0.46 KCAL/MOL
REMARK 927      BINDING AFFINITY PREDICTED BY RF-SCORE:    0.00 PKD
ROOT
HETATM    1  C   UNL     1     -12.900  13.716  65.674  1.00  0.00    -0.425 C  
HETATM    2  C   UNL     1     -11.688  13.826  66.603  1.00  0.00    -0.394 C  
ENDROOT
BRANCH   2   3
HETATM    3  C   UNL     1     -11.037  12.444  66.978  1.00  0.00    -0.327 C  
HETATM    4  C   UNL     1     -11.746  11.841  68.212  1.00  0.00    -0.377 C  
HETATM    5  C   UNL     1      -9.552  12.640  67.354  1.00  0.00    -0.194 C  
HETATM    6  C   UNL     1     -11.104  11.414  65.833  1.00  0.00    -0.225 C  
ENDBRANCH   2   3
BRANCH   2   7
HETATM    7  N   UNL     1     -12.048  14.569  67.818  1.00  0.00    -0.598 NA 
HETATM    8  H   UNL     1     -12.813  14.220  68.395  1.00  0.00     0.000 HD 
HETATM    9  C   UNL     1     -11.399  15.716  68.213  1.00  0.00    -0.356 C  
HETATM   10  N   UNL     1     -10.677  16.381  67.356  1.00  0.00    -0.309 NA 
HETATM   11  N   UNL     1     -11.463  15.982  69.552  1.00  0.00    -0.334 NA 
HETATM   12  N   UNL     1     -13.375  15.110  71.070  1.00  0.00    -0.443 NA 
HETATM   13  H   UNL     1     -10.741  16.566  69.975  1.00  0.00     0.000 HD 
HETATM   14  C   UNL     1     -12.515  15.466  70.382  1.00  0.00    -0.404 C  
HETATM   15  H   UNL     1     -10.626  16.015  66.405  1.00  0.00     0.000 HD 
BRANCH  10  16
HETATM   16  C   UNL     1      -9.961  17.564  67.635  1.00  0.00    -0.309 A  
HETATM   17  C   UNL     1     -10.622  18.757  67.357  1.00  0.00    -0.505 A  
HETATM   18  C   UNL     1      -9.999  19.960  67.648  1.00  0.00    -0.419 A  
HETATM   19  N   UNL     1      -8.770  20.049  68.193  1.00  0.00    -0.231 NA 
HETATM   20  C   UNL     1      -8.158  18.883  68.490  1.00  0.00    -0.348 A  
HETATM   21  C   UNL     1      -8.712  17.634  68.249  1.00  0.00    -0.276 A  
ENDBRANCH  10  16
ENDBRANCH   2   7
TORSDOF 3
ENDMDL
MODEL       14
REMARK 921   NORMALIZED FREE ENERGY PREDICTED BY IDOCK:   -5.50 KCAL/MOL
REMARK 922        TOTAL FREE ENERGY PREDICTED BY IDOCK:   -6.89 KCAL/MOL
REMARK 923 INTER-LIGAND FREE ENERGY PREDICTED BY IDOCK:   -6.40 KCAL/MOL
REMARK 924 INTRA-LIGAND FREE ENERGY PREDICTED BY IDOCK:   -0.50 KCAL/MOL
REMARK 927      BINDING AFFINITY PREDICTED BY RF-SCORE:    0.00 PKD
ROOT
HETATM    1  C   UNL     1      -7.348  17.874  68.079  1.00  0.00    -0.230 C  
HETATM    2  C   UNL     1      -8.785  17.830  67.552  1.00  0.00    -0.239 C  
ENDROOT
BRANCH   2   3
HETATM    3  C   UNL     1      -9.433  19.246  67.330  1.00  0.00    -0.376 C  
HETATM    4  C   UNL     1     -10.337  19.225  66.076  1.00  0.00    -0.556 C  
HETATM    5  C   UNL     1      -8.332  20.301  67.084  1.00  0.00    -0.394 C  
HETATM    6  C   UNL     1     -10.281  19.717  68.527  1.00  0.00    -0.547 C  
ENDBRANCH   2   3
BRANCH   2   7
HETATM    7  N   UNL     1      -9.625  17.015  68.441  1.00  0.00    -0.267 NA 
HETATM    8  H   UNL     1      -9.620  17.222  69.440  1.00  0.00     0.000 HD 
HETATM    9  C   UNL     1     -10.417  15.986  67.986  1.00  0.00    -0.275 C  
HETATM   10  N   UNL     1     -10.195  15.468  66.812  1.00  0.00    -0.273 NA 
HETATM   11  N   UNL     1     -11.489  15.690  68.781  1.00  0.00    -0.356 NA 
HETATM   12  N   UNL     1     -11.540  16.203  71.322  1.00  0.00    -0.439 NA 
HETATM   13  H   UNL     1     -12.299  15.229  68.367  1.00  0.00     0.000 HD 
HETATM   14  C   UNL     1     -11.509  16.009  70.181  1.00  0.00    -0.344 C  
HETATM   15  H   UNL     1      -9.423  15.853  66.269  1.00  0.00     0.000 HD 
BRANCH  10  16
HETATM   16  C   UNL     1     -10.935  14.416  66.231  1.00  0.00    -0.318 A  
HETATM   17  C   UNL     1     -10.556  13.128  66.597  1.00  0.00    -0.284 A  
HETATM   18  C   UNL     1     -11.267  12.047  66.102  1.00  0.00    -0.343 A  
HETATM   19  N   UNL     1     -12.322  12.166  65.272  1.00  0.00    -0.477 NA 
HETATM   20  C   UNL     1     -12.699  13.422  64.956  1.00  0.00    -0.360 A  
HETATM   21  C   UNL     1     -12.057  14.563  65.418  1.00  0.00    -0.317 A  
ENDBRANCH  10  16
ENDBRANCH   2   7
TORSDOF 3
ENDMDL
MODEL       15
REMARK 921   NORMALIZED FREE ENERGY PREDICTED BY IDOCK:   -5.47 KCAL/MOL
REMARK 922        TOTAL FREE ENERGY PREDICTED BY IDOCK:   -6.86 KCAL/MOL
REMARK 923 INTER-LIGAND FREE ENERGY PREDICTED BY IDOCK:   -6.37 KCAL/MOL
REMARK 924 INTRA-LIGAND FREE ENERGY PREDICTED BY IDOCK:   -0.50 KCAL/MOL
REMARK 927      BINDING AFFINITY PREDICTED BY RF-SCORE:    0.00 PKD
ROOT
HETATM    1  C   UNL     1     -10.708  17.304  65.801  1.00  0.00    -0.132 C  
HETATM    2  C   UNL     1     -10.393  17.651  67.259  1.00  0.00    -0.354 C  
ENDROOT
BRANCH   2   3
HETATM    3  C   UNL     1      -9.625  19.011  67.445  1.00  0.00    -0.358 C  
HETATM    4  C   UNL     1      -8.107  18.749  67.579  1.00  0.00    -0.273 C  
HETATM    5  C   UNL     1     -10.085  19.708  68.745  1.00  0.00    -0.532 C  
HETATM    6  C   UNL     1      -9.844  19.994  66.278  1.00  0.00    -0.576 C  
ENDBRANCH   2   3
BRANCH   2   7
HETATM    7  N   UNL     1      -9.651  16.552  67.892  1.00  0.00    -0.231 NA 
HETATM    8  H   UNL     1      -8.774  16.249  67.468  1.00  0.00     0.000 HD 
HETATM    9  C   UNL     1     -10.086  15.914  69.031  1.00  0.00    -0.228 C  
HETATM   10  N   UNL     1     -11.331  16.018  69.397  1.00  0.00    -0.347 NA 
HETATM   11  N   UNL     1      -9.100  15.325  69.773  1.00  0.00    -0.432 NA 
HETATM   12  N   UNL     1      -6.846  14.546  68.754  1.00  0.00    -0.088 NA 
HETATM   13  H   UNL     1      -9.259  15.164  70.767  1.00  0.00     0.000 HD 
HETATM   14  C   UNL     1      -7.847  14.927  69.195  1.00  0.00    -0.171 C  
HETATM   15  H   UNL     1     -11.946  16.578  68.807  1.00  0.00     0.000 HD 
BRANCH  10  16
HETATM   16  C   UNL     1     -11.898  15.419  70.541  1.00  0.00    -0.339 A  
HETATM   17  C   UNL     1     -11.852  16.171  71.711  1.00  0.00    -0.581 A  
HETATM   18  C   UNL     1     -12.430  15.667  72.864  1.00  0.00    -0.439 A  
HETATM   19  N   UNL     1     -13.046  14.470  72.926  1.00  0.00    -0.498 NA 
HETATM   20  C   UNL     1     -13.113  13.768  71.776  1.00  0.00    -0.379 A  
HETATM   21  C   UNL     1     -12.577  14.202  70.572  1.00  0.00    -0.410 A  
ENDBRANCH  10  16
ENDBRANCH   2   7
TORSDOF 3
ENDMDL
MODEL       16
REMARK 921   NORMALIZED FREE ENERGY PREDICTED BY IDOCK:   -5.45 KCAL/MOL
REMARK 922        TOTAL FREE ENERGY PREDICTED BY IDOCK:   -6.84 KCAL/MOL
REMARK 923 INTER-LIGAND FREE ENERGY PREDICTED BY IDOCK:   -6.45 KCAL/MOL
REMARK 924 INTRA-LIGAND FREE ENERGY PREDICTED BY IDOCK:   -0.38 KCAL/MOL
REMARK 927      BINDING AFFINITY PREDICTED BY RF-SCORE:    0.00 PKD
ROOT
HETATM    1  C   UNL     1     -12.205  11.231  70.641  1.00  0.00    -0.489 C  
HETATM    2  C   UNL     1     -11.271  10.637  69.583  1.00  0.00    -0.289 C  
ENDROOT
BRANCH   2   3
HETATM    3  C   UNL     1     -10.434   9.403  70.083  1.00  0.00    -0.280 C  
HETATM    4  C   UNL     1      -8.922   9.715  69.992  1.00  0.00    -0.266 C  
HETATM    5  C   UNL     1     -10.703   8.177  69.183  1.00  0.00    -0.117 C  
HETATM    6  C   UNL     1     -10.756   9.003  71.536  1.00  0.00    -0.421 C  
ENDBRANCH   2   3
BRANCH   2   7
HETATM    7  N   UNL     1     -10.381  11.679  69.052  1.00  0.00    -0.385 NA 
HETATM    8  H   UNL     1      -9.618  12.014  69.640  1.00  0.00     0.000 HD 
HETATM    9  C   UNL     1     -10.532  12.222  67.797  1.00  0.00    -0.209 C  
HETATM   10  N   UNL     1     -11.662  12.092  67.165  1.00  0.00    -0.566 NA 
HETATM   11  N   UNL     1      -9.390  12.747  67.257  1.00  0.00    -0.193 NA 
HETATM   12  N   UNL     1      -7.413  13.602  68.700  1.00  0.00    -0.116 NA 
HETATM   13  H   UNL     1      -9.315  12.827  66.242  1.00  0.00     0.000 HD 
HETATM   14  C   UNL     1      -8.294  13.188  68.072  1.00  0.00    -0.162 C  
HETATM   15  H   UNL     1     -12.408  11.583  67.640  1.00  0.00     0.000 HD 
BRANCH  10  16
HETATM   16  C   UNL     1     -11.941  12.597  65.878  1.00  0.00    -0.438 A  
HETATM   17  C   UNL     1     -12.172  13.967  65.795  1.00  0.00    -0.475 A  
HETATM   18  C   UNL     1     -12.408  14.541  64.557  1.00  0.00    -0.414 A  
HETATM   19  N   UNL     1     -12.428  13.844  63.405  1.00  0.00    -0.791 NA 
HETATM   20  C   UNL     1     -12.167  12.523  63.497  1.00  0.00    -0.558 A  
HETATM   21  C   UNL     1     -11.905  11.867  64.691  1.00  0.00    -0.282 A  
ENDBRANCH  10  16
ENDBRANCH   2   7
TORSDOF 3
ENDMDL
MODEL       17
REMARK 921   NORMALIZED FREE ENERGY PREDICTED BY IDOCK:   -5.40 KCAL/MOL
REMARK 922        TOTAL FREE ENERGY PREDICTED BY IDOCK:   -6.77 KCAL/MOL
REMARK 923 INTER-LIGAND FREE ENERGY PREDICTED BY IDOCK:   -6.28 KCAL/MOL
REMARK 924 INTRA-LIGAND FREE ENERGY PREDICTED BY IDOCK:   -0.49 KCAL/MOL
REMARK 927      BINDING AFFINITY PREDICTED BY RF-SCORE:    0.00 PKD
ROOT
HETATM    1  C   UNL     1      -7.727  14.514  67.740  1.00  0.00    -0.167 C  
HETATM    2  C   UNL     1      -8.765  13.437  68.070  1.00  0.00    -0.178 C  
ENDROOT
BRANCH   2   3
HETATM    3  C   UNL     1      -8.357  11.989  67.612  1.00  0.00    -0.160 C  
HETATM    4  C   UNL     1      -9.259  11.528  66.444  1.00  0.00    -0.218 C  
HETATM    5  C   UNL     1      -8.560  10.987  68.770  1.00  0.00    -0.144 C  
HETATM    6  C   UNL     1      -6.888  11.890  67.154  1.00  0.00    -0.144 C  
ENDBRANCH   2   3
BRANCH   2   7
HETATM    7  N   UNL     1     -10.071  13.804  67.507  1.00  0.00    -0.239 NA 
HETATM    8  H   UNL     1     -10.135  13.994  66.506  1.00  0.00     0.000 HD 
HETATM    9  C   UNL     1     -11.212  13.903  68.268  1.00  0.00    -0.272 C  
HETATM   10  N   UNL     1     -11.121  14.017  69.562  1.00  0.00    -0.397 NA 
HETATM   11  N   UNL     1     -12.380  13.725  67.580  1.00  0.00    -0.407 NA 
HETATM   12  N   UNL     1     -12.598  14.178  65.037  1.00  0.00    -0.630 NA 
HETATM   13  H   UNL     1     -13.212  13.421  68.087  1.00  0.00     0.000 HD 
HETATM   14  C   UNL     1     -12.474  13.954  66.166  1.00  0.00    -0.436 C  
HETATM   15  H   UNL     1     -10.184  14.031  69.965  1.00  0.00     0.000 HD 
BRANCH  10  16
HETATM   16  C   UNL     1     -12.211  14.121  70.451  1.00  0.00    -0.356 A  
HETATM   17  C   UNL     1     -12.523  12.972  71.173  1.00  0.00    -0.364 A  
HETATM   18  C   UNL     1     -13.553  13.013  72.099  1.00  0.00    -0.526 A  
HETATM   19  N   UNL     1     -14.285  14.116  72.350  1.00  0.00    -0.623 NA 
HETATM   20  C   UNL     1     -13.947  15.230  71.669  1.00  0.00    -0.529 A  
HETATM   21  C   UNL     1     -12.921  15.286  70.736  1.00  0.00    -0.492 A  
ENDBRANCH  10  16
ENDBRANCH   2   7
TORSDOF 3
ENDMDL
MODEL       18
REMARK 921   NORMALIZED FREE ENERGY PREDICTED BY IDOCK:   -5.33 KCAL/MOL
REMARK 922        TOTAL FREE ENERGY PREDICTED BY IDOCK:   -6.70 KCAL/MOL
REMARK 923 INTER-LIGAND FREE ENERGY PREDICTED BY IDOCK:   -6.20 KCAL/MOL
REMARK 924 INTRA-LIGAND FREE ENERGY PREDICTED BY IDOCK:   -0.50 KCAL/MOL
REMARK 927      BINDING AFFINITY PREDICTED BY RF-SCORE:    0.00 PKD
ROOT
HETATM    1  C   UNL     1      -7.731  12.980  67.463  1.00  0.00    -0.168 C  
HETATM    2  C   UNL     1      -9.021  12.460  68.106  1.00  0.00    -0.196 C  
ENDROOT
BRANCH   2   3
HETATM    3  C   UNL     1      -9.237  10.910  67.949  1.00  0.00    -0.152 C  
HETATM    4  C   UNL     1      -7.907  10.225  67.561  1.00  0.00    -0.102 C  
HETATM    5  C   UNL     1     -10.246  10.626  66.814  1.00  0.00    -0.284 C  
HETATM    6  C   UNL     1      -9.768  10.240  69.232  1.00  0.00    -0.240 C  
ENDBRANCH   2   3
BRANCH   2   7
HETATM    7  N   UNL     1     -10.179  13.195  67.582  1.00  0.00    -0.221 NA 
HETATM    8  H   UNL     1     -10.205  13.419  66.587  1.00  0.00     0.000 HD 
HETATM    9  C   UNL     1     -11.231  13.596  68.373  1.00  0.00    -0.276 C  
HETATM   10  N   UNL     1     -11.086  13.648  69.666  1.00  0.00    -0.457 NA 
HETATM   11  N   UNL     1     -12.414  13.773  67.711  1.00  0.00    -0.313 NA 
HETATM   12  N   UNL     1     -12.542  14.330  65.182  1.00  0.00    -0.574 NA 
HETATM   13  H   UNL     1     -13.288  13.705  68.234  1.00  0.00     0.000 HD 
HETATM   14  C   UNL     1     -12.465  14.052  66.304  1.00  0.00    -0.400 C  
HETATM   15  H   UNL     1     -10.177  13.387  70.046  1.00  0.00     0.000 HD 
BRANCH  10  16
HETATM   16  C   UNL     1     -12.085  14.036  70.584  1.00  0.00    -0.354 A  
HETATM   17  C   UNL     1     -12.683  13.008  71.307  1.00  0.00    -0.385 A  
HETATM   18  C   UNL     1     -13.640  13.317  72.259  1.00  0.00    -0.605 A  
HETATM   19  N   UNL     1     -14.036  14.576  72.536  1.00  0.00    -0.517 NA 
HETATM   20  C   UNL     1     -13.421  15.563  71.852  1.00  0.00    -0.481 A  
HETATM   21  C   UNL     1     -12.442  15.347  70.893  1.00  0.00    -0.474 A  
ENDBRANCH  10  16
ENDBRANCH   2   7
TORSDOF 3
ENDMDL
MODEL       19
REMARK 921   NORMALIZED FREE ENERGY PREDICTED BY IDOCK:   -5.27 KCAL/MOL
REMARK 922        TOTAL FREE ENERGY PREDICTED BY IDOCK:   -6.62 KCAL/MOL
REMARK 923 INTER-LIGAND FREE ENERGY PREDICTED BY IDOCK:   -6.45 KCAL/MOL
REMARK 924 INTRA-LIGAND FREE ENERGY PREDICTED BY IDOCK:   -0.16 KCAL/MOL
REMARK 927      BINDING AFFINITY PREDICTED BY RF-SCORE:    0.00 PKD
ROOT
HETATM    1  C   UNL     1      -9.568  11.670  66.295  1.00  0.00    -0.241 C  
HETATM    2  C   UNL     1     -10.538  12.787  66.691  1.00  0.00    -0.256 C  
ENDROOT
BRANCH   2   3
HETATM    3  C   UNL     1     -11.054  13.649  65.481  1.00  0.00    -0.301 C  
HETATM    4  C   UNL     1     -12.581  13.865  65.596  1.00  0.00    -0.553 C  
HETATM    5  C   UNL     1     -10.796  12.907  64.150  1.00  0.00    -0.445 C  
HETATM    6  C   UNL     1     -10.377  15.031  65.390  1.00  0.00    -0.410 C  
ENDBRANCH   2   3
BRANCH   2   7
HETATM    7  N   UNL     1      -9.927  13.649  67.711  1.00  0.00    -0.230 NA 
HETATM    8  H   UNL     1      -8.952  13.927  67.595  1.00  0.00     0.000 HD 
HETATM    9  C   UNL     1     -10.612  14.100  68.816  1.00  0.00    -0.253 C  
HETATM   10  N   UNL     1     -11.711  13.507  69.185  1.00  0.00    -0.305 NA 
HETATM   11  N   UNL     1     -10.129  15.258  69.360  1.00  0.00    -0.252 NA 
HETATM   12  N   UNL     1      -7.666  16.020  69.087  1.00  0.00    -0.223 NA 
HETATM   13  H   UNL     1     -10.754  15.842  69.915  1.00  0.00     0.000 HD 
HETATM   14  C   UNL     1      -8.768  15.677  69.173  1.00  0.00    -0.251 C  
HETATM   15  H   UNL     1     -12.023  12.712  68.627  1.00  0.00     0.000 HD 
BRANCH  10  16
HETATM   16  C   UNL     1     -12.504  13.873  70.292  1.00  0.00    -0.314 A  
HETATM   17  C   UNL     1     -12.769  12.865  71.214  1.00  0.00    -0.371 A  
HETATM   18  C   UNL     1     -13.504  13.161  72.350  1.00  0.00    -0.543 A  
HETATM   19  N   UNL     1     -13.989  14.389  72.624  1.00  0.00    -0.575 NA 
HETATM   20  C   UNL     1     -13.693  15.363  71.739  1.00  0.00    -0.511 A  
HETATM   21  C   UNL     1     -12.951  15.160  70.584  1.00  0.00    -0.420 A  
ENDBRANCH  10  16
ENDBRANCH   2   7
TORSDOF 3
ENDMDL
MODEL       20
REMARK 921   NORMALIZED FREE ENERGY PREDICTED BY IDOCK:   -5.25 KCAL/MOL
REMARK 922        TOTAL FREE ENERGY PREDICTED BY IDOCK:   -6.60 KCAL/MOL
REMARK 923 INTER-LIGAND FREE ENERGY PREDICTED BY IDOCK:   -6.09 KCAL/MOL
REMARK 924 INTRA-LIGAND FREE ENERGY PREDICTED BY IDOCK:   -0.51 KCAL/MOL
REMARK 927      BINDING AFFINITY PREDICTED BY RF-SCORE:    0.00 PKD
ROOT
HETATM    1  C   UNL     1     -11.938  12.637  67.479  1.00  0.00    -0.314 C  
HETATM    2  C   UNL     1     -11.489  13.856  66.668  1.00  0.00    -0.355 C  
ENDROOT
BRANCH   2   3
HETATM    3  C   UNL     1     -11.594  13.666  65.111  1.00  0.00    -0.333 C  
HETATM    4  C   UNL     1     -12.619  12.557  64.779  1.00  0.00    -0.493 C  
HETATM    5  C   UNL     1     -10.232  13.217  64.537  1.00  0.00    -0.333 C  
HETATM    6  C   UNL     1     -12.018  14.951  64.371  1.00  0.00    -0.408 C  
ENDBRANCH   2   3
BRANCH   2   7
HETATM    7  N   UNL     1     -10.123  14.241  67.048  1.00  0.00    -0.257 NA 
HETATM    8  H   UNL     1      -9.441  13.505  67.226  1.00  0.00     0.000 HD 
HETATM    9  C   UNL     1      -9.723  15.552  67.172  1.00  0.00    -0.222 C  
HETATM   10  N   UNL     1     -10.614  16.492  67.300  1.00  0.00    -0.310 NA 
HETATM   11  N   UNL     1      -8.383  15.763  67.004  1.00  0.00    -0.204 NA 
HETATM   12  N   UNL     1      -6.604  13.925  67.429  1.00  0.00    -0.274 NA 
HETATM   13  H   UNL     1      -8.061  16.688  66.718  1.00  0.00     0.000 HD 
HETATM   14  C   UNL     1      -7.415  14.724  67.217  1.00  0.00    -0.141 C  
HETATM   15  H   UNL     1     -11.594  16.211  67.306  1.00  0.00     0.000 HD 
BRANCH  10  16
HETATM   16  C   UNL     1     -10.335  17.869  67.432  1.00  0.00    -0.378 A  
HETATM   17  C   UNL     1     -10.457  18.631  66.273  1.00  0.00    -0.468 A  
HETATM   18  C   UNL     1     -10.243  19.997  66.335  1.00  0.00    -0.478 A  
HETATM   19  N   UNL     1      -9.918  20.650  67.468  1.00  0.00    -0.380 NA 
HETATM   20  C   UNL     1      -9.838  19.903  68.590  1.00  0.00    -0.335 A  
HETATM   21  C   UNL     1     -10.053  18.533  68.624  1.00  0.00    -0.406 A  
ENDBRANCH  10  16
ENDBRANCH   2   7
TORSDOF 3
ENDMDL
MODEL       21
REMARK 921   NORMALIZED FREE ENERGY PREDICTED BY IDOCK:   -5.25 KCAL/MOL
REMARK 922        TOTAL FREE ENERGY PREDICTED BY IDOCK:   -6.60 KCAL/MOL
REMARK 923 INTER-LIGAND FREE ENERGY PREDICTED BY IDOCK:   -6.44 KCAL/MOL
REMARK 924 INTRA-LIGAND FREE ENERGY PREDICTED BY IDOCK:   -0.16 KCAL/MOL
REMARK 927      BINDING AFFINITY PREDICTED BY RF-SCORE:    0.00 PKD
ROOT
HETATM    1  C   UNL     1     -11.319  11.084  67.660  1.00  0.00    -0.355 C  
HETATM    2  C   UNL     1     -10.798  10.742  69.059  1.00  0.00    -0.235 C  
ENDROOT
BRANCH   2   3
HETATM    3  C   UNL     1      -9.795   9.532  69.093  1.00  0.00    -0.176 C  
HETATM    4  C   UNL     1      -9.460   9.162  70.556  1.00  0.00    -0.291 C  
HETATM    5  C   UNL     1      -8.468   9.921  68.404  1.00  0.00    -0.111 C  
HETATM    6  C   UNL     1     -10.341   8.273  68.391  1.00  0.00    -0.237 C  
ENDBRANCH   2   3
BRANCH   2   7
HETATM    7  N   UNL     1     -11.923  10.502  69.972  1.00  0.00    -0.352 NA 
HETATM    8  H   UNL     1     -12.361   9.581  69.975  1.00  0.00     0.000 HD 
HETATM    9  C   UNL     1     -12.412  11.464  70.825  1.00  0.00    -0.365 C  
HETATM   10  N   UNL     1     -12.134  12.719  70.616  1.00  0.00    -0.509 NA 
HETATM   11  N   UNL     1     -13.053  10.981  71.932  1.00  0.00    -0.483 NA 
HETATM   12  N   UNL     1     -14.172   8.643  72.001  1.00  0.00    -0.444 NA 
HETATM   13  H   UNL     1     -13.115  11.568  72.764  1.00  0.00     0.000 HD 
HETATM   14  C   UNL     1     -13.641   9.671  71.960  1.00  0.00    -0.385 C  
HETATM   15  H   UNL     1     -11.553  12.940  69.807  1.00  0.00     0.000 HD 
BRANCH  10  16
HETATM   16  C   UNL     1     -12.568  13.796  71.416  1.00  0.00    -0.348 A  
HETATM   17  C   UNL     1     -11.591  14.717  71.784  1.00  0.00    -0.244 A  
HETATM   18  C   UNL     1     -11.953  15.826  72.531  1.00  0.00    -0.495 A  
HETATM   19  N   UNL     1     -13.215  16.074  72.932  1.00  0.00    -0.496 NA 
HETATM   20  C   UNL     1     -14.156  15.191  72.538  1.00  0.00    -0.439 A  
HETATM   21  C   UNL     1     -13.888  14.063  71.775  1.00  0.00    -0.476 A  
ENDBRANCH  10  16
ENDBRANCH   2   7
TORSDOF 3
ENDMDL
MODEL       22
REMARK 921   NORMALIZED FREE ENERGY PREDICTED BY IDOCK:   -5.23 KCAL/MOL
REMARK 922        TOTAL FREE ENERGY PREDICTED BY IDOCK:   -6.57 KCAL/MOL
REMARK 923 INTER-LIGAND FREE ENERGY PREDICTED BY IDOCK:   -6.36 KCAL/MOL
REMARK 924 INTRA-LIGAND FREE ENERGY PREDICTED BY IDOCK:   -0.22 KCAL/MOL
REMARK 927      BINDING AFFINITY PREDICTED BY RF-SCORE:    0.00 PKD
ROOT
HETATM    1  C   UNL     1     -10.170  11.050  66.029  1.00  0.00    -0.305 C  
HETATM    2  C   UNL     1     -11.382  11.906  66.405  1.00  0.00    -0.339 C  
ENDROOT
BRANCH   2   3
HETATM    3  C   UNL     1     -11.828  12.917  65.286  1.00  0.00    -0.429 C  
HETATM    4  C   UNL     1     -10.616  13.749  64.809  1.00  0.00    -0.444 C  
HETATM    5  C   UNL     1     -12.871  13.908  65.849  1.00  0.00    -0.387 C  
HETATM    6  C   UNL     1     -12.450  12.223  64.058  1.00  0.00    -0.556 C  
ENDBRANCH   2   3
BRANCH   2   7
HETATM    7  N   UNL     1     -11.128  12.617  67.666  1.00  0.00    -0.250 NA 
HETATM    8  H   UNL     1     -10.682  13.533  67.627  1.00  0.00     0.000 HD 
HETATM    9  C   UNL     1     -11.464  12.101  68.896  1.00  0.00    -0.297 C  
HETATM   10  N   UNL     1     -11.700  10.826  69.022  1.00  0.00    -0.418 NA 
HETATM   11  N   UNL     1     -11.661  13.032  69.877  1.00  0.00    -0.507 NA 
HETATM   12  N   UNL     1     -10.566  15.382  69.826  1.00  0.00    -0.276 NA 
HETATM   13  H   UNL     1     -12.247  12.792  70.676  1.00  0.00     0.000 HD 
HETATM   14  C   UNL     1     -11.069  14.339  69.816  1.00  0.00    -0.128 C  
HETATM   15  H   UNL     1     -11.621  10.251  68.184  1.00  0.00     0.000 HD 
BRANCH  10  16
HETATM   16  C   UNL     1     -12.056  10.177  70.223  1.00  0.00    -0.204 A  
HETATM   17  C   UNL     1     -11.049   9.444  70.843  1.00  0.00    -0.389 A  
HETATM   18  C   UNL     1     -11.312   8.816  72.049  1.00  0.00    -0.371 A  
HETATM   19  N   UNL     1     -12.506   8.872  72.672  1.00  0.00    -0.275 NA 
HETATM   20  C   UNL     1     -13.462   9.615  72.076  1.00  0.00    -0.428 A  
HETATM   21  C   UNL     1     -13.281  10.290  70.877  1.00  0.00    -0.351 A  
ENDBRANCH  10  16
ENDBRANCH   2   7
TORSDOF 3
ENDMDL
MODEL       23
REMARK 921   NORMALIZED FREE ENERGY PREDICTED BY IDOCK:   -5.16 KCAL/MOL
REMARK 922        TOTAL FREE ENERGY PREDICTED BY IDOCK:   -6.49 KCAL/MOL
REMARK 923 INTER-LIGAND FREE ENERGY PREDICTED BY IDOCK:   -6.42 KCAL/MOL
REMARK 924 INTRA-LIGAND FREE ENERGY PREDICTED BY IDOCK:   -0.07 KCAL/MOL
REMARK 927      BINDING AFFINITY PREDICTED BY RF-SCORE:    0.00 PKD
ROOT
HETATM    1  C   UNL     1     -10.065  11.192  65.962  1.00  0.00    -0.292 C  
HETATM    2  C   UNL     1     -11.353  11.960  66.269  1.00  0.00    -0.334 C  
ENDROOT
BRANCH   2   3
HETATM    3  C   UNL     1     -11.835  12.899  65.103  1.00  0.00    -0.415 C  
HETATM    4  C   UNL     1     -10.636  13.685  64.525  1.00  0.00    -0.428 C  
HETATM    5  C   UNL     1     -12.846  13.937  65.639  1.00  0.00    -0.467 C  
HETATM    6  C   UNL     1     -12.511  12.133  63.949  1.00  0.00    -0.581 C  
ENDBRANCH   2   3
BRANCH   2   7
HETATM    7  N   UNL     1     -11.202  12.725  67.514  1.00  0.00    -0.273 NA 
HETATM    8  H   UNL     1     -10.898  13.697  67.456  1.00  0.00     0.000 HD 
HETATM    9  C   UNL     1     -11.452  12.188  68.756  1.00  0.00    -0.307 C  
HETATM   10  N   UNL     1     -11.494  10.896  68.908  1.00  0.00    -0.276 NA 
HETATM   11  N   UNL     1     -11.781  13.099  69.721  1.00  0.00    -0.421 NA 
HETATM   12  N   UNL     1     -11.050  15.584  69.619  1.00  0.00    -0.255 NA 
HETATM   13  H   UNL     1     -12.321  12.789  70.530  1.00  0.00     0.000 HD 
HETATM   14  C   UNL     1     -11.391  14.478  69.632  1.00  0.00    -0.273 C  
HETATM   15  H   UNL     1     -11.334  10.322  68.080  1.00  0.00     0.000 HD 
BRANCH  10  16
HETATM   16  C   UNL     1     -11.745  10.224  70.122  1.00  0.00    -0.284 A  
HETATM   17  C   UNL     1     -13.058  10.261  70.583  1.00  0.00    -0.292 A  
HETATM   18  C   UNL     1     -13.388   9.586  71.745  1.00  0.00    -0.422 A  
HETATM   19  N   UNL     1     -12.501   8.880  72.474  1.00  0.00    -0.330 NA 
HETATM   20  C   UNL     1     -11.240   8.823  71.996  1.00  0.00    -0.373 A  
HETATM   21  C   UNL     1     -10.824   9.455  70.833  1.00  0.00    -0.392 A  
ENDBRANCH  10  16
ENDBRANCH   2   7
TORSDOF 3
ENDMDL
MODEL       24
REMARK 921   NORMALIZED FREE ENERGY PREDICTED BY IDOCK:   -5.14 KCAL/MOL
REMARK 922        TOTAL FREE ENERGY PREDICTED BY IDOCK:   -6.48 KCAL/MOL
REMARK 923 INTER-LIGAND FREE ENERGY PREDICTED BY IDOCK:   -6.33 KCAL/MOL
REMARK 924 INTRA-LIGAND FREE ENERGY PREDICTED BY IDOCK:   -0.15 KCAL/MOL
REMARK 927      BINDING AFFINITY PREDICTED BY RF-SCORE:    0.00 PKD
ROOT
HETATM    1  C   UNL     1     -11.626  16.280  68.614  1.00  0.00    -0.216 C  
HETATM    2  C   UNL     1     -10.726  15.481  67.668  1.00  0.00    -0.302 C  
ENDROOT
BRANCH   2   3
HETATM    3  C   UNL     1      -9.972  16.359  66.603  1.00  0.00    -0.281 C  
HETATM    4  C   UNL     1     -10.087  17.856  66.972  1.00  0.00    -0.340 C  
HETATM    5  C   UNL     1     -10.618  16.180  65.211  1.00  0.00    -0.390 C  
HETATM    6  C   UNL     1      -8.476  16.007  66.478  1.00  0.00    -0.348 C  
ENDBRANCH   2   3
BRANCH   2   7
HETATM    7  N   UNL     1     -11.501  14.424  67.004  1.00  0.00    -0.346 NA 
HETATM    8  H   UNL     1     -11.988  14.648  66.136  1.00  0.00     0.000 HD 
HETATM    9  C   UNL     1     -11.600  13.145  67.502  1.00  0.00    -0.352 C  
HETATM   10  N   UNL     1     -11.304  12.909  68.748  1.00  0.00    -0.271 NA 
HETATM   11  N   UNL     1     -11.876  12.184  66.569  1.00  0.00    -0.615 NA 
HETATM   12  N   UNL     1     -13.097  12.696  64.340  1.00  0.00    -0.747 NA 
HETATM   13  H   UNL     1     -11.611  11.218  66.762  1.00  0.00     0.000 HD 
HETATM   14  C   UNL     1     -12.528  12.493  65.327  1.00  0.00    -0.319 C  
HETATM   15  H   UNL     1     -11.008  13.702  69.316  1.00  0.00     0.000 HD 
BRANCH  10  16
HETATM   16  C   UNL     1     -11.360  11.647  69.376  1.00  0.00    -0.278 A  
HETATM   17  C   UNL     1     -12.318  11.504  70.376  1.00  0.00    -0.390 A  
HETATM   18  C   UNL     1     -12.462  10.279  71.005  1.00  0.00    -0.384 A  
HETATM   19  N   UNL     1     -11.719   9.195  70.705  1.00  0.00    -0.277 NA 
HETATM   20  C   UNL     1     -10.819   9.340  69.710  1.00  0.00    -0.224 A  
HETATM   21  C   UNL     1     -10.619  10.524  69.014  1.00  0.00    -0.250 A  
ENDBRANCH  10  16
ENDBRANCH   2   7
TORSDOF 3
ENDMDL
MODEL       25
REMARK 921   NORMALIZED FREE ENERGY PREDICTED BY IDOCK:   -5.13 KCAL/MOL
REMARK 922        TOTAL FREE ENERGY PREDICTED BY IDOCK:   -6.46 KCAL/MOL
REMARK 923 INTER-LIGAND FREE ENERGY PREDICTED BY IDOCK:   -6.17 KCAL/MOL
REMARK 924 INTRA-LIGAND FREE ENERGY PREDICTED BY IDOCK:   -0.29 KCAL/MOL
REMARK 927      BINDING AFFINITY PREDICTED BY RF-SCORE:    0.00 PKD
ROOT
HETATM    1  C   UNL     1     -12.101  15.702  70.104  1.00  0.00    -0.400 C  
HETATM    2  C   UNL     1     -10.981  14.939  69.390  1.00  0.00    -0.271 C  
ENDROOT
BRANCH   2   3
HETATM    3  C   UNL     1      -9.936  15.863  68.662  1.00  0.00    -0.214 C  
HETATM    4  C   UNL     1      -9.845  15.483  67.166  1.00  0.00    -0.236 C  
HETATM    5  C   UNL     1      -8.532  15.661  69.273  1.00  0.00    -0.265 C  
HETATM    6  C   UNL     1     -10.284  17.361  68.758  1.00  0.00    -0.361 C  
ENDBRANCH   2   3
BRANCH   2   7
HETATM    7  N   UNL     1     -11.552  13.968  68.447  1.00  0.00    -0.309 NA 
HETATM    8  H   UNL     1     -11.843  14.296  67.526  1.00  0.00     0.000 HD 
HETATM    9  C   UNL     1     -11.711  12.635  68.751  1.00  0.00    -0.323 C  
HETATM   10  N   UNL     1     -11.688  12.246  69.993  1.00  0.00    -0.503 NA 
HETATM   11  N   UNL     1     -11.739  11.798  67.671  1.00  0.00    -0.553 NA 
HETATM   12  N   UNL     1     -12.457  12.578  65.304  1.00  0.00    -0.647 NA 
HETATM   13  H   UNL     1     -11.487  10.818  67.798  1.00  0.00     0.000 HD 
HETATM   14  C   UNL     1     -12.112  12.256  66.362  1.00  0.00    -0.043 C  
HETATM   15  H   UNL     1     -11.553  12.963  70.706  1.00  0.00     0.000 HD 
BRANCH  10  16
HETATM   16  C   UNL     1     -11.834  10.914  70.435  1.00  0.00    -0.357 A  
HETATM   17  C   UNL     1     -10.706  10.106  70.323  1.00  0.00    -0.352 A  
HETATM   18  C   UNL     1     -10.761   8.799  70.778  1.00  0.00    -0.228 A  
HETATM   19  N   UNL     1     -11.860   8.250  71.333  1.00  0.00    -0.286 NA 
HETATM   20  C   UNL     1     -12.933   9.056  71.466  1.00  0.00    -0.337 A  
HETATM   21  C   UNL     1     -12.963  10.381  71.054  1.00  0.00    -0.490 A  
ENDBRANCH  10  16
ENDBRANCH   2   7
TORSDOF 3
ENDMDL
MODEL       26
REMARK 921   NORMALIZED FREE ENERGY PREDICTED BY IDOCK:   -5.12 KCAL/MOL
REMARK 922        TOTAL FREE ENERGY PREDICTED BY IDOCK:   -6.45 KCAL/MOL
REMARK 923 INTER-LIGAND FREE ENERGY PREDICTED BY IDOCK:   -6.56 KCAL/MOL
REMARK 924 INTRA-LIGAND FREE ENERGY PREDICTED BY IDOCK:    0.11 KCAL/MOL
REMARK 927      BINDING AFFINITY PREDICTED BY RF-SCORE:    0.00 PKD
ROOT
HETATM    1  C   UNL     1     -13.786  12.800  72.288  1.00  0.00    -0.495 C  
HETATM    2  C   UNL     1     -12.554  13.300  71.526  1.00  0.00    -0.214 C  
ENDROOT
BRANCH   2   3
HETATM    3  C   UNL     1     -12.575  14.840  71.210  1.00  0.00    -0.403 C  
HETATM    4  C   UNL     1     -11.571  15.582  72.121  1.00  0.00    -0.552 C  
HETATM    5  C   UNL     1     -13.976  15.424  71.500  1.00  0.00    -0.601 C  
HETATM    6  C   UNL     1     -12.224  15.162  69.744  1.00  0.00    -0.325 C  
ENDBRANCH   2   3
BRANCH   2   7
HETATM    7  N   UNL     1     -12.375  12.525  70.291  1.00  0.00    -0.241 NA 
HETATM    8  H   UNL     1     -12.519  12.993  69.397  1.00  0.00     0.000 HD 
HETATM    9  C   UNL     1     -12.020  11.195  70.288  1.00  0.00    -0.373 C  
HETATM   10  N   UNL     1     -12.168  10.482  71.367  1.00  0.00    -0.350 NA 
HETATM   11  N   UNL     1     -11.394  10.770  69.149  1.00  0.00    -0.260 NA 
HETATM   12  N   UNL     1     -11.711  11.928  66.851  1.00  0.00    -0.589 NA 
HETATM   13  H   UNL     1     -10.790   9.949  69.195  1.00  0.00     0.000 HD 
HETATM   14  C   UNL     1     -11.560  11.442  67.892  1.00  0.00    -0.266 C  
HETATM   15  H   UNL     1     -12.552  10.949  72.188  1.00  0.00     0.000 HD 
BRANCH  10  16
HETATM   16  C   UNL     1     -11.840   9.116  71.494  1.00  0.00    -0.358 A  
HETATM   17  C   UNL     1     -10.506   8.831  71.774  1.00  0.00    -0.417 A  
HETATM   18  C   UNL     1     -10.118   7.514  71.957  1.00  0.00    -0.187 A  
HETATM   19  N   UNL     1     -10.968   6.470  71.879  1.00  0.00    -0.240 NA 
HETATM   20  C   UNL     1     -12.263   6.765  71.642  1.00  0.00    -0.365 A  
HETATM   21  C   UNL     1     -12.742   8.055  71.462  1.00  0.00    -0.325 A  
ENDBRANCH  10  16
ENDBRANCH   2   7
TORSDOF 3
ENDMDL
MODEL       27
REMARK 921   NORMALIZED FREE ENERGY PREDICTED BY IDOCK:   -5.07 KCAL/MOL
REMARK 922        TOTAL FREE ENERGY PREDICTED BY IDOCK:   -6.39 KCAL/MOL
REMARK 923 INTER-LIGAND FREE ENERGY PREDICTED BY IDOCK:   -6.00 KCAL/MOL
REMARK 924 INTRA-LIGAND FREE ENERGY PREDICTED BY IDOCK:   -0.39 KCAL/MOL
REMARK 927      BINDING AFFINITY PREDICTED BY RF-SCORE:    0.00 PKD
ROOT
HETATM    1  C   UNL     1      -8.008  11.921  67.771  1.00  0.00    -0.144 C  
HETATM    2  C   UNL     1      -9.358  11.790  68.483  1.00  0.00    -0.156 C  
ENDROOT
BRANCH   2   3
HETATM    3  C   UNL     1      -9.936  10.327  68.500  1.00  0.00    -0.177 C  
HETATM    4  C   UNL     1     -11.018  10.172  67.406  1.00  0.00    -0.295 C  
HETATM    5  C   UNL     1     -10.614  10.038  69.858  1.00  0.00    -0.324 C  
HETATM    6  C   UNL     1      -8.860   9.248  68.269  1.00  0.00    -0.129 C  
ENDBRANCH   2   3
BRANCH   2   7
HETATM    7  N   UNL     1     -10.332  12.720  67.897  1.00  0.00    -0.220 NA 
HETATM    8  H   UNL     1     -10.349  12.832  66.883  1.00  0.00     0.000 HD 
HETATM    9  C   UNL     1     -11.222  13.446  68.654  1.00  0.00    -0.269 C  
HETATM   10  N   UNL     1     -11.010  13.604  69.929  1.00  0.00    -0.437 NA 
HETATM   11  N   UNL     1     -12.358  13.828  67.998  1.00  0.00    -0.392 NA 
HETATM   12  N   UNL     1     -12.466  14.118  65.423  1.00  0.00    -0.471 NA 
HETATM   13  H   UNL     1     -13.198  14.030  68.540  1.00  0.00     0.000 HD 
HETATM   14  C   UNL     1     -12.406  13.955  66.568  1.00  0.00    -0.404 C  
HETATM   15  H   UNL     1     -10.172  13.175  70.321  1.00  0.00     0.000 HD 
BRANCH  10  16
HETATM   16  C   UNL     1     -11.845  14.319  70.813  1.00  0.00    -0.269 A  
HETATM   17  C   UNL     1     -12.955  13.631  71.296  1.00  0.00    -0.399 A  
HETATM   18  C   UNL     1     -13.796  14.254  72.204  1.00  0.00    -0.494 A  
HETATM   19  N   UNL     1     -13.603  15.509  72.657  1.00  0.00    -0.522 NA 
HETATM   20  C   UNL     1     -12.505  16.149  72.207  1.00  0.00    -0.414 A  
HETATM   21  C   UNL     1     -11.600  15.597  71.311  1.00  0.00    -0.485 A  
ENDBRANCH  10  16
ENDBRANCH   2   7
TORSDOF 3
ENDMDL
MODEL       28
REMARK 921   NORMALIZED FREE ENERGY PREDICTED BY IDOCK:   -5.06 KCAL/MOL
REMARK 922        TOTAL FREE ENERGY PREDICTED BY IDOCK:   -6.38 KCAL/MOL
REMARK 923 INTER-LIGAND FREE ENERGY PREDICTED BY IDOCK:   -5.88 KCAL/MOL
REMARK 924 INTRA-LIGAND FREE ENERGY PREDICTED BY IDOCK:   -0.50 KCAL/MOL
REMARK 927      BINDING AFFINITY PREDICTED BY RF-SCORE:    0.00 PKD
ROOT
HETATM    1  C   UNL     1     -10.421  11.134  64.315  1.00  0.00    -0.427 C  
HETATM    2  C   UNL     1     -11.022  12.008  65.419  1.00  0.00    -0.300 C  
ENDROOT
BRANCH   2   3
HETATM    3  C   UNL     1     -11.672  13.343  64.900  1.00  0.00    -0.379 C  
HETATM    4  C   UNL     1     -12.102  13.184  63.424  1.00  0.00    -0.558 C  
HETATM    5  C   UNL     1     -10.642  14.493  64.955  1.00  0.00    -0.458 C  
HETATM    6  C   UNL     1     -12.905  13.774  65.718  1.00  0.00    -0.430 C  
ENDBRANCH   2   3
BRANCH   2   7
HETATM    7  N   UNL     1     -10.010  12.296  66.444  1.00  0.00    -0.223 NA 
HETATM    8  H   UNL     1      -9.184  12.833  66.178  1.00  0.00     0.000 HD 
HETATM    9  C   UNL     1     -10.125  11.873  67.748  1.00  0.00    -0.191 C  
HETATM   10  N   UNL     1     -10.953  10.914  68.048  1.00  0.00    -0.242 NA 
HETATM   11  N   UNL     1      -9.435  12.623  68.660  1.00  0.00    -0.404 NA 
HETATM   12  N   UNL     1      -7.340  14.018  68.038  1.00  0.00    -0.123 NA 
HETATM   13  H   UNL     1      -9.741  12.622  69.633  1.00  0.00     0.000 HD 
HETATM   14  C   UNL     1      -8.294  13.412  68.290  1.00  0.00    -0.160 C  
HETATM   15  H   UNL     1     -11.491  10.505  67.285  1.00  0.00     0.000 HD 
BRANCH  10  16
HETATM   16  C   UNL     1     -11.167  10.394  69.342  1.00  0.00    -0.259 A  
HETATM   17  C   UNL     1     -12.311  10.838  69.998  1.00  0.00    -0.371 A  
HETATM   18  C   UNL     1     -12.611  10.337  71.254  1.00  0.00    -0.418 A  
HETATM   19  N   UNL     1     -11.848   9.428  71.894  1.00  0.00    -0.368 NA 
HETATM   20  C   UNL     1     -10.762   8.981  71.230  1.00  0.00    -0.309 A  
HETATM   21  C   UNL     1     -10.395   9.415  69.964  1.00  0.00    -0.265 A  
ENDBRANCH  10  16
ENDBRANCH   2   7
TORSDOF 3
ENDMDL
MODEL       29
REMARK 921   NORMALIZED FREE ENERGY PREDICTED BY IDOCK:   -5.06 KCAL/MOL
REMARK 922        TOTAL FREE ENERGY PREDICTED BY IDOCK:   -6.38 KCAL/MOL
REMARK 923 INTER-LIGAND FREE ENERGY PREDICTED BY IDOCK:   -6.28 KCAL/MOL
REMARK 924 INTRA-LIGAND FREE ENERGY PREDICTED BY IDOCK:   -0.09 KCAL/MOL
REMARK 927      BINDING AFFINITY PREDICTED BY RF-SCORE:    0.00 PKD
ROOT
HETATM    1  C   UNL     1     -10.223  19.685  68.285  1.00  0.00    -0.567 C  
HETATM    2  C   UNL     1      -9.647  18.269  68.201  1.00  0.00    -0.304 C  
ENDROOT
BRANCH   2   3
HETATM    3  C   UNL     1      -8.102  18.220  67.907  1.00  0.00    -0.260 C  
HETATM    4  C   UNL     1      -7.461  19.594  68.208  1.00  0.00    -0.349 C  
HETATM    5  C   UNL     1      -7.854  17.917  66.413  1.00  0.00    -0.307 C  
HETATM    6  C   UNL     1      -7.362  17.151  68.736  1.00  0.00    -0.241 C  
ENDBRANCH   2   3
BRANCH   2   7
HETATM    7  N   UNL     1     -10.384  17.481  67.205  1.00  0.00    -0.329 NA 
HETATM    8  H   UNL     1     -10.677  17.938  66.341  1.00  0.00     0.000 HD 
HETATM    9  C   UNL     1     -10.695  16.153  67.384  1.00  0.00    -0.291 C  
HETATM   10  N   UNL     1     -10.660  15.633  68.577  1.00  0.00    -0.248 NA 
HETATM   11  N   UNL     1     -10.885  15.445  66.229  1.00  0.00    -0.313 NA 
HETATM   12  N   UNL     1     -11.617  16.555  64.003  1.00  0.00    -1.124 NA 
HETATM   13  H   UNL     1     -10.754  14.434  66.242  1.00  0.00     0.000 HD 
HETATM   14  C   UNL     1     -11.263  16.082  64.999  1.00  0.00    -0.261 C  
HETATM   15  H   UNL     1     -10.398  16.249  69.347  1.00  0.00     0.000 HD 
BRANCH  10  16
HETATM   16  C   UNL     1     -10.952  14.290  68.892  1.00  0.00    -0.257 A  
HETATM   17  C   UNL     1     -10.160  13.330  68.268  1.00  0.00    -0.250 A  
HETATM   18  C   UNL     1     -10.359  11.991  68.563  1.00  0.00    -0.217 A  
HETATM   19  N   UNL     1     -11.289  11.551  69.434  1.00  0.00    -0.271 NA 
HETATM   20  C   UNL     1     -12.024  12.495  70.056  1.00  0.00    -0.299 A  
HETATM   21  C   UNL     1     -11.883  13.858  69.835  1.00  0.00    -0.394 A  
ENDBRANCH  10  16
ENDBRANCH   2   7
TORSDOF 3
ENDMDL
MODEL       30
REMARK 921   NORMALIZED FREE ENERGY PREDICTED BY IDOCK:   -4.98 KCAL/MOL
REMARK 922        TOTAL FREE ENERGY PREDICTED BY IDOCK:   -6.28 KCAL/MOL
REMARK 923 INTER-LIGAND FREE ENERGY PREDICTED BY IDOCK:   -5.83 KCAL/MOL
REMARK 924 INTRA-LIGAND FREE ENERGY PREDICTED BY IDOCK:   -0.45 KCAL/MOL
REMARK 927      BINDING AFFINITY PREDICTED BY RF-SCORE:    0.00 PKD
ROOT
HETATM    1  C   UNL     1     -12.150  13.577  70.175  1.00  0.00    -0.425 C  
HETATM    2  C   UNL     1     -11.321  13.777  68.904  1.00  0.00    -0.288 C  
ENDROOT
BRANCH   2   3
HETATM    3  C   UNL     1     -11.067  12.456  68.088  1.00  0.00    -0.288 C  
HETATM    4  C   UNL     1      -9.550  12.168  68.005  1.00  0.00    -0.204 C  
HETATM    5  C   UNL     1     -11.581  12.618  66.640  1.00  0.00    -0.443 C  
HETATM    6  C   UNL     1     -11.759  11.223  68.701  1.00  0.00    -0.391 C  
ENDBRANCH   2   3
BRANCH   2   7
HETATM    7  N   UNL     1     -10.047  14.432  69.229  1.00  0.00    -0.421 NA 
HETATM    8  H   UNL     1      -9.371  13.927  69.802  1.00  0.00     0.000 HD 
HETATM    9  C   UNL     1      -9.724  15.697  68.794  1.00  0.00    -0.212 C  
HETATM   10  N   UNL     1     -10.662  16.497  68.375  1.00  0.00    -0.322 NA 
HETATM   11  N   UNL     1      -8.384  15.953  68.711  1.00  0.00    -0.191 NA 
HETATM   12  N   UNL     1      -6.620  14.692  70.132  1.00  0.00    -0.172 NA 
HETATM   13  H   UNL     1      -8.059  16.684  68.079  1.00  0.00     0.000 HD 
HETATM   14  C   UNL     1      -7.420  15.223  69.486  1.00  0.00    -0.214 C  
HETATM   15  H   UNL     1     -11.619  16.145  68.389  1.00  0.00     0.000 HD 
BRANCH  10  16
HETATM   16  C   UNL     1     -10.463  17.811  67.901  1.00  0.00    -0.397 A  
HETATM   17  C   UNL     1     -10.605  17.994  66.529  1.00  0.00    -0.263 A  
HETATM   18  C   UNL     1     -10.469  19.266  65.997  1.00  0.00    -0.487 A  
HETATM   19  N   UNL     1     -10.201  20.358  66.740  1.00  0.00    -0.356 NA 
HETATM   20  C   UNL     1     -10.101  20.170  68.072  1.00  0.00    -0.379 A  
HETATM   21  C   UNL     1     -10.239  18.936  68.692  1.00  0.00    -0.371 A  
ENDBRANCH  10  16
ENDBRANCH   2   7
TORSDOF 3
ENDMDL
MODEL       31
REMARK 921   NORMALIZED FREE ENERGY PREDICTED BY IDOCK:   -4.98 KCAL/MOL
REMARK 922        TOTAL FREE ENERGY PREDICTED BY IDOCK:   -6.28 KCAL/MOL
REMARK 923 INTER-LIGAND FREE ENERGY PREDICTED BY IDOCK:   -6.00 KCAL/MOL
REMARK 924 INTRA-LIGAND FREE ENERGY PREDICTED BY IDOCK:   -0.27 KCAL/MOL
REMARK 927      BINDING AFFINITY PREDICTED BY RF-SCORE:    0.00 PKD
ROOT
HETATM    1  C   UNL     1      -6.522  18.948  65.425  1.00  0.00    -0.309 C  
HETATM    2  C   UNL     1      -7.603  18.394  66.358  1.00  0.00    -0.252 C  
ENDROOT
BRANCH   2   3
HETATM    3  C   UNL     1      -7.687  19.124  67.749  1.00  0.00    -0.292 C  
HETATM    4  C   UNL     1      -7.062  20.535  67.646  1.00  0.00    -0.363 C  
HETATM    5  C   UNL     1      -6.882  18.342  68.810  1.00  0.00    -0.283 C  
HETATM    6  C   UNL     1      -9.131  19.275  68.267  1.00  0.00    -0.394 C  
ENDBRANCH   2   3
BRANCH   2   7
HETATM    7  N   UNL     1      -7.417  16.950  66.548  1.00  0.00    -0.265 NA 
HETATM    8  H   UNL     1      -6.478  16.600  66.740  1.00  0.00     0.000 HD 
HETATM    9  C   UNL     1      -8.453  16.047  66.478  1.00  0.00    -0.313 C  
HETATM   10  N   UNL     1      -9.570  16.385  65.903  1.00  0.00    -0.455 NA 
HETATM   11  N   UNL     1      -8.250  14.884  67.169  1.00  0.00    -0.208 NA 
HETATM   12  N   UNL     1      -5.889  13.955  67.698  1.00  0.00    -0.328 NA 
HETATM   13  H   UNL     1      -9.060  14.344  67.474  1.00  0.00     0.000 HD 
HETATM   14  C   UNL     1      -6.934  14.401  67.477  1.00  0.00    -0.159 C  
HETATM   15  H   UNL     1      -9.631  17.327  65.516  1.00  0.00     0.000 HD 
BRANCH  10  16
HETATM   16  C   UNL     1     -10.704  15.557  65.770  1.00  0.00    -0.353 A  
HETATM   17  C   UNL     1     -11.085  15.245  64.468  1.00  0.00    -0.260 A  
HETATM   18  C   UNL     1     -12.162  14.399  64.260  1.00  0.00    -0.423 A  
HETATM   19  N   UNL     1     -12.879  13.848  65.260  1.00  0.00    -0.749 NA 
HETATM   20  C   UNL     1     -12.476  14.131  66.516  1.00  0.00    -0.270 A  
HETATM   21  C   UNL     1     -11.400  14.954  66.817  1.00  0.00    -0.328 A  
ENDBRANCH  10  16
ENDBRANCH   2   7
TORSDOF 3
ENDMDL
MODEL       32
REMARK 921   NORMALIZED FREE ENERGY PREDICTED BY IDOCK:   -4.92 KCAL/MOL
REMARK 922        TOTAL FREE ENERGY PREDICTED BY IDOCK:   -6.21 KCAL/MOL
REMARK 923 INTER-LIGAND FREE ENERGY PREDICTED BY IDOCK:   -5.95 KCAL/MOL
REMARK 924 INTRA-LIGAND FREE ENERGY PREDICTED BY IDOCK:   -0.26 KCAL/MOL
REMARK 927      BINDING AFFINITY PREDICTED BY RF-SCORE:    0.00 PKD
ROOT
HETATM    1  C   UNL     1      -8.349  11.557  67.381  1.00  0.00    -0.148 C  
HETATM    2  C   UNL     1      -9.755  11.850  67.912  1.00  0.00    -0.192 C  
ENDROOT
BRANCH   2   3
HETATM    3  C   UNL     1     -10.460  10.614  68.583  1.00  0.00    -0.211 C  
HETATM    4  C   UNL     1     -11.899  10.990  69.005  1.00  0.00    -0.399 C  
HETATM    5  C   UNL     1      -9.701  10.199  69.863  1.00  0.00    -0.195 C  
HETATM    6  C   UNL     1     -10.534   9.384  67.657  1.00  0.00    -0.328 C  
ENDBRANCH   2   3
BRANCH   2   7
HETATM    7  N   UNL     1     -10.596  12.401  66.841  1.00  0.00    -0.227 NA 
HETATM    8  H   UNL     1     -11.026  11.755  66.178  1.00  0.00     0.000 HD 
HETATM    9  C   UNL     1     -10.829  13.749  66.691  1.00  0.00    -0.288 C  
HETATM   10  N   UNL     1     -10.044  14.611  67.271  1.00  0.00    -0.236 NA 
HETATM   11  N   UNL     1     -11.987  14.063  66.037  1.00  0.00    -0.396 NA 
HETATM   12  N   UNL     1     -13.134  12.458  64.354  1.00  0.00    -0.811 NA 
HETATM   13  H   UNL     1     -12.414  14.976  66.198  1.00  0.00     0.000 HD 
HETATM   14  C   UNL     1     -12.623  13.149  65.130  1.00  0.00    -0.465 C  
HETATM   15  H   UNL     1      -9.270  14.241  67.822  1.00  0.00     0.000 HD 
BRANCH  10  16
HETATM   16  C   UNL     1     -10.177  16.013  67.199  1.00  0.00    -0.278 A  
HETATM   17  C   UNL     1     -10.313  16.677  68.415  1.00  0.00    -0.299 A  
HETATM   18  C   UNL     1     -10.403  18.059  68.426  1.00  0.00    -0.368 A  
HETATM   19  N   UNL     1     -10.367  18.817  67.312  1.00  0.00    -0.392 NA 
HETATM   20  C   UNL     1     -10.200  18.161  66.145  1.00  0.00    -0.367 A  
HETATM   21  C   UNL     1     -10.084  16.782  66.041  1.00  0.00    -0.350 A  
ENDBRANCH  10  16
ENDBRANCH   2   7
TORSDOF 3
ENDMDL
MODEL       33
REMARK 921   NORMALIZED FREE ENERGY PREDICTED BY IDOCK:   -4.88 KCAL/MOL
REMARK 922        TOTAL FREE ENERGY PREDICTED BY IDOCK:   -6.16 KCAL/MOL
REMARK 923 INTER-LIGAND FREE ENERGY PREDICTED BY IDOCK:   -5.67 KCAL/MOL
REMARK 924 INTRA-LIGAND FREE ENERGY PREDICTED BY IDOCK:   -0.49 KCAL/MOL
REMARK 927      BINDING AFFINITY PREDICTED BY RF-SCORE:    0.00 PKD
ROOT
HETATM    1  C   UNL     1      -8.755   8.501  71.820  1.00  0.00    -0.266 C  
HETATM    2  C   UNL     1     -10.090   8.969  71.235  1.00  0.00    -0.314 C  
ENDROOT
BRANCH   2   3
HETATM    3  C   UNL     1     -11.345   8.225  71.824  1.00  0.00    -0.350 C  
HETATM    4  C   UNL     1     -12.492   9.233  72.069  1.00  0.00    -0.451 C  
HETATM    5  C   UNL     1     -10.996   7.589  73.188  1.00  0.00    -0.420 C  
HETATM    6  C   UNL     1     -11.874   7.108  70.903  1.00  0.00    -0.379 C  
ENDBRANCH   2   3
BRANCH   2   7
HETATM    7  N   UNL     1     -10.068   8.856  69.771  1.00  0.00    -0.193 NA 
HETATM    8  H   UNL     1      -9.825   7.957  69.354  1.00  0.00     0.000 HD 
HETATM    9  C   UNL     1     -10.360   9.910  68.936  1.00  0.00    -0.205 C  
HETATM   10  N   UNL     1     -10.328  11.129  69.394  1.00  0.00    -0.425 NA 
HETATM   11  N   UNL     1     -10.808   9.554  67.694  1.00  0.00    -0.444 NA 
HETATM   12  N   UNL     1     -10.236   7.278  66.591  1.00  0.00    -0.204 NA 
HETATM   13  H   UNL     1     -11.376  10.215  67.165  1.00  0.00     0.000 HD 
HETATM   14  C   UNL     1     -10.504   8.276  67.112  1.00  0.00    -0.316 C  
HETATM   15  H   UNL     1     -10.078  11.253  70.375  1.00  0.00     0.000 HD 
BRANCH  10  16
HETATM   16  C   UNL     1     -10.609  12.290  68.644  1.00  0.00    -0.224 A  
HETATM   17  C   UNL     1      -9.541  12.835  67.936  1.00  0.00    -0.211 A  
HETATM   18  C   UNL     1      -9.753  13.949  67.142  1.00  0.00    -0.244 A  
HETATM   19  N   UNL     1     -10.951  14.552  67.008  1.00  0.00    -0.305 NA 
HETATM   20  C   UNL     1     -11.983  13.991  67.672  1.00  0.00    -0.368 A  
HETATM   21  C   UNL     1     -11.867  12.867  68.477  1.00  0.00    -0.350 A  
ENDBRANCH  10  16
ENDBRANCH   2   7
TORSDOF 3
ENDMDL
MODEL       34
REMARK 921   NORMALIZED FREE ENERGY PREDICTED BY IDOCK:   -4.80 KCAL/MOL
REMARK 922        TOTAL FREE ENERGY PREDICTED BY IDOCK:   -6.07 KCAL/MOL
REMARK 923 INTER-LIGAND FREE ENERGY PREDICTED BY IDOCK:   -5.92 KCAL/MOL
REMARK 924 INTRA-LIGAND FREE ENERGY PREDICTED BY IDOCK:   -0.15 KCAL/MOL
REMARK 927      BINDING AFFINITY PREDICTED BY RF-SCORE:    0.00 PKD
ROOT
HETATM    1  C   UNL     1     -13.150  10.529  71.943  1.00  0.00    -0.567 C  
HETATM    2  C   UNL     1     -12.491   9.552  70.965  1.00  0.00    -0.267 C  
ENDROOT
BRANCH   2   3
HETATM    3  C   UNL     1     -12.456   8.063  71.469  1.00  0.00    -0.334 C  
HETATM    4  C   UNL     1     -11.693   7.975  72.812  1.00  0.00    -0.352 C  
HETATM    5  C   UNL     1     -11.701   7.175  70.455  1.00  0.00    -0.314 C  
HETATM    6  C   UNL     1     -13.860   7.459  71.672  1.00  0.00    -0.490 C  
ENDBRANCH   2   3
BRANCH   2   7
HETATM    7  N   UNL     1     -11.137  10.011  70.627  1.00  0.00    -0.319 NA 
HETATM    8  H   UNL     1     -10.358   9.700  71.207  1.00  0.00     0.000 HD 
HETATM    9  C   UNL     1     -10.873  10.842  69.563  1.00  0.00    -0.242 C  
HETATM   10  N   UNL     1     -11.837  11.531  69.024  1.00  0.00    -0.329 NA 
HETATM   11  N   UNL     1      -9.602  10.754  69.065  1.00  0.00    -0.268 NA 
HETATM   12  N   UNL     1      -7.586   9.958  70.488  1.00  0.00    -0.290 NA 
HETATM   13  H   UNL     1      -9.429  11.032  68.099  1.00  0.00     0.000 HD 
HETATM   14  C   UNL     1      -8.504  10.283  69.861  1.00  0.00     0.014 C  
HETATM   15  H   UNL     1     -12.768  11.426  69.425  1.00  0.00     0.000 HD 
BRANCH  10  16
HETATM   16  C   UNL     1     -11.698  12.411  67.930  1.00  0.00    -0.360 A  
HETATM   17  C   UNL     1     -11.812  13.768  68.219  1.00  0.00    -0.413 A  
HETATM   18  C   UNL     1     -11.642  14.694  67.204  1.00  0.00    -0.378 A  
HETATM   19  N   UNL     1     -11.369  14.358  65.928  1.00  0.00    -0.327 NA 
HETATM   20  C   UNL     1     -11.226  13.041  65.670  1.00  0.00    -0.283 A  
HETATM   21  C   UNL     1     -11.363  12.046  66.628  1.00  0.00    -0.399 A  
ENDBRANCH  10  16
ENDBRANCH   2   7
TORSDOF 3
ENDMDL
MODEL       35
REMARK 921   NORMALIZED FREE ENERGY PREDICTED BY IDOCK:   -4.77 KCAL/MOL
REMARK 922        TOTAL FREE ENERGY PREDICTED BY IDOCK:   -6.04 KCAL/MOL
REMARK 923 INTER-LIGAND FREE ENERGY PREDICTED BY IDOCK:   -5.81 KCAL/MOL
REMARK 924 INTRA-LIGAND FREE ENERGY PREDICTED BY IDOCK:   -0.23 KCAL/MOL
REMARK 927      BINDING AFFINITY PREDICTED BY RF-SCORE:    0.00 PKD
ROOT
HETATM    1  C   UNL     1     -10.660  16.928  69.442  1.00  0.00    -0.292 C  
HETATM    2  C   UNL     1      -9.789  16.993  68.185  1.00  0.00    -0.273 C  
ENDROOT
BRANCH   2   3
HETATM    3  C   UNL     1      -9.300  18.442  67.816  1.00  0.00    -0.283 C  
HETATM    4  C   UNL     1      -7.784  18.576  68.087  1.00  0.00    -0.302 C  
HETATM    5  C   UNL     1     -10.017  19.487  68.700  1.00  0.00    -0.538 C  
HETATM    6  C   UNL     1      -9.560  18.812  66.342  1.00  0.00    -0.354 C  
ENDBRANCH   2   3
BRANCH   2   7
HETATM    7  N   UNL     1     -10.493  16.385  67.048  1.00  0.00    -0.301 NA 
HETATM    8  H   UNL     1     -11.019  16.992  66.419  1.00  0.00     0.000 HD 
HETATM    9  C   UNL     1     -10.476  15.033  66.795  1.00  0.00    -0.283 C  
HETATM   10  N   UNL     1     -10.129  14.201  67.735  1.00  0.00    -0.236 NA 
HETATM   11  N   UNL     1     -10.698  14.689  65.490  1.00  0.00    -0.327 NA 
HETATM   12  N   UNL     1     -12.014  16.196  63.842  1.00  0.00    -0.864 NA 
HETATM   13  H   UNL     1     -10.351  13.792  65.150  1.00  0.00     0.000 HD 
HETATM   14  C   UNL     1     -11.405  15.551  64.585  1.00  0.00    -0.357 C  
HETATM   15  H   UNL     1      -9.883  14.597  68.642  1.00  0.00     0.000 HD 
BRANCH  10  16
HETATM   16  C   UNL     1     -10.067  12.798  67.602  1.00  0.00    -0.220 A  
HETATM   17  C   UNL     1     -11.232  12.102  67.913  1.00  0.00    -0.329 A  
HETATM   18  C   UNL     1     -11.259  10.726  67.762  1.00  0.00    -0.316 A  
HETATM   19  N   UNL     1     -10.209  10.003  67.325  1.00  0.00    -0.208 NA 
HETATM   20  C   UNL     1      -9.099  10.696  66.994  1.00  0.00    -0.144 A  
HETATM   21  C   UNL     1      -8.988  12.075  67.097  1.00  0.00    -0.185 A  
ENDBRANCH  10  16
ENDBRANCH   2   7
TORSDOF 3
ENDMDL
MODEL       36
REMARK 921   NORMALIZED FREE ENERGY PREDICTED BY IDOCK:   -4.75 KCAL/MOL
REMARK 922        TOTAL FREE ENERGY PREDICTED BY IDOCK:   -6.02 KCAL/MOL
REMARK 923 INTER-LIGAND FREE ENERGY PREDICTED BY IDOCK:   -5.90 KCAL/MOL
REMARK 924 INTRA-LIGAND FREE ENERGY PREDICTED BY IDOCK:   -0.12 KCAL/MOL
REMARK 927      BINDING AFFINITY PREDICTED BY RF-SCORE:    0.00 PKD
ROOT
HETATM    1  C   UNL     1     -11.281  15.227  64.912  1.00  0.00    -0.422 C  
HETATM    2  C   UNL     1     -10.822  14.397  66.114  1.00  0.00    -0.309 C  
ENDROOT
BRANCH   2   3
HETATM    3  C   UNL     1     -11.324  12.907  66.097  1.00  0.00    -0.356 C  
HETATM    4  C   UNL     1     -10.214  11.979  65.552  1.00  0.00    -0.290 C  
HETATM    5  C   UNL     1     -12.541  12.766  65.155  1.00  0.00    -0.513 C  
HETATM    6  C   UNL     1     -11.742  12.392  67.488  1.00  0.00    -0.425 C  
ENDBRANCH   2   3
BRANCH   2   7
HETATM    7  N   UNL     1     -11.218  15.057  67.365  1.00  0.00    -0.329 NA 
HETATM    8  H   UNL     1     -12.068  14.743  67.834  1.00  0.00     0.000 HD 
HETATM    9  C   UNL     1     -10.495  16.081  67.933  1.00  0.00    -0.292 C  
HETATM   10  N   UNL     1      -9.630  16.738  67.216  1.00  0.00    -0.231 NA 
HETATM   11  N   UNL     1     -10.661  16.223  69.282  1.00  0.00    -0.271 NA 
HETATM   12  N   UNL     1     -12.790  15.431  70.530  1.00  0.00    -0.413 NA 
HETATM   13  H   UNL     1      -9.926  16.679  69.825  1.00  0.00     0.000 HD 
HETATM   14  C   UNL     1     -11.836  15.752  69.960  1.00  0.00    -0.354 C  
HETATM   15  H   UNL     1      -9.524  16.461  66.240  1.00  0.00     0.000 HD 
BRANCH  10  16
HETATM   16  C   UNL     1      -8.825  17.801  67.678  1.00  0.00    -0.248 A  
HETATM   17  C   UNL     1      -7.665  17.439  68.357  1.00  0.00    -0.258 A  
HETATM   18  C   UNL     1      -6.803  18.428  68.801  1.00  0.00    -0.271 A  
HETATM   19  N   UNL     1      -7.021  19.745  68.613  1.00  0.00    -0.318 NA 
HETATM   20  C   UNL     1      -8.131  20.078  67.923  1.00  0.00    -0.264 A  
HETATM   21  C   UNL     1      -9.041  19.154  67.427  1.00  0.00    -0.333 A  
ENDBRANCH  10  16
ENDBRANCH   2   7
TORSDOF 3
ENDMDL
MODEL       37
REMARK 921   NORMALIZED FREE ENERGY PREDICTED BY IDOCK:   -4.75 KCAL/MOL
REMARK 922        TOTAL FREE ENERGY PREDICTED BY IDOCK:   -6.01 KCAL/MOL
REMARK 923 INTER-LIGAND FREE ENERGY PREDICTED BY IDOCK:   -5.78 KCAL/MOL
REMARK 924 INTRA-LIGAND FREE ENERGY PREDICTED BY IDOCK:   -0.23 KCAL/MOL
REMARK 927      BINDING AFFINITY PREDICTED BY RF-SCORE:    0.00 PKD
ROOT
HETATM    1  C   UNL     1     -12.445  11.062  71.037  1.00  0.00    -0.512 C  
HETATM    2  C   UNL     1     -11.585  10.072  70.246  1.00  0.00    -0.280 C  
ENDROOT
BRANCH   2   3
HETATM    3  C   UNL     1     -11.193   8.776  71.047  1.00  0.00    -0.329 C  
HETATM    4  C   UNL     1     -12.218   8.521  72.175  1.00  0.00    -0.446 C  
HETATM    5  C   UNL     1      -9.813   8.961  71.716  1.00  0.00    -0.386 C  
HETATM    6  C   UNL     1     -11.125   7.516  70.162  1.00  0.00    -0.246 C  
ENDBRANCH   2   3
BRANCH   2   7
HETATM    7  N   UNL     1     -10.381  10.743  69.736  1.00  0.00    -0.445 NA 
HETATM    8  H   UNL     1      -9.533  10.719  70.302  1.00  0.00     0.000 HD 
HETATM    9  C   UNL     1     -10.348  11.403  68.529  1.00  0.00    -0.205 C  
HETATM   10  N   UNL     1     -11.460  11.758  67.953  1.00  0.00    -0.325 NA 
HETATM   11  N   UNL     1      -9.108  11.503  67.962  1.00  0.00    -0.168 NA 
HETATM   12  N   UNL     1      -6.917  11.433  69.347  1.00  0.00    -0.112 NA 
HETATM   13  H   UNL     1      -9.035  11.631  66.953  1.00  0.00     0.000 HD 
HETATM   14  C   UNL     1      -7.905  11.433  68.743  1.00  0.00    -0.128 C  
HETATM   15  H   UNL     1     -12.330  11.530  68.435  1.00  0.00     0.000 HD 
BRANCH  10  16
HETATM   16  C   UNL     1     -11.561  12.434  66.719  1.00  0.00    -0.379 A  
HETATM   17  C   UNL     1     -11.701  13.817  66.788  1.00  0.00    -0.420 A  
HETATM   18  C   UNL     1     -11.761  14.552  65.616  1.00  0.00    -0.335 A  
HETATM   19  N   UNL     1     -11.690  14.001  64.388  1.00  0.00    -0.402 NA 
HETATM   20  C   UNL     1     -11.519  12.664  64.337  1.00  0.00    -0.349 A  
HETATM   21  C   UNL     1     -11.433  11.852  65.459  1.00  0.00    -0.311 A  
ENDBRANCH  10  16
ENDBRANCH   2   7
TORSDOF 3
ENDMDL
MODEL       38
REMARK 921   NORMALIZED FREE ENERGY PREDICTED BY IDOCK:   -4.74 KCAL/MOL
REMARK 922        TOTAL FREE ENERGY PREDICTED BY IDOCK:   -6.00 KCAL/MOL
REMARK 923 INTER-LIGAND FREE ENERGY PREDICTED BY IDOCK:   -5.47 KCAL/MOL
REMARK 924 INTRA-LIGAND FREE ENERGY PREDICTED BY IDOCK:   -0.53 KCAL/MOL
REMARK 927      BINDING AFFINITY PREDICTED BY RF-SCORE:    0.00 PKD
ROOT
HETATM    1  C   UNL     1     -10.947   7.085  67.068  1.00  0.00    -0.357 C  
HETATM    2  C   UNL     1     -10.232   8.434  67.181  1.00  0.00    -0.292 C  
ENDROOT
BRANCH   2   3
HETATM    3  C   UNL     1      -8.767   8.341  67.747  1.00  0.00    -0.134 C  
HETATM    4  C   UNL     1      -8.157   6.960  67.412  1.00  0.00    -0.115 C  
HETATM    5  C   UNL     1      -8.782   8.473  69.286  1.00  0.00    -0.133 C  
HETATM    6  C   UNL     1      -7.832   9.430  67.187  1.00  0.00    -0.098 C  
ENDBRANCH   2   3
BRANCH   2   7
HETATM    7  N   UNL     1     -11.034   9.366  67.986  1.00  0.00    -0.497 NA 
HETATM    8  H   UNL     1     -11.456   9.025  68.850  1.00  0.00     0.000 HD 
HETATM    9  C   UNL     1     -11.241  10.677  67.626  1.00  0.00    -0.290 C  
HETATM   10  N   UNL     1     -11.031  11.054  66.398  1.00  0.00    -0.193 NA 
HETATM   11  N   UNL     1     -11.525  11.521  68.664  1.00  0.00    -0.264 NA 
HETATM   12  N   UNL     1     -12.584  10.710  70.888  1.00  0.00    -0.375 NA 
HETATM   13  H   UNL     1     -11.332  12.517  68.558  1.00  0.00     0.000 HD 
HETATM   14  C   UNL     1     -12.085  11.048  69.899  1.00  0.00    -0.361 C  
HETATM   15  H   UNL     1     -10.718  10.342  65.738  1.00  0.00     0.000 HD 
BRANCH  10  16
HETATM   16  C   UNL     1     -11.202  12.365  65.905  1.00  0.00    -0.336 A  
HETATM   17  C   UNL     1     -10.045  13.132  65.795  1.00  0.00    -0.290 A  
HETATM   18  C   UNL     1     -10.129  14.413  65.277  1.00  0.00    -0.356 A  
HETATM   19  N   UNL     1     -11.282  14.975  64.863  1.00  0.00    -0.408 NA 
HETATM   20  C   UNL     1     -12.388  14.207  64.943  1.00  0.00    -0.430 A  
HETATM   21  C   UNL     1     -12.395  12.909  65.433  1.00  0.00    -0.538 A  
ENDBRANCH  10  16
ENDBRANCH   2   7
TORSDOF 3
ENDMDL
MODEL       39
REMARK 921   NORMALIZED FREE ENERGY PREDICTED BY IDOCK:   -4.74 KCAL/MOL
REMARK 922        TOTAL FREE ENERGY PREDICTED BY IDOCK:   -6.00 KCAL/MOL
REMARK 923 INTER-LIGAND FREE ENERGY PREDICTED BY IDOCK:   -5.91 KCAL/MOL
REMARK 924 INTRA-LIGAND FREE ENERGY PREDICTED BY IDOCK:   -0.09 KCAL/MOL
REMARK 927      BINDING AFFINITY PREDICTED BY RF-SCORE:    0.00 PKD
ROOT
HETATM    1  C   UNL     1      -9.974  10.563  65.125  1.00  0.00    -0.375 C  
HETATM    2  C   UNL     1     -10.693  11.739  65.792  1.00  0.00    -0.280 C  
ENDROOT
BRANCH   2   3
HETATM    3  C   UNL     1     -11.180  12.848  64.789  1.00  0.00    -0.336 C  
HETATM    4  C   UNL     1     -10.402  14.161  65.032  1.00  0.00    -0.443 C  
HETATM    5  C   UNL     1     -12.677  13.154  65.020  1.00  0.00    -0.456 C  
HETATM    6  C   UNL     1     -11.002  12.448  63.311  1.00  0.00    -0.325 C  
ENDBRANCH   2   3
BRANCH   2   7
HETATM    7  N   UNL     1      -9.841  12.327  66.834  1.00  0.00    -0.206 NA 
HETATM    8  H   UNL     1      -8.856  12.491  66.623  1.00  0.00     0.000 HD 
HETATM    9  C   UNL     1     -10.312  12.668  68.081  1.00  0.00    -0.234 C  
HETATM   10  N   UNL     1     -11.435  12.168  68.509  1.00  0.00    -0.274 NA 
HETATM   11  N   UNL     1      -9.597  13.643  68.720  1.00  0.00    -0.408 NA 
HETATM   12  N   UNL     1      -7.098  14.115  68.216  1.00  0.00    -0.100 NA 
HETATM   13  H   UNL     1     -10.056  14.200  69.441  1.00  0.00     0.000 HD 
HETATM   14  C   UNL     1      -8.221  13.908  68.406  1.00  0.00    -0.153 C  
HETATM   15  H   UNL     1     -11.929  11.527  67.887  1.00  0.00     0.000 HD 
BRANCH  10  16
HETATM   16  C   UNL     1     -12.025  12.439  69.761  1.00  0.00    -0.289 A  
HETATM   17  C   UNL     1     -12.387  13.764  69.992  1.00  0.00    -0.364 A  
HETATM   18  C   UNL     1     -13.013  14.098  71.181  1.00  0.00    -0.349 A  
HETATM   19  N   UNL     1     -13.300  13.204  72.148  1.00  0.00    -0.513 NA 
HETATM   20  C   UNL     1     -12.976  11.919  71.894  1.00  0.00    -0.329 A  
HETATM   21  C   UNL     1     -12.362  11.492  70.725  1.00  0.00    -0.472 A  
ENDBRANCH  10  16
ENDBRANCH   2   7
TORSDOF 3
ENDMDL
MODEL       40
REMARK 921   NORMALIZED FREE ENERGY PREDICTED BY IDOCK:   -4.71 KCAL/MOL
REMARK 922        TOTAL FREE ENERGY PREDICTED BY IDOCK:   -5.97 KCAL/MOL
REMARK 923 INTER-LIGAND FREE ENERGY PREDICTED BY IDOCK:   -5.59 KCAL/MOL
REMARK 924 INTRA-LIGAND FREE ENERGY PREDICTED BY IDOCK:   -0.38 KCAL/MOL
REMARK 927      BINDING AFFINITY PREDICTED BY RF-SCORE:    0.00 PKD
ROOT
HETATM    1  C   UNL     1      -8.458  12.917  67.020  1.00  0.00    -0.146 C  
HETATM    2  C   UNL     1      -9.590  13.840  67.478  1.00  0.00    -0.219 C  
ENDROOT
BRANCH   2   3
HETATM    3  C   UNL     1     -10.870  13.083  67.991  1.00  0.00    -0.261 C  
HETATM    4  C   UNL     1     -11.882  12.909  66.835  1.00  0.00    -0.444 C  
HETATM    5  C   UNL     1     -11.571  13.908  69.093  1.00  0.00    -0.359 C  
HETATM    6  C   UNL     1     -10.557  11.689  68.570  1.00  0.00    -0.241 C  
ENDBRANCH   2   3
BRANCH   2   7
HETATM    7  N   UNL     1      -9.945  14.777  66.404  1.00  0.00    -0.265 NA 
HETATM    8  H   UNL     1     -10.520  14.439  65.632  1.00  0.00     0.000 HD 
HETATM    9  C   UNL     1      -9.536  16.091  66.393  1.00  0.00    -0.283 C  
HETATM   10  N   UNL     1      -8.540  16.467  67.142  1.00  0.00    -0.173 NA 
HETATM   11  N   UNL     1     -10.335  16.936  65.673  1.00  0.00    -0.578 NA 
HETATM   12  N   UNL     1     -11.827  16.132  63.711  1.00  0.00    -0.780 NA 
HETATM   13  H   UNL     1     -10.333  17.931  65.900  1.00  0.00     0.000 HD 
HETATM   14  C   UNL     1     -11.176  16.467  64.608  1.00  0.00    -0.192 C  
HETATM   15  H   UNL     1      -8.093  15.753  67.717  1.00  0.00     0.000 HD 
BRANCH  10  16
HETATM   16  C   UNL     1      -8.030  17.779  67.224  1.00  0.00    -0.209 A  
HETATM   17  C   UNL     1      -8.200  18.426  68.446  1.00  0.00    -0.331 A  
HETATM   18  C   UNL     1      -7.684  19.700  68.615  1.00  0.00    -0.328 A  
HETATM   19  N   UNL     1      -7.016  20.367  67.653  1.00  0.00    -0.286 NA 
HETATM   20  C   UNL     1      -6.829  19.713  66.488  1.00  0.00    -0.201 A  
HETATM   21  C   UNL     1      -7.295  18.431  66.236  1.00  0.00    -0.293 A  
ENDBRANCH  10  16
ENDBRANCH   2   7
TORSDOF 3
ENDMDL
MODEL       41
REMARK 921   NORMALIZED FREE ENERGY PREDICTED BY IDOCK:   -4.70 KCAL/MOL
REMARK 922        TOTAL FREE ENERGY PREDICTED BY IDOCK:   -5.95 KCAL/MOL
REMARK 923 INTER-LIGAND FREE ENERGY PREDICTED BY IDOCK:   -5.52 KCAL/MOL
REMARK 924 INTRA-LIGAND FREE ENERGY PREDICTED BY IDOCK:   -0.43 KCAL/MOL
REMARK 927      BINDING AFFINITY PREDICTED BY RF-SCORE:    0.00 PKD
ROOT
HETATM    1  C   UNL     1     -10.760   9.871  70.088  1.00  0.00    -0.361 C  
HETATM    2  C   UNL     1     -10.372   9.461  68.665  1.00  0.00    -0.203 C  
ENDROOT
BRANCH   2   3
HETATM    3  C   UNL     1      -9.758   8.017  68.557  1.00  0.00    -0.166 C  
HETATM    4  C   UNL     1      -8.223   8.104  68.391  1.00  0.00    -0.129 C  
HETATM    5  C   UNL     1     -10.312   7.295  67.309  1.00  0.00    -0.349 C  
HETATM    6  C   UNL     1     -10.060   7.137  69.786  1.00  0.00    -0.200 C  
ENDBRANCH   2   3
BRANCH   2   7
HETATM    7  N   UNL     1      -9.456  10.453  68.085  1.00  0.00    -0.143 NA 
HETATM    8  H   UNL     1      -8.511  10.523  68.464  1.00  0.00     0.000 HD 
HETATM    9  C   UNL     1      -9.815  11.290  67.055  1.00  0.00    -0.191 C  
HETATM   10  N   UNL     1     -11.074  11.481  66.784  1.00  0.00    -0.298 NA 
HETATM   11  N   UNL     1      -8.775  11.749  66.296  1.00  0.00    -0.334 NA 
HETATM   12  N   UNL     1      -6.351  11.938  67.199  1.00  0.00    -0.142 NA 
HETATM   13  H   UNL     1      -8.956  12.051  65.339  1.00  0.00     0.000 HD 
HETATM   14  C   UNL     1      -7.434  11.819  66.806  1.00  0.00    -0.057 C  
HETATM   15  H   UNL     1     -11.757  10.993  67.363  1.00  0.00     0.000 HD 
BRANCH  10  16
HETATM   16  C   UNL     1     -11.572  12.308  65.755  1.00  0.00    -0.388 A  
HETATM   17  C   UNL     1     -11.980  13.583  66.138  1.00  0.00    -0.454 A  
HETATM   18  C   UNL     1     -12.437  14.466  65.175  1.00  0.00    -0.357 A  
HETATM   19  N   UNL     1     -12.513  14.164  63.863  1.00  0.00    -0.786 NA 
HETATM   20  C   UNL     1     -12.080  12.938  63.503  1.00  0.00    -0.555 A  
HETATM   21  C   UNL     1     -11.592  11.996  64.397  1.00  0.00    -0.411 A  
ENDBRANCH  10  16
ENDBRANCH   2   7
TORSDOF 3
ENDMDL
MODEL       42
REMARK 921   NORMALIZED FREE ENERGY PREDICTED BY IDOCK:   -4.63 KCAL/MOL
REMARK 922        TOTAL FREE ENERGY PREDICTED BY IDOCK:   -5.87 KCAL/MOL
REMARK 923 INTER-LIGAND FREE ENERGY PREDICTED BY IDOCK:   -5.66 KCAL/MOL
REMARK 924 INTRA-LIGAND FREE ENERGY PREDICTED BY IDOCK:   -0.20 KCAL/MOL
REMARK 927      BINDING AFFINITY PREDICTED BY RF-SCORE:    0.00 PKD
ROOT
HETATM    1  C   UNL     1      -6.940  17.795  66.433  1.00  0.00    -0.288 C  
HETATM    2  C   UNL     1      -8.287  17.093  66.631  1.00  0.00    -0.251 C  
ENDROOT
BRANCH   2   3
HETATM    3  C   UNL     1      -9.190  17.737  67.746  1.00  0.00    -0.256 C  
HETATM    4  C   UNL     1      -9.566  16.673  68.804  1.00  0.00    -0.254 C  
HETATM    5  C   UNL     1     -10.508  18.255  67.130  1.00  0.00    -0.417 C  
HETATM    6  C   UNL     1      -8.510  18.916  68.469  1.00  0.00    -0.384 C  
ENDBRANCH   2   3
BRANCH   2   7
HETATM    7  N   UNL     1      -8.077  15.664  66.902  1.00  0.00    -0.240 NA 
HETATM    8  H   UNL     1      -7.255  15.385  67.438  1.00  0.00     0.000 HD 
HETATM    9  C   UNL     1      -8.941  14.686  66.467  1.00  0.00    -0.204 C  
HETATM   10  N   UNL     1      -9.784  14.945  65.509  1.00  0.00    -0.453 NA 
HETATM   11  N   UNL     1      -8.925  13.534  67.204  1.00  0.00    -0.219 NA 
HETATM   12  N   UNL     1      -6.870  12.781  68.594  1.00  0.00    -0.093 NA 
HETATM   13  H   UNL     1      -9.747  12.930  67.194  1.00  0.00     0.000 HD 
HETATM   14  C   UNL     1      -7.787  13.149  67.990  1.00  0.00    -0.147 C  
HETATM   15  H   UNL     1      -9.766  15.884  65.111  1.00  0.00     0.000 HD 
BRANCH  10  16
HETATM   16  C   UNL     1     -10.721  14.034  64.977  1.00  0.00    -0.396 A  
HETATM   17  C   UNL     1     -12.041  14.209  65.382  1.00  0.00    -0.415 A  
HETATM   18  C   UNL     1     -13.023  13.380  64.865  1.00  0.00    -0.109 A  
HETATM   19  N   UNL     1     -12.777  12.396  63.979  1.00  0.00    -0.723 NA 
HETATM   20  C   UNL     1     -11.498  12.261  63.570  1.00  0.00    -0.476 A  
HETATM   21  C   UNL     1     -10.453  13.056  64.021  1.00  0.00    -0.337 A  
ENDBRANCH  10  16
ENDBRANCH   2   7
TORSDOF 3
ENDMDL
MODEL       43
REMARK 921   NORMALIZED FREE ENERGY PREDICTED BY IDOCK:   -4.59 KCAL/MOL
REMARK 922        TOTAL FREE ENERGY PREDICTED BY IDOCK:   -5.82 KCAL/MOL
REMARK 923 INTER-LIGAND FREE ENERGY PREDICTED BY IDOCK:   -5.88 KCAL/MOL
REMARK 924 INTRA-LIGAND FREE ENERGY PREDICTED BY IDOCK:    0.06 KCAL/MOL
REMARK 927      BINDING AFFINITY PREDICTED BY RF-SCORE:    0.00 PKD
ROOT
HETATM    1  C   UNL     1     -12.730  13.404  65.819  1.00  0.00    -0.383 C  
HETATM    2  C   UNL     1     -11.899  13.002  67.041  1.00  0.00    -0.377 C  
ENDROOT
BRANCH   2   3
HETATM    3  C   UNL     1     -10.702  13.973  67.353  1.00  0.00    -0.285 C  
HETATM    4  C   UNL     1     -10.869  15.291  66.562  1.00  0.00    -0.311 C  
HETATM    5  C   UNL     1      -9.369  13.335  66.904  1.00  0.00    -0.244 C  
HETATM    6  C   UNL     1     -10.580  14.322  68.849  1.00  0.00    -0.252 C  
ENDBRANCH   2   3
BRANCH   2   7
HETATM    7  N   UNL     1     -11.416  11.623  66.893  1.00  0.00    -0.491 NA 
HETATM    8  H   UNL     1     -11.102  11.312  65.973  1.00  0.00     0.000 HD 
HETATM    9  C   UNL     1     -11.366  10.731  67.939  1.00  0.00    -0.299 C  
HETATM   10  N   UNL     1     -12.063  10.955  69.016  1.00  0.00    -0.670 NA 
HETATM   11  N   UNL     1     -10.447   9.728  67.798  1.00  0.00    -0.229 NA 
HETATM   12  N   UNL     1      -9.604   8.907  65.488  1.00  0.00    -0.119 NA 
HETATM   13  H   UNL     1     -10.089   9.265  68.633  1.00  0.00     0.000 HD 
HETATM   14  C   UNL     1      -9.971   9.307  66.510  1.00  0.00    -0.274 C  
HETATM   15  H   UNL     1     -12.632  11.801  69.037  1.00  0.00     0.000 HD 
BRANCH  10  16
HETATM   16  C   UNL     1     -12.095  10.124  70.155  1.00  0.00    -0.149 A  
HETATM   17  C   UNL     1     -10.858   9.756  70.678  1.00  0.00    -0.396 A  
HETATM   18  C   UNL     1     -10.812   8.978  71.823  1.00  0.00    -0.367 A  
HETATM   19  N   UNL     1     -11.909   8.547  72.476  1.00  0.00    -0.368 NA 
HETATM   20  C   UNL     1     -13.099   8.942  71.978  1.00  0.00    -0.402 A  
HETATM   21  C   UNL     1     -13.240   9.734  70.847  1.00  0.00    -0.265 A  
ENDBRANCH  10  16
ENDBRANCH   2   7
TORSDOF 3
ENDMDL
MODEL       44
REMARK 921   NORMALIZED FREE ENERGY PREDICTED BY IDOCK:   -4.58 KCAL/MOL
REMARK 922        TOTAL FREE ENERGY PREDICTED BY IDOCK:   -5.81 KCAL/MOL
REMARK 923 INTER-LIGAND FREE ENERGY PREDICTED BY IDOCK:   -5.34 KCAL/MOL
REMARK 924 INTRA-LIGAND FREE ENERGY PREDICTED BY IDOCK:   -0.48 KCAL/MOL
REMARK 927      BINDING AFFINITY PREDICTED BY RF-SCORE:    0.00 PKD
ROOT
HETATM    1  C   UNL     1     -10.753   7.371  67.272  1.00  0.00    -0.379 C  
HETATM    2  C   UNL     1     -10.053   8.559  67.939  1.00  0.00    -0.207 C  
ENDROOT
BRANCH   2   3
HETATM    3  C   UNL     1      -8.905   8.154  68.934  1.00  0.00    -0.141 C  
HETATM    4  C   UNL     1      -7.565   8.776  68.480  1.00  0.00    -0.098 C  
HETATM    5  C   UNL     1      -8.720   6.620  68.937  1.00  0.00    -0.128 C  
HETATM    6  C   UNL     1      -9.176   8.600  70.385  1.00  0.00    -0.189 C  
ENDBRANCH   2   3
BRANCH   2   7
HETATM    7  N   UNL     1     -11.040   9.414  68.614  1.00  0.00    -0.463 NA 
HETATM    8  H   UNL     1     -11.561   9.028  69.401  1.00  0.00     0.000 HD 
HETATM    9  C   UNL     1     -11.291  10.711  68.231  1.00  0.00    -0.289 C  
HETATM   10  N   UNL     1     -10.926  11.122  67.051  1.00  0.00    -0.288 NA 
HETATM   11  N   UNL     1     -11.796  11.514  69.216  1.00  0.00    -0.329 NA 
HETATM   12  N   UNL     1     -13.116  10.589  71.247  1.00  0.00    -0.390 NA 
HETATM   13  H   UNL     1     -11.668  12.523  69.145  1.00  0.00     0.000 HD 
HETATM   14  C   UNL     1     -12.500  10.980  70.348  1.00  0.00    -0.313 C  
HETATM   15  H   UNL     1     -10.460  10.447  66.445  1.00  0.00     0.000 HD 
BRANCH  10  16
HETATM   16  C   UNL     1     -11.121  12.423  66.543  1.00  0.00    -0.301 A  
HETATM   17  C   UNL     1     -10.037  13.290  66.649  1.00  0.00    -0.266 A  
HETATM   18  C   UNL     1     -10.139  14.570  66.131  1.00  0.00    -0.305 A  
HETATM   19  N   UNL     1     -11.244  15.039  65.518  1.00  0.00    -0.350 NA 
HETATM   20  C   UNL     1     -12.274  14.176  65.392  1.00  0.00    -0.433 A  
HETATM   21  C   UNL     1     -12.253  12.872  65.866  1.00  0.00    -0.469 A  
ENDBRANCH  10  16
ENDBRANCH   2   7
TORSDOF 3
ENDMDL
MODEL       45
REMARK 921   NORMALIZED FREE ENERGY PREDICTED BY IDOCK:   -4.58 KCAL/MOL
REMARK 922        TOTAL FREE ENERGY PREDICTED BY IDOCK:   -5.81 KCAL/MOL
REMARK 923 INTER-LIGAND FREE ENERGY PREDICTED BY IDOCK:   -5.41 KCAL/MOL
REMARK 924 INTRA-LIGAND FREE ENERGY PREDICTED BY IDOCK:   -0.40 KCAL/MOL
REMARK 927      BINDING AFFINITY PREDICTED BY RF-SCORE:    0.00 PKD
ROOT
HETATM    1  C   UNL     1     -12.086  11.269  70.574  1.00  0.00    -0.481 C  
HETATM    2  C   UNL     1     -11.169  10.238  69.910  1.00  0.00    -0.299 C  
ENDROOT
BRANCH   2   3
HETATM    3  C   UNL     1     -10.848   8.988  70.810  1.00  0.00    -0.310 C  
HETATM    4  C   UNL     1     -11.023   7.687  69.993  1.00  0.00    -0.237 C  
HETATM    5  C   UNL     1     -11.834   8.920  71.997  1.00  0.00    -0.438 C  
HETATM    6  C   UNL     1      -9.417   9.008  71.384  1.00  0.00    -0.334 C  
ENDBRANCH   2   3
BRANCH   2   7
HETATM    7  N   UNL     1      -9.927  10.880  69.461  1.00  0.00    -0.437 NA 
HETATM    8  H   UNL     1      -9.230  11.136  70.161  1.00  0.00     0.000 HD 
HETATM    9  C   UNL     1      -9.661  11.151  68.139  1.00  0.00    -0.179 C  
HETATM   10  N   UNL     1     -10.632  11.170  67.272  1.00  0.00    -0.225 NA 
HETATM   11  N   UNL     1      -8.333  11.241  67.826  1.00  0.00    -0.121 NA 
HETATM   12  N   UNL     1      -6.516  11.874  69.564  1.00  0.00    -0.118 NA 
HETATM   13  H   UNL     1      -8.039  11.072  66.863  1.00  0.00     0.000 HD 
HETATM   14  C   UNL     1      -7.338  11.565  68.810  1.00  0.00    -0.115 C  
HETATM   15  H   UNL     1     -11.572  10.982  67.620  1.00  0.00     0.000 HD 
BRANCH  10  16
HETATM   16  C   UNL     1     -10.491  11.430  65.893  1.00  0.00    -0.258 A  
HETATM   17  C   UNL     1     -10.715  12.744  65.493  1.00  0.00    -0.303 A  
HETATM   18  C   UNL     1     -10.550  13.084  64.160  1.00  0.00    -0.397 A  
HETATM   19  N   UNL     1     -10.180  12.205  63.208  1.00  0.00    -0.394 NA 
HETATM   20  C   UNL     1      -9.933  10.944  63.618  1.00  0.00    -0.359 A  
HETATM   21  C   UNL     1     -10.056  10.519  64.933  1.00  0.00    -0.403 A  
ENDBRANCH  10  16
ENDBRANCH   2   7
TORSDOF 3
ENDMDL
MODEL       46
REMARK 921   NORMALIZED FREE ENERGY PREDICTED BY IDOCK:   -4.58 KCAL/MOL
REMARK 922        TOTAL FREE ENERGY PREDICTED BY IDOCK:   -5.81 KCAL/MOL
REMARK 923 INTER-LIGAND FREE ENERGY PREDICTED BY IDOCK:   -5.55 KCAL/MOL
REMARK 924 INTRA-LIGAND FREE ENERGY PREDICTED BY IDOCK:   -0.26 KCAL/MOL
REMARK 927      BINDING AFFINITY PREDICTED BY RF-SCORE:    0.00 PKD
ROOT
HETATM    1  C   UNL     1      -6.750  15.098  67.966  1.00  0.00    -0.153 C  
HETATM    2  C   UNL     1      -7.843  15.937  67.301  1.00  0.00    -0.187 C  
ENDROOT
BRANCH   2   3
HETATM    3  C   UNL     1      -7.671  17.489  67.495  1.00  0.00    -0.210 C  
HETATM    4  C   UNL     1      -7.172  18.136  66.182  1.00  0.00    -0.316 C  
HETATM    5  C   UNL     1      -6.607  17.774  68.578  1.00  0.00    -0.213 C  
HETATM    6  C   UNL     1      -8.975  18.195  67.916  1.00  0.00    -0.273 C  
ENDBRANCH   2   3
BRANCH   2   7
HETATM    7  N   UNL     1      -9.167  15.506  67.768  1.00  0.00    -0.180 NA 
HETATM    8  H   UNL     1      -9.446  15.737  68.722  1.00  0.00     0.000 HD 
HETATM    9  C   UNL     1     -10.048  14.805  66.977  1.00  0.00    -0.245 C  
HETATM   10  N   UNL     1      -9.617  14.196  65.910  1.00  0.00    -0.495 NA 
HETATM   11  N   UNL     1     -11.364  14.936  67.324  1.00  0.00    -0.346 NA 
HETATM   12  N   UNL     1     -12.132  15.534  69.728  1.00  0.00    -0.364 NA 
HETATM   13  H   UNL     1     -12.080  14.773  66.617  1.00  0.00     0.000 HD 
HETATM   14  C   UNL     1     -11.768  15.296  68.654  1.00  0.00    -0.346 C  
HETATM   15  H   UNL     1      -8.621  14.263  65.703  1.00  0.00     0.000 HD 
BRANCH  10  16
HETATM   16  C   UNL     1     -10.416  13.451  65.017  1.00  0.00    -0.365 A  
HETATM   17  C   UNL     1     -10.196  12.076  65.003  1.00  0.00    -0.308 A  
HETATM   18  C   UNL     1     -10.973  11.274  64.184  1.00  0.00    -0.305 A  
HETATM   19  N   UNL     1     -11.949  11.750  63.385  1.00  0.00    -0.431 NA 
HETATM   20  C   UNL     1     -12.174  13.079  63.437  1.00  0.00    -0.472 A  
HETATM   21  C   UNL     1     -11.455  13.955  64.239  1.00  0.00    -0.336 A  
ENDBRANCH  10  16
ENDBRANCH   2   7
TORSDOF 3
ENDMDL
MODEL       47
REMARK 921   NORMALIZED FREE ENERGY PREDICTED BY IDOCK:   -4.58 KCAL/MOL
REMARK 922        TOTAL FREE ENERGY PREDICTED BY IDOCK:   -5.81 KCAL/MOL
REMARK 923 INTER-LIGAND FREE ENERGY PREDICTED BY IDOCK:   -5.49 KCAL/MOL
REMARK 924 INTRA-LIGAND FREE ENERGY PREDICTED BY IDOCK:   -0.32 KCAL/MOL
REMARK 927      BINDING AFFINITY PREDICTED BY RF-SCORE:    0.00 PKD
ROOT
HETATM    1  C   UNL     1      -8.364  15.431  69.246  1.00  0.00    -0.254 C  
HETATM    2  C   UNL     1      -7.910  15.774  67.825  1.00  0.00    -0.141 C  
ENDROOT
BRANCH   2   3
HETATM    3  C   UNL     1      -6.573  16.600  67.758  1.00  0.00    -0.158 C  
HETATM    4  C   UNL     1      -5.370  15.688  68.088  1.00  0.00    -0.121 C  
HETATM    5  C   UNL     1      -6.593  17.731  68.811  1.00  0.00    -0.227 C  
HETATM    6  C   UNL     1      -6.327  17.243  66.379  1.00  0.00    -0.258 C  
ENDBRANCH   2   3
BRANCH   2   7
HETATM    7  N   UNL     1      -8.983  16.477  67.107  1.00  0.00    -0.201 NA 
HETATM    8  H   UNL     1      -9.107  17.476  67.272  1.00  0.00     0.000 HD 
HETATM    9  C   UNL     1      -9.828  15.847  66.223  1.00  0.00    -0.302 C  
HETATM   10  N   UNL     1      -9.939  14.550  66.244  1.00  0.00    -0.291 NA 
HETATM   11  N   UNL     1     -10.384  16.663  65.278  1.00  0.00    -0.636 NA 
HETATM   12  N   UNL     1     -10.712  19.210  65.635  1.00  0.00    -0.477 NA 
HETATM   13  H   UNL     1     -10.705  16.255  64.399  1.00  0.00     0.000 HD 
HETATM   14  C   UNL     1     -10.530  18.077  65.483  1.00  0.00     0.037 C  
HETATM   15  H   UNL     1      -9.385  14.044  66.935  1.00  0.00     0.000 HD 
BRANCH  10  16
HETATM   16  C   UNL     1     -10.764  13.787  65.391  1.00  0.00    -0.317 A  
HETATM   17  C   UNL     1     -12.121  13.776  65.703  1.00  0.00    -0.444 A  
HETATM   18  C   UNL     1     -12.998  13.085  64.883  1.00  0.00    -0.143 A  
HETATM   19  N   UNL     1     -12.614  12.410  63.782  1.00  0.00    -0.715 NA 
HETATM   20  C   UNL     1     -11.302  12.460  63.474  1.00  0.00    -0.476 A  
HETATM   21  C   UNL     1     -10.355  13.140  64.227  1.00  0.00    -0.361 A  
ENDBRANCH  10  16
ENDBRANCH   2   7
TORSDOF 3
ENDMDL
MODEL       48
REMARK 921   NORMALIZED FREE ENERGY PREDICTED BY IDOCK:   -4.57 KCAL/MOL
REMARK 922        TOTAL FREE ENERGY PREDICTED BY IDOCK:   -5.80 KCAL/MOL
REMARK 923 INTER-LIGAND FREE ENERGY PREDICTED BY IDOCK:   -6.56 KCAL/MOL
REMARK 924 INTRA-LIGAND FREE ENERGY PREDICTED BY IDOCK:    0.76 KCAL/MOL
REMARK 927      BINDING AFFINITY PREDICTED BY RF-SCORE:    0.00 PKD
ROOT
HETATM    1  C   UNL     1      -8.884  16.140  69.200  1.00  0.00    -0.239 C  
HETATM    2  C   UNL     1      -9.258  15.551  67.837  1.00  0.00    -0.187 C  
ENDROOT
BRANCH   2   3
HETATM    3  C   UNL     1      -9.748  16.616  66.788  1.00  0.00    -0.271 C  
HETATM    4  C   UNL     1      -8.534  17.281  66.100  1.00  0.00    -0.216 C  
HETATM    5  C   UNL     1     -10.542  17.735  67.498  1.00  0.00    -0.365 C  
HETATM    6  C   UNL     1     -10.653  16.016  65.694  1.00  0.00    -0.392 C  
ENDBRANCH   2   3
BRANCH   2   7
HETATM    7  N   UNL     1     -10.264  14.493  68.002  1.00  0.00    -0.230 NA 
HETATM    8  H   UNL     1     -10.382  13.812  67.252  1.00  0.00     0.000 HD 
HETATM    9  C   UNL     1     -11.053  14.380  69.123  1.00  0.00    -0.265 C  
HETATM   10  N   UNL     1     -11.189  15.397  69.925  1.00  0.00    -0.273 NA 
HETATM   11  N   UNL     1     -11.526  13.122  69.370  1.00  0.00    -0.358 NA 
HETATM   12  N   UNL     1     -11.835  11.344  67.507  1.00  0.00    -0.627 NA 
HETATM   13  H   UNL     1     -11.790  12.871  70.322  1.00  0.00     0.000 HD 
HETATM   14  C   UNL     1     -11.663  12.142  68.329  1.00  0.00    -0.342 C  
HETATM   15  H   UNL     1     -10.694  16.254  69.681  1.00  0.00     0.000 HD 
BRANCH  10  16
HETATM   16  C   UNL     1     -11.963  15.408  71.105  1.00  0.00    -0.362 A  
HETATM   17  C   UNL     1     -13.343  15.360  70.930  1.00  0.00    -0.476 A  
HETATM   18  C   UNL     1     -14.166  15.322  72.043  1.00  0.00    -0.581 A  
HETATM   19  N   UNL     1     -13.706  15.329  73.310  1.00  0.00    -0.366 NA 
HETATM   20  C   UNL     1     -12.365  15.341  73.463  1.00  0.00    -0.536 A  
HETATM   21  C   UNL     1     -11.466  15.362  72.406  1.00  0.00    -0.475 A  
ENDBRANCH  10  16
ENDBRANCH   2   7
TORSDOF 3
ENDMDL
MODEL       49
REMARK 921   NORMALIZED FREE ENERGY PREDICTED BY IDOCK:   -4.56 KCAL/MOL
REMARK 922        TOTAL FREE ENERGY PREDICTED BY IDOCK:   -5.78 KCAL/MOL
REMARK 923 INTER-LIGAND FREE ENERGY PREDICTED BY IDOCK:   -5.37 KCAL/MOL
REMARK 924 INTRA-LIGAND FREE ENERGY PREDICTED BY IDOCK:   -0.41 KCAL/MOL
REMARK 927      BINDING AFFINITY PREDICTED BY RF-SCORE:    0.00 PKD
ROOT
HETATM    1  C   UNL     1      -7.322  17.593  67.846  1.00  0.00    -0.203 C  
HETATM    2  C   UNL     1      -8.815  17.616  67.505  1.00  0.00    -0.231 C  
ENDROOT
BRANCH   2   3
HETATM    3  C   UNL     1      -9.411  19.060  67.322  1.00  0.00    -0.344 C  
HETATM    4  C   UNL     1      -8.278  20.066  67.014  1.00  0.00    -0.364 C  
HETATM    5  C   UNL     1     -10.092  19.524  68.629  1.00  0.00    -0.535 C  
HETATM    6  C   UNL     1     -10.453  19.146  66.190  1.00  0.00    -0.558 C  
ENDBRANCH   2   3
BRANCH   2   7
HETATM    7  N   UNL     1      -9.576  16.872  68.518  1.00  0.00    -0.253 NA 
HETATM    8  H   UNL     1      -9.723  17.302  69.431  1.00  0.00     0.000 HD 
HETATM    9  C   UNL     1     -10.100  15.620  68.289  1.00  0.00    -0.218 C  
HETATM   10  N   UNL     1      -9.653  14.901  67.300  1.00  0.00    -0.212 NA 
HETATM   11  N   UNL     1     -11.176  15.296  69.067  1.00  0.00    -0.262 NA 
HETATM   12  N   UNL     1     -11.609  16.366  71.389  1.00  0.00    -0.361 NA 
HETATM   13  H   UNL     1     -11.831  14.588  68.734  1.00  0.00     0.000 HD 
HETATM   14  C   UNL     1     -11.414  15.921  70.338  1.00  0.00    -0.378 C  
HETATM   15  H   UNL     1      -8.914  15.305  66.725  1.00  0.00     0.000 HD 
BRANCH  10  16
HETATM   16  C   UNL     1     -10.108  13.610  66.959  1.00  0.00    -0.248 A  
HETATM   17  C   UNL     1     -11.187  13.554  66.081  1.00  0.00    -0.306 A  
HETATM   18  C   UNL     1     -11.659  12.320  65.665  1.00  0.00    -0.380 A  
HETATM   19  N   UNL     1     -11.129  11.147  66.064  1.00  0.00    -0.123 NA 
HETATM   20  C   UNL     1     -10.062  11.218  66.886  1.00  0.00    -0.212 A  
HETATM   21  C   UNL     1      -9.512  12.409  67.340  1.00  0.00    -0.186 A  
ENDBRANCH  10  16
ENDBRANCH   2   7
TORSDOF 3
ENDMDL
MODEL       50
REMARK 921   NORMALIZED FREE ENERGY PREDICTED BY IDOCK:   -4.53 KCAL/MOL
REMARK 922        TOTAL FREE ENERGY PREDICTED BY IDOCK:   -5.75 KCAL/MOL
REMARK 923 INTER-LIGAND FREE ENERGY PREDICTED BY IDOCK:   -5.69 KCAL/MOL
REMARK 924 INTRA-LIGAND FREE ENERGY PREDICTED BY IDOCK:   -0.06 KCAL/MOL
REMARK 927      BINDING AFFINITY PREDICTED BY RF-SCORE:    0.00 PKD
ROOT
HETATM    1  C   UNL     1     -10.480   9.696  67.625  1.00  0.00    -0.317 C  
HETATM    2  C   UNL     1     -10.059  10.257  68.987  1.00  0.00    -0.213 C  
ENDROOT
BRANCH   2   3
HETATM    3  C   UNL     1     -10.065   9.197  70.149  1.00  0.00    -0.233 C  
HETATM    4  C   UNL     1      -8.660   9.098  70.784  1.00  0.00    -0.265 C  
HETATM    5  C   UNL     1     -10.415   7.799  69.592  1.00  0.00    -0.229 C  
HETATM    6  C   UNL     1     -11.077   9.528  71.264  1.00  0.00    -0.449 C  
ENDBRANCH   2   3
BRANCH   2   7
HETATM    7  N   UNL     1     -10.897  11.410  69.340  1.00  0.00    -0.395 NA 
HETATM    8  H   UNL     1     -11.617  11.290  70.052  1.00  0.00     0.000 HD 
HETATM    9  C   UNL     1     -10.755  12.646  68.752  1.00  0.00    -0.207 C  
HETATM   10  N   UNL     1     -10.115  12.757  67.624  1.00  0.00    -0.216 NA 
HETATM   11  N   UNL     1     -11.195  13.697  69.507  1.00  0.00    -0.423 NA 
HETATM   12  N   UNL     1     -13.011  13.449  71.342  1.00  0.00    -0.349 NA 
HETATM   13  H   UNL     1     -10.811  14.626  69.333  1.00  0.00     0.000 HD 
HETATM   14  C   UNL     1     -12.181  13.534  70.539  1.00  0.00    -0.361 C  
HETATM   15  H   UNL     1      -9.740  11.903  67.212  1.00  0.00     0.000 HD 
BRANCH  10  16
HETATM   16  C   UNL     1      -9.897  13.963  66.924  1.00  0.00    -0.268 A  
HETATM   17  C   UNL     1     -10.915  14.361  66.061  1.00  0.00    -0.316 A  
HETATM   18  C   UNL     1     -10.792  15.557  65.375  1.00  0.00    -0.390 A  
HETATM   19  N   UNL     1      -9.728  16.377  65.491  1.00  0.00    -0.499 NA 
HETATM   20  C   UNL     1      -8.767  15.995  66.358  1.00  0.00    -0.327 A  
HETATM   21  C   UNL     1      -8.815  14.822  67.099  1.00  0.00    -0.234 A  
ENDBRANCH  10  16
ENDBRANCH   2   7
TORSDOF 3
ENDMDL
MODEL       51
REMARK 921   NORMALIZED FREE ENERGY PREDICTED BY IDOCK:   -4.48 KCAL/MOL
REMARK 922        TOTAL FREE ENERGY PREDICTED BY IDOCK:   -5.70 KCAL/MOL
REMARK 923 INTER-LIGAND FREE ENERGY PREDICTED BY IDOCK:   -5.24 KCAL/MOL
REMARK 924 INTRA-LIGAND FREE ENERGY PREDICTED BY IDOCK:   -0.45 KCAL/MOL
REMARK 927      BINDING AFFINITY PREDICTED BY RF-SCORE:    0.00 PKD
ROOT
HETATM    1  C   UNL     1     -11.607  15.840  68.836  1.00  0.00    -0.400 C  
HETATM    2  C   UNL     1     -10.506  15.483  67.834  1.00  0.00    -0.266 C  
ENDROOT
BRANCH   2   3
HETATM    3  C   UNL     1      -9.651  16.713  67.354  1.00  0.00    -0.242 C  
HETATM    4  C   UNL     1      -9.630  17.805  68.449  1.00  0.00    -0.323 C  
HETATM    5  C   UNL     1     -10.284  17.342  66.093  1.00  0.00    -0.334 C  
HETATM    6  C   UNL     1      -8.193  16.342  67.016  1.00  0.00    -0.231 C  
ENDBRANCH   2   3
BRANCH   2   7
HETATM    7  N   UNL     1     -11.080  14.777  66.681  1.00  0.00    -0.328 NA 
HETATM    8  H   UNL     1     -11.712  15.285  66.063  1.00  0.00     0.000 HD 
HETATM    9  C   UNL     1     -10.803  13.459  66.398  1.00  0.00    -0.289 C  
HETATM   10  N   UNL     1     -10.304  12.689  67.322  1.00  0.00    -0.224 NA 
HETATM   11  N   UNL     1     -10.954  13.108  65.086  1.00  0.00    -0.291 NA 
HETATM   12  N   UNL     1     -12.534  14.371  63.464  1.00  0.00    -0.675 NA 
HETATM   13  H   UNL     1     -10.442  12.302  64.727  1.00  0.00     0.000 HD 
HETATM   14  C   UNL     1     -11.813  13.838  64.196  1.00  0.00    -0.401 C  
HETATM   15  H   UNL     1     -10.138  13.104  68.238  1.00  0.00     0.000 HD 
BRANCH  10  16
HETATM   16  C   UNL     1      -9.973  11.327  67.158  1.00  0.00    -0.192 A  
HETATM   17  C   UNL     1      -8.670  11.059  66.747  1.00  0.00    -0.152 A  
HETATM   18  C   UNL     1      -8.260   9.744  66.610  1.00  0.00    -0.120 A  
HETATM   19  N   UNL     1      -9.058   8.686  66.853  1.00  0.00    -0.139 NA 
HETATM   20  C   UNL     1     -10.307   8.961  67.284  1.00  0.00    -0.280 A  
HETATM   21  C   UNL     1     -10.797  10.246  67.466  1.00  0.00    -0.355 A  
ENDBRANCH  10  16
ENDBRANCH   2   7
TORSDOF 3
ENDMDL
MODEL       52
REMARK 921   NORMALIZED FREE ENERGY PREDICTED BY IDOCK:   -4.48 KCAL/MOL
REMARK 922        TOTAL FREE ENERGY PREDICTED BY IDOCK:   -5.69 KCAL/MOL
REMARK 923 INTER-LIGAND FREE ENERGY PREDICTED BY IDOCK:   -5.35 KCAL/MOL
REMARK 924 INTRA-LIGAND FREE ENERGY PREDICTED BY IDOCK:   -0.34 KCAL/MOL
REMARK 927      BINDING AFFINITY PREDICTED BY RF-SCORE:    0.00 PKD
ROOT
HETATM    1  C   UNL     1      -8.858  12.866  66.733  1.00  0.00    -0.152 C  
HETATM    2  C   UNL     1     -10.281  12.315  66.605  1.00  0.00    -0.216 C  
ENDROOT
BRANCH   2   3
HETATM    3  C   UNL     1     -11.288  13.292  65.894  1.00  0.00    -0.333 C  
HETATM    4  C   UNL     1     -10.524  14.234  64.935  1.00  0.00    -0.454 C  
HETATM    5  C   UNL     1     -11.997  14.179  66.941  1.00  0.00    -0.479 C  
HETATM    6  C   UNL     1     -12.374  12.557  65.084  1.00  0.00    -0.496 C  
ENDBRANCH   2   3
BRANCH   2   7
HETATM    7  N   UNL     1     -10.792  11.923  67.925  1.00  0.00    -0.203 NA 
HETATM    8  H   UNL     1     -11.064  12.656  68.580  1.00  0.00     0.000 HD 
HETATM    9  C   UNL     1     -10.920  10.610  68.318  1.00  0.00    -0.263 C  
HETATM   10  N   UNL     1     -10.276   9.676  67.679  1.00  0.00    -0.201 NA 
HETATM   11  N   UNL     1     -11.857  10.389  69.289  1.00  0.00    -0.504 NA 
HETATM   12  N   UNL     1     -12.598  12.217  70.972  1.00  0.00    -0.326 NA 
HETATM   13  H   UNL     1     -12.271   9.461  69.374  1.00  0.00     0.000 HD 
HETATM   14  C   UNL     1     -12.275  11.423  70.193  1.00  0.00    -0.321 C  
HETATM   15  H   UNL     1      -9.686   9.965  66.899  1.00  0.00     0.000 HD 
BRANCH  10  16
HETATM   16  C   UNL     1     -10.326   8.299  67.979  1.00  0.00    -0.213 A  
HETATM   17  C   UNL     1     -10.768   7.466  66.955  1.00  0.00    -0.324 A  
HETATM   18  C   UNL     1     -10.801   6.097  67.161  1.00  0.00    -0.360 A  
HETATM   19  N   UNL     1     -10.423   5.508  68.313  1.00  0.00    -0.180 NA 
HETATM   20  C   UNL     1      -9.963   6.325  69.283  1.00  0.00    -0.155 A  
HETATM   21  C   UNL     1      -9.881   7.705  69.158  1.00  0.00    -0.171 A  
ENDBRANCH  10  16
ENDBRANCH   2   7
TORSDOF 3
ENDMDL
MODEL       53
REMARK 921   NORMALIZED FREE ENERGY PREDICTED BY IDOCK:   -4.46 KCAL/MOL
REMARK 922        TOTAL FREE ENERGY PREDICTED BY IDOCK:   -5.67 KCAL/MOL
REMARK 923 INTER-LIGAND FREE ENERGY PREDICTED BY IDOCK:   -5.49 KCAL/MOL
REMARK 924 INTRA-LIGAND FREE ENERGY PREDICTED BY IDOCK:   -0.18 KCAL/MOL
REMARK 927      BINDING AFFINITY PREDICTED BY RF-SCORE:    0.00 PKD
ROOT
HETATM    1  C   UNL     1      -8.307  10.219  65.928  1.00  0.00    -0.145 C  
HETATM    2  C   UNL     1      -9.327  11.004  66.757  1.00  0.00    -0.181 C  
ENDROOT
BRANCH   2   3
HETATM    3  C   UNL     1     -10.143  10.124  67.774  1.00  0.00    -0.216 C  
HETATM    4  C   UNL     1      -9.304   9.869  69.047  1.00  0.00    -0.175 C  
HETATM    5  C   UNL     1     -10.460   8.746  67.151  1.00  0.00    -0.354 C  
HETATM    6  C   UNL     1     -11.478  10.770  68.198  1.00  0.00    -0.346 C  
ENDBRANCH   2   3
BRANCH   2   7
HETATM    7  N   UNL     1     -10.238  11.742  65.871  1.00  0.00    -0.228 NA 
HETATM    8  H   UNL     1     -10.727  11.228  65.138  1.00  0.00     0.000 HD 
HETATM    9  C   UNL     1     -10.460  13.095  65.986  1.00  0.00    -0.284 C  
HETATM   10  N   UNL     1      -9.620  13.835  66.650  1.00  0.00    -0.280 NA 
HETATM   11  N   UNL     1     -11.659  13.525  65.492  1.00  0.00    -0.313 NA 
HETATM   12  N   UNL     1     -12.956  12.255  63.640  1.00  0.00    -0.792 NA 
HETATM   13  H   UNL     1     -12.058  14.394  65.848  1.00  0.00     0.000 HD 
HETATM   14  C   UNL     1     -12.376  12.792  64.486  1.00  0.00    -0.445 C  
HETATM   15  H   UNL     1      -8.812  13.370  67.064  1.00  0.00     0.000 HD 
BRANCH  10  16
HETATM   16  C   UNL     1      -9.736  15.228  66.844  1.00  0.00    -0.233 A  
HETATM   17  C   UNL     1      -8.837  16.020  66.136  1.00  0.00    -0.366 A  
HETATM   18  C   UNL     1      -8.920  17.399  66.241  1.00  0.00    -0.208 A  
HETATM   19  N   UNL     1      -9.834  18.034  67.001  1.00  0.00    -0.305 NA 
HETATM   20  C   UNL     1     -10.720  17.253  67.653  1.00  0.00    -0.307 A  
HETATM   21  C   UNL     1     -10.722  15.867  67.593  1.00  0.00    -0.312 A  
ENDBRANCH  10  16
ENDBRANCH   2   7
TORSDOF 3
ENDMDL
MODEL       54
REMARK 921   NORMALIZED FREE ENERGY PREDICTED BY IDOCK:   -4.46 KCAL/MOL
REMARK 922        TOTAL FREE ENERGY PREDICTED BY IDOCK:   -5.67 KCAL/MOL
REMARK 923 INTER-LIGAND FREE ENERGY PREDICTED BY IDOCK:   -6.47 KCAL/MOL
REMARK 924 INTRA-LIGAND FREE ENERGY PREDICTED BY IDOCK:    0.80 KCAL/MOL
REMARK 927      BINDING AFFINITY PREDICTED BY RF-SCORE:    0.00 PKD
ROOT
HETATM    1  C   UNL     1     -11.194  16.385  70.930  1.00  0.00    -0.167 C  
HETATM    2  C   UNL     1     -12.346  15.508  70.429  1.00  0.00    -0.413 C  
ENDROOT
BRANCH   2   3
HETATM    3  C   UNL     1     -12.836  14.435  71.470  1.00  0.00    -0.411 C  
HETATM    4  C   UNL     1     -12.454  13.016  70.987  1.00  0.00    -0.385 C  
HETATM    5  C   UNL     1     -14.375  14.477  71.593  1.00  0.00    -0.562 C  
HETATM    6  C   UNL     1     -12.242  14.641  72.877  1.00  0.00    -0.264 C  
ENDBRANCH   2   3
BRANCH   2   7
HETATM    7  N   UNL     1     -11.977  14.863  69.162  1.00  0.00    -0.448 NA 
HETATM    8  H   UNL     1     -12.296  13.910  68.989  1.00  0.00     0.000 HD 
HETATM    9  C   UNL     1     -11.220  15.488  68.198  1.00  0.00    -0.343 C  
HETATM   10  N   UNL     1     -10.511  16.535  68.508  1.00  0.00    -0.282 NA 
HETATM   11  N   UNL     1     -11.400  15.014  66.928  1.00  0.00    -0.331 NA 
HETATM   12  N   UNL     1     -12.222  12.607  66.428  1.00  0.00    -0.543 NA 
HETATM   13  H   UNL     1     -11.184  15.623  66.138  1.00  0.00     0.000 HD 
HETATM   14  C   UNL     1     -11.884  13.687  66.672  1.00  0.00    -0.409 C  
HETATM   15  H   UNL     1     -10.546  16.854  69.476  1.00  0.00     0.000 HD 
BRANCH  10  16
HETATM   16  C   UNL     1      -9.700  17.265  67.614  1.00  0.00    -0.272 A  
HETATM   17  C   UNL     1     -10.025  18.609  67.452  1.00  0.00    -0.364 A  
HETATM   18  C   UNL     1      -9.245  19.400  66.625  1.00  0.00    -0.342 A  
HETATM   19  N   UNL     1      -8.169  18.942  65.954  1.00  0.00    -0.466 NA 
HETATM   20  C   UNL     1      -7.846  17.646  66.150  1.00  0.00    -0.234 A  
HETATM   21  C   UNL     1      -8.560  16.786  66.971  1.00  0.00    -0.233 A  
ENDBRANCH  10  16
ENDBRANCH   2   7
TORSDOF 3
ENDMDL
MODEL       55
REMARK 921   NORMALIZED FREE ENERGY PREDICTED BY IDOCK:   -4.42 KCAL/MOL
REMARK 922        TOTAL FREE ENERGY PREDICTED BY IDOCK:   -5.62 KCAL/MOL
REMARK 923 INTER-LIGAND FREE ENERGY PREDICTED BY IDOCK:   -5.21 KCAL/MOL
REMARK 924 INTRA-LIGAND FREE ENERGY PREDICTED BY IDOCK:   -0.41 KCAL/MOL
REMARK 927      BINDING AFFINITY PREDICTED BY RF-SCORE:    0.00 PKD
ROOT
HETATM    1  C   UNL     1     -11.358   8.153  72.447  1.00  0.00    -0.456 C  
HETATM    2  C   UNL     1     -10.842   8.033  71.011  1.00  0.00    -0.235 C  
ENDROOT
BRANCH   2   3
HETATM    3  C   UNL     1     -10.381   6.583  70.612  1.00  0.00    -0.239 C  
HETATM    4  C   UNL     1     -10.990   5.547  71.584  1.00  0.00    -0.238 C  
HETATM    5  C   UNL     1      -8.844   6.464  70.720  1.00  0.00    -0.144 C  
HETATM    6  C   UNL     1     -10.786   6.193  69.176  1.00  0.00    -0.381 C  
ENDBRANCH   2   3
BRANCH   2   7
HETATM    7  N   UNL     1      -9.757   8.997  70.781  1.00  0.00    -0.224 NA 
HETATM    8  H   UNL     1      -8.871   8.859  71.267  1.00  0.00     0.000 HD 
HETATM    9  C   UNL     1      -9.884  10.078  69.939  1.00  0.00    -0.224 C  
HETATM   10  N   UNL     1     -11.067  10.488  69.583  1.00  0.00    -0.263 NA 
HETATM   11  N   UNL     1      -8.707  10.549  69.427  1.00  0.00    -0.328 NA 
HETATM   12  N   UNL     1      -6.424  10.217  70.611  1.00  0.00    -0.280 NA 
HETATM   13  H   UNL     1      -8.723  11.073  68.552  1.00  0.00     0.000 HD 
HETATM   14  C   UNL     1      -7.448  10.330  70.083  1.00  0.00    -0.070 C  
HETATM   15  H   UNL     1     -11.869   9.980  69.955  1.00  0.00     0.000 HD 
BRANCH  10  16
HETATM   16  C   UNL     1     -11.330  11.576  68.725  1.00  0.00    -0.265 A  
HETATM   17  C   UNL     1     -11.296  11.301  67.361  1.00  0.00    -0.349 A  
HETATM   18  C   UNL     1     -11.588  12.311  66.459  1.00  0.00    -0.377 A  
HETATM   19  N   UNL     1     -11.911  13.567  66.826  1.00  0.00    -0.400 NA 
HETATM   20  C   UNL     1     -11.975  13.808  68.152  1.00  0.00    -0.358 A  
HETATM   21  C   UNL     1     -11.714  12.855  69.125  1.00  0.00    -0.376 A  
ENDBRANCH  10  16
ENDBRANCH   2   7
TORSDOF 3
ENDMDL
MODEL       56
REMARK 921   NORMALIZED FREE ENERGY PREDICTED BY IDOCK:   -4.42 KCAL/MOL
REMARK 922        TOTAL FREE ENERGY PREDICTED BY IDOCK:   -5.62 KCAL/MOL
REMARK 923 INTER-LIGAND FREE ENERGY PREDICTED BY IDOCK:   -6.23 KCAL/MOL
REMARK 924 INTRA-LIGAND FREE ENERGY PREDICTED BY IDOCK:    0.61 KCAL/MOL
REMARK 927      BINDING AFFINITY PREDICTED BY RF-SCORE:    0.00 PKD
ROOT
HETATM    1  C   UNL     1     -10.713   9.483  68.960  1.00  0.00    -0.224 C  
HETATM    2  C   UNL     1     -10.766   9.841  70.448  1.00  0.00    -0.308 C  
ENDROOT
BRANCH   2   3
HETATM    3  C   UNL     1     -11.162   8.642  71.385  1.00  0.00    -0.345 C  
HETATM    4  C   UNL     1     -11.454   7.382  70.538  1.00  0.00    -0.281 C  
HETATM    5  C   UNL     1     -12.453   8.979  72.164  1.00  0.00    -0.450 C  
HETATM    6  C   UNL     1     -10.069   8.289  72.413  1.00  0.00    -0.383 C  
ENDBRANCH   2   3
BRANCH   2   7
HETATM    7  N   UNL     1     -11.669  10.980  70.662  1.00  0.00    -0.393 NA 
HETATM    8  H   UNL     1     -12.296  10.960  71.466  1.00  0.00     0.000 HD 
HETATM    9  C   UNL     1     -11.707  12.072  69.826  1.00  0.00    -0.319 C  
HETATM   10  N   UNL     1     -11.200  11.990  68.630  1.00  0.00    -0.236 NA 
HETATM   11  N   UNL     1     -12.164  13.223  70.404  1.00  0.00    -0.353 NA 
HETATM   12  N   UNL     1     -13.749  13.234  72.456  1.00  0.00    -0.695 NA 
HETATM   13  H   UNL     1     -11.891  14.120  70.003  1.00  0.00     0.000 HD 
HETATM   14  C   UNL     1     -13.019  13.209  71.559  1.00  0.00    -0.321 C  
HETATM   15  H   UNL     1     -10.790  11.098  68.355  1.00  0.00     0.000 HD 
BRANCH  10  16
HETATM   16  C   UNL     1     -11.172  13.035  67.682  1.00  0.00    -0.280 A  
HETATM   17  C   UNL     1     -10.025  13.824  67.676  1.00  0.00    -0.238 A  
HETATM   18  C   UNL     1      -9.907  14.841  66.743  1.00  0.00    -0.255 A  
HETATM   19  N   UNL     1     -10.850  15.120  65.823  1.00  0.00    -0.340 NA 
HETATM   20  C   UNL     1     -11.940  14.324  65.818  1.00  0.00    -0.393 A  
HETATM   21  C   UNL     1     -12.135  13.274  66.704  1.00  0.00    -0.421 A  
ENDBRANCH  10  16
ENDBRANCH   2   7
TORSDOF 3
ENDMDL
MODEL       57
REMARK 921   NORMALIZED FREE ENERGY PREDICTED BY IDOCK:   -4.42 KCAL/MOL
REMARK 922        TOTAL FREE ENERGY PREDICTED BY IDOCK:   -5.62 KCAL/MOL
REMARK 923 INTER-LIGAND FREE ENERGY PREDICTED BY IDOCK:   -5.12 KCAL/MOL
REMARK 924 INTRA-LIGAND FREE ENERGY PREDICTED BY IDOCK:   -0.50 KCAL/MOL
REMARK 927      BINDING AFFINITY PREDICTED BY RF-SCORE:    0.00 PKD
ROOT
HETATM    1  C   UNL     1     -12.140  14.097  68.508  1.00  0.00    -0.312 C  
HETATM    2  C   UNL     1     -11.014  13.889  67.491  1.00  0.00    -0.276 C  
ENDROOT
BRANCH   2   3
HETATM    3  C   UNL     1     -10.365  15.223  66.968  1.00  0.00    -0.277 C  
HETATM    4  C   UNL     1     -10.796  16.408  67.862  1.00  0.00    -0.328 C  
HETATM    5  C   UNL     1     -10.856  15.528  65.536  1.00  0.00    -0.372 C  
HETATM    6  C   UNL     1      -8.824  15.175  66.940  1.00  0.00    -0.284 C  
ENDBRANCH   2   3
BRANCH   2   7
HETATM    7  N   UNL     1     -11.494  13.076  66.365  1.00  0.00    -0.324 NA 
HETATM    8  H   UNL     1     -12.235  13.452  65.773  1.00  0.00     0.000 HD 
HETATM    9  C   UNL     1     -10.987  11.831  66.073  1.00  0.00    -0.306 C  
HETATM   10  N   UNL     1     -10.315  11.176  66.975  1.00  0.00    -0.214 NA 
HETATM   11  N   UNL     1     -11.125  11.445  64.769  1.00  0.00    -0.239 NA 
HETATM   12  N   UNL     1     -12.980  12.375  63.214  1.00  0.00    -0.621 NA 
HETATM   13  H   UNL     1     -10.486  10.746  64.390  1.00  0.00     0.000 HD 
HETATM   14  C   UNL     1     -12.141  11.994  63.915  1.00  0.00    -0.457 C  
HETATM   15  H   UNL     1     -10.192  11.624  67.883  1.00  0.00     0.000 HD 
BRANCH  10  16
HETATM   16  C   UNL     1      -9.743   9.899  66.800  1.00  0.00    -0.192 A  
HETATM   17  C   UNL     1      -8.379   9.873  66.520  1.00  0.00    -0.125 A  
HETATM   18  C   UNL     1      -7.739   8.653  66.380  1.00  0.00    -0.095 A  
HETATM   19  N   UNL     1      -8.365   7.466  66.501  1.00  0.00    -0.119 NA 
HETATM   20  C   UNL     1      -9.678   7.507  66.808  1.00  0.00    -0.216 A  
HETATM   21  C   UNL     1     -10.396   8.682  66.982  1.00  0.00    -0.368 A  
ENDBRANCH  10  16
ENDBRANCH   2   7
TORSDOF 3
ENDMDL
MODEL       58
REMARK 921   NORMALIZED FREE ENERGY PREDICTED BY IDOCK:   -4.40 KCAL/MOL
REMARK 922        TOTAL FREE ENERGY PREDICTED BY IDOCK:   -5.61 KCAL/MOL
REMARK 923 INTER-LIGAND FREE ENERGY PREDICTED BY IDOCK:   -5.46 KCAL/MOL
REMARK 924 INTRA-LIGAND FREE ENERGY PREDICTED BY IDOCK:   -0.14 KCAL/MOL
REMARK 927      BINDING AFFINITY PREDICTED BY RF-SCORE:    0.00 PKD
ROOT
HETATM    1  C   UNL     1     -12.137  14.852  68.868  1.00  0.00    -0.229 C  
HETATM    2  C   UNL     1     -10.755  14.194  68.837  1.00  0.00    -0.256 C  
ENDROOT
BRANCH   2   3
HETATM    3  C   UNL     1      -9.628  15.095  68.209  1.00  0.00    -0.211 C  
HETATM    4  C   UNL     1      -8.672  15.597  69.316  1.00  0.00    -0.267 C  
HETATM    5  C   UNL     1     -10.252  16.341  67.543  1.00  0.00    -0.270 C  
HETATM    6  C   UNL     1      -8.789  14.360  67.145  1.00  0.00    -0.244 C  
ENDBRANCH   2   3
BRANCH   2   7
HETATM    7  N   UNL     1     -10.825  12.902  68.142  1.00  0.00    -0.227 NA 
HETATM    8  H   UNL     1     -10.718  12.887  67.128  1.00  0.00     0.000 HD 
HETATM    9  C   UNL     1     -11.028  11.710  68.799  1.00  0.00    -0.226 C  
HETATM   10  N   UNL     1     -11.510  11.710  70.008  1.00  0.00    -0.484 NA 
HETATM   11  N   UNL     1     -10.556  10.606  68.146  1.00  0.00    -0.187 NA 
HETATM   12  N   UNL     1     -10.250  10.515  65.573  1.00  0.00    -0.272 NA 
HETATM   13  H   UNL     1     -10.331   9.770  68.687  1.00  0.00     0.000 HD 
HETATM   14  C   UNL     1     -10.366  10.585  66.723  1.00  0.00    -0.245 C  
HETATM   15  H   UNL     1     -11.725  12.615  70.426  1.00  0.00     0.000 HD 
BRANCH  10  16
HETATM   16  C   UNL     1     -11.760  10.561  70.788  1.00  0.00    -0.356 A  
HETATM   17  C   UNL     1     -13.093  10.316  71.106  1.00  0.00    -0.481 A  
HETATM   18  C   UNL     1     -13.419   9.182  71.830  1.00  0.00    -0.430 A  
HETATM   19  N   UNL     1     -12.510   8.283  72.255  1.00  0.00    -0.346 NA 
HETATM   20  C   UNL     1     -11.227   8.515  71.908  1.00  0.00    -0.327 A  
HETATM   21  C   UNL     1     -10.811   9.615  71.172  1.00  0.00    -0.404 A  
ENDBRANCH  10  16
ENDBRANCH   2   7
TORSDOF 3
ENDMDL
MODEL       59
REMARK 921   NORMALIZED FREE ENERGY PREDICTED BY IDOCK:   -4.35 KCAL/MOL
REMARK 922        TOTAL FREE ENERGY PREDICTED BY IDOCK:   -5.54 KCAL/MOL
REMARK 923 INTER-LIGAND FREE ENERGY PREDICTED BY IDOCK:   -6.23 KCAL/MOL
REMARK 924 INTRA-LIGAND FREE ENERGY PREDICTED BY IDOCK:    0.69 KCAL/MOL
REMARK 927      BINDING AFFINITY PREDICTED BY RF-SCORE:    0.00 PKD
ROOT
HETATM    1  C   UNL     1     -11.877  12.903  69.354  1.00  0.00    -0.371 C  
HETATM    2  C   UNL     1     -11.890  11.649  68.476  1.00  0.00    -0.292 C  
ENDROOT
BRANCH   2   3
HETATM    3  C   UNL     1     -10.732  10.631  68.790  1.00  0.00    -0.249 C  
HETATM    4  C   UNL     1     -10.745   9.479  67.759  1.00  0.00    -0.302 C  
HETATM    5  C   UNL     1     -10.942  10.001  70.185  1.00  0.00    -0.368 C  
HETATM    6  C   UNL     1      -9.334  11.280  68.770  1.00  0.00    -0.136 C  
ENDBRANCH   2   3
BRANCH   2   7
HETATM    7  N   UNL     1     -11.870  12.026  67.056  1.00  0.00    -0.611 NA 
HETATM    8  H   UNL     1     -12.206  11.351  66.368  1.00  0.00     0.000 HD 
HETATM    9  C   UNL     1     -11.420  13.248  66.613  1.00  0.00    -0.347 C  
HETATM   10  N   UNL     1     -10.674  13.983  67.387  1.00  0.00    -0.281 NA 
HETATM   11  N   UNL     1     -11.932  13.649  65.411  1.00  0.00    -0.357 NA 
HETATM   12  N   UNL     1     -12.812  11.982  63.630  1.00  0.00    -0.746 NA 
HETATM   13  H   UNL     1     -11.954  14.644  65.190  1.00  0.00     0.000 HD 
HETATM   14  C   UNL     1     -12.441  12.711  64.449  1.00  0.00    -0.428 C  
HETATM   15  H   UNL     1     -10.448  13.612  68.309  1.00  0.00     0.000 HD 
BRANCH  10  16
HETATM   16  C   UNL     1     -10.154  15.252  67.053  1.00  0.00    -0.248 A  
HETATM   17  C   UNL     1     -10.855  16.349  67.548  1.00  0.00    -0.249 A  
HETATM   18  C   UNL     1     -10.378  17.625  67.299  1.00  0.00    -0.354 A  
HETATM   19  N   UNL     1      -9.256  17.877  66.595  1.00  0.00    -0.271 NA 
HETATM   20  C   UNL     1      -8.570  16.803  66.154  1.00  0.00    -0.264 A  
HETATM   21  C   UNL     1      -8.964  15.490  66.369  1.00  0.00    -0.359 A  
ENDBRANCH  10  16
ENDBRANCH   2   7
TORSDOF 3
ENDMDL
MODEL       60
REMARK 921   NORMALIZED FREE ENERGY PREDICTED BY IDOCK:   -4.34 KCAL/MOL
REMARK 922        TOTAL FREE ENERGY PREDICTED BY IDOCK:   -5.52 KCAL/MOL
REMARK 923 INTER-LIGAND FREE ENERGY PREDICTED BY IDOCK:   -5.30 KCAL/MOL
REMARK 924 INTRA-LIGAND FREE ENERGY PREDICTED BY IDOCK:   -0.22 KCAL/MOL
REMARK 927      BINDING AFFINITY PREDICTED BY RF-SCORE:    0.00 PKD
ROOT
HETATM    1  C   UNL     1      -6.139  16.561  66.890  1.00  0.00    -0.116 C  
HETATM    2  C   UNL     1      -6.971  17.546  66.063  1.00  0.00    -0.261 C  
ENDROOT
BRANCH   2   3
HETATM    3  C   UNL     1      -6.216  18.876  65.696  1.00  0.00    -0.279 C  
HETATM    4  C   UNL     1      -7.232  20.022  65.489  1.00  0.00    -0.307 C  
HETATM    5  C   UNL     1      -5.446  18.702  64.368  1.00  0.00    -0.191 C  
HETATM    6  C   UNL     1      -5.206  19.316  66.774  1.00  0.00    -0.163 C  
ENDBRANCH   2   3
BRANCH   2   7
HETATM    7  N   UNL     1      -8.233  17.846  66.753  1.00  0.00    -0.241 NA 
HETATM    8  H   UNL     1      -8.238  18.580  67.461  1.00  0.00     0.000 HD 
HETATM    9  C   UNL     1      -9.407  17.181  66.486  1.00  0.00    -0.265 C  
HETATM   10  N   UNL     1      -9.378  16.034  65.870  1.00  0.00    -0.358 NA 
HETATM   11  N   UNL     1     -10.544  17.880  66.781  1.00  0.00    -0.296 NA 
HETATM   12  N   UNL     1     -10.616  19.764  68.561  1.00  0.00    -0.217 NA 
HETATM   13  H   UNL     1     -11.411  17.641  66.298  1.00  0.00     0.000 HD 
HETATM   14  C   UNL     1     -10.557  18.940  67.750  1.00  0.00    -0.398 C  
HETATM   15  H   UNL     1      -8.463  15.668  65.607  1.00  0.00     0.000 HD 
BRANCH  10  16
HETATM   16  C   UNL     1     -10.507  15.258  65.535  1.00  0.00    -0.374 A  
HETATM   17  C   UNL     1     -11.192  14.684  66.602  1.00  0.00    -0.349 A  
HETATM   18  C   UNL     1     -12.337  13.946  66.354  1.00  0.00    -0.426 A  
HETATM   19  N   UNL     1     -12.840  13.744  65.120  1.00  0.00    -0.748 NA 
HETATM   20  C   UNL     1     -12.185  14.335  64.100  1.00  0.00    -0.378 A  
HETATM   21  C   UNL     1     -11.041  15.105  64.257  1.00  0.00     0.064 A  
ENDBRANCH  10  16
ENDBRANCH   2   7
TORSDOF 3
ENDMDL
MODEL       61
REMARK 921   NORMALIZED FREE ENERGY PREDICTED BY IDOCK:   -4.33 KCAL/MOL
REMARK 922        TOTAL FREE ENERGY PREDICTED BY IDOCK:   -5.52 KCAL/MOL
REMARK 923 INTER-LIGAND FREE ENERGY PREDICTED BY IDOCK:   -6.44 KCAL/MOL
REMARK 924 INTRA-LIGAND FREE ENERGY PREDICTED BY IDOCK:    0.92 KCAL/MOL
REMARK 927      BINDING AFFINITY PREDICTED BY RF-SCORE:    0.00 PKD
ROOT
HETATM    1  C   UNL     1     -12.573  10.703  70.037  1.00  0.00    -0.232 C  
HETATM    2  C   UNL     1     -11.735  10.750  68.756  1.00  0.00    -0.245 C  
ENDROOT
BRANCH   2   3
HETATM    3  C   UNL     1     -10.341  10.032  68.873  1.00  0.00    -0.217 C  
HETATM    4  C   UNL     1      -9.234  10.922  68.262  1.00  0.00    -0.161 C  
HETATM    5  C   UNL     1     -10.355   8.708  68.078  1.00  0.00    -0.277 C  
HETATM    6  C   UNL     1      -9.949   9.706  70.328  1.00  0.00    -0.326 C  
ENDBRANCH   2   3
BRANCH   2   7
HETATM    7  N   UNL     1     -11.561  12.141  68.317  1.00  0.00    -0.305 NA 
HETATM    8  H   UNL     1     -11.136  12.315  67.406  1.00  0.00     0.000 HD 
HETATM    9  C   UNL     1     -11.945  13.220  69.079  1.00  0.00    -0.293 C  
HETATM   10  N   UNL     1     -12.157  13.070  70.355  1.00  0.00    -0.468 NA 
HETATM   11  N   UNL     1     -12.213  14.359  68.371  1.00  0.00    -0.605 NA 
HETATM   12  N   UNL     1     -11.173  14.848  66.047  1.00  0.00    -0.338 NA 
HETATM   13  H   UNL     1     -12.832  15.060  68.779  1.00  0.00     0.000 HD 
HETATM   14  C   UNL     1     -11.650  14.598  67.072  1.00  0.00    -0.371 C  
HETATM   15  H   UNL     1     -12.023  12.137  70.745  1.00  0.00     0.000 HD 
BRANCH  10  16
HETATM   16  C   UNL     1     -12.557  14.092  71.242  1.00  0.00    -0.367 A  
HETATM   17  C   UNL     1     -11.565  14.989  71.628  1.00  0.00    -0.416 A  
HETATM   18  C   UNL     1     -11.894  16.045  72.461  1.00  0.00    -0.525 A  
HETATM   19  N   UNL     1     -13.139  16.263  72.931  1.00  0.00    -0.318 NA 
HETATM   20  C   UNL     1     -14.096  15.406  72.519  1.00  0.00    -0.499 A  
HETATM   21  C   UNL     1     -13.860  14.331  71.673  1.00  0.00    -0.473 A  
ENDBRANCH  10  16
ENDBRANCH   2   7
TORSDOF 3
ENDMDL
MODEL       62
REMARK 921   NORMALIZED FREE ENERGY PREDICTED BY IDOCK:   -4.30 KCAL/MOL
REMARK 922        TOTAL FREE ENERGY PREDICTED BY IDOCK:   -5.48 KCAL/MOL
REMARK 923 INTER-LIGAND FREE ENERGY PREDICTED BY IDOCK:   -5.45 KCAL/MOL
REMARK 924 INTRA-LIGAND FREE ENERGY PREDICTED BY IDOCK:   -0.03 KCAL/MOL
REMARK 927      BINDING AFFINITY PREDICTED BY RF-SCORE:    0.00 PKD
ROOT
HETATM    1  C   UNL     1     -11.777   6.591  70.046  1.00  0.00    -0.388 C  
HETATM    2  C   UNL     1     -10.813   7.730  70.388  1.00  0.00    -0.244 C  
ENDROOT
BRANCH   2   3
HETATM    3  C   UNL     1      -9.937   7.469  71.668  1.00  0.00    -0.200 C  
HETATM    4  C   UNL     1      -9.540   5.977  71.744  1.00  0.00    -0.168 C  
HETATM    5  C   UNL     1     -10.747   7.793  72.943  1.00  0.00    -0.446 C  
HETATM    6  C   UNL     1      -8.647   8.313  71.700  1.00  0.00    -0.202 C  
ENDBRANCH   2   3
BRANCH   2   7
HETATM    7  N   UNL     1     -11.550   8.994  70.520  1.00  0.00    -0.401 NA 
HETATM    8  H   UNL     1     -12.159   9.121  71.328  1.00  0.00     0.000 HD 
HETATM    9  C   UNL     1     -11.455  10.014  69.601  1.00  0.00    -0.155 C  
HETATM   10  N   UNL     1     -10.987   9.773  68.410  1.00  0.00    -0.427 NA 
HETATM   11  N   UNL     1     -11.742  11.258  70.091  1.00  0.00    -0.346 NA 
HETATM   12  N   UNL     1     -13.271  11.642  72.149  1.00  0.00    -0.409 NA 
HETATM   13  H   UNL     1     -11.357  12.076  69.618  1.00  0.00     0.000 HD 
HETATM   14  C   UNL     1     -12.568  11.448  71.250  1.00  0.00    -0.374 C  
HETATM   15  H   UNL     1     -10.707   8.815  68.203  1.00  0.00     0.000 HD 
BRANCH  10  16
HETATM   16  C   UNL     1     -10.836  10.729  67.384  1.00  0.00    -0.290 A  
HETATM   17  C   UNL     1      -9.804  10.495  66.479  1.00  0.00    -0.255 A  
HETATM   18  C   UNL     1      -9.624  11.367  65.418  1.00  0.00    -0.228 A  
HETATM   19  N   UNL     1     -10.399  12.448  65.202  1.00  0.00    -0.282 NA 
HETATM   20  C   UNL     1     -11.416  12.641  66.067  1.00  0.00    -0.368 A  
HETATM   21  C   UNL     1     -11.681  11.811  67.147  1.00  0.00    -0.267 A  
ENDBRANCH  10  16
ENDBRANCH   2   7
TORSDOF 3
ENDMDL
MODEL       63
REMARK 921   NORMALIZED FREE ENERGY PREDICTED BY IDOCK:   -4.29 KCAL/MOL
REMARK 922        TOTAL FREE ENERGY PREDICTED BY IDOCK:   -5.48 KCAL/MOL
REMARK 923 INTER-LIGAND FREE ENERGY PREDICTED BY IDOCK:   -5.00 KCAL/MOL
REMARK 924 INTRA-LIGAND FREE ENERGY PREDICTED BY IDOCK:   -0.48 KCAL/MOL
REMARK 927      BINDING AFFINITY PREDICTED BY RF-SCORE:    0.00 PKD
ROOT
HETATM    1  C   UNL     1      -8.200  11.584  68.655  1.00  0.00    -0.124 C  
HETATM    2  C   UNL     1      -9.298  10.517  68.642  1.00  0.00    -0.172 C  
ENDROOT
BRANCH   2   3
HETATM    3  C   UNL     1     -10.016  10.350  67.253  1.00  0.00    -0.229 C  
HETATM    4  C   UNL     1     -11.342  11.144  67.243  1.00  0.00    -0.302 C  
HETATM    5  C   UNL     1     -10.370   8.866  67.012  1.00  0.00    -0.340 C  
HETATM    6  C   UNL     1      -9.158  10.830  66.066  1.00  0.00    -0.204 C  
ENDBRANCH   2   3
BRANCH   2   7
HETATM    7  N   UNL     1     -10.281  10.789  69.699  1.00  0.00    -0.436 NA 
HETATM    8  H   UNL     1     -10.670  11.729  69.772  1.00  0.00     0.000 HD 
HETATM    9  C   UNL     1     -10.701   9.832  70.594  1.00  0.00    -0.326 C  
HETATM   10  N   UNL     1      -9.996   8.750  70.765  1.00  0.00    -0.199 NA 
HETATM   11  N   UNL     1     -11.936  10.053  71.136  1.00  0.00    -0.362 NA 
HETATM   12  N   UNL     1     -12.982  12.417  71.336  1.00  0.00    -0.321 NA 
HETATM   13  H   UNL     1     -12.467   9.261  71.498  1.00  0.00     0.000 HD 
HETATM   14  C   UNL     1     -12.511  11.367  71.212  1.00  0.00    -0.318 C  
HETATM   15  H   UNL     1      -9.141   8.658  70.217  1.00  0.00     0.000 HD 
BRANCH  10  16
HETATM   16  C   UNL     1     -10.319   7.697  71.646  1.00  0.00    -0.189 A  
HETATM   17  C   UNL     1      -9.725   7.747  72.904  1.00  0.00    -0.310 A  
HETATM   18  C   UNL     1     -10.030   6.771  73.837  1.00  0.00    -0.311 A  
HETATM   19  N   UNL     1     -10.883   5.755  73.600  1.00  0.00    -0.249 NA 
HETATM   20  C   UNL     1     -11.478   5.739  72.389  1.00  0.00    -0.288 A  
HETATM   21  C   UNL     1     -11.244   6.684  71.400  1.00  0.00    -0.318 A  
ENDBRANCH  10  16
ENDBRANCH   2   7
TORSDOF 3
ENDMDL
MODEL       64
REMARK 921   NORMALIZED FREE ENERGY PREDICTED BY IDOCK:   -4.28 KCAL/MOL
REMARK 922        TOTAL FREE ENERGY PREDICTED BY IDOCK:   -5.46 KCAL/MOL
REMARK 923 INTER-LIGAND FREE ENERGY PREDICTED BY IDOCK:   -4.97 KCAL/MOL
REMARK 924 INTRA-LIGAND FREE ENERGY PREDICTED BY IDOCK:   -0.49 KCAL/MOL
REMARK 927      BINDING AFFINITY PREDICTED BY RF-SCORE:    0.00 PKD
ROOT
HETATM    1  C   UNL     1     -11.226   6.608  69.695  1.00  0.00    -0.397 C  
HETATM    2  C   UNL     1     -10.387   7.869  69.924  1.00  0.00    -0.224 C  
ENDROOT
BRANCH   2   3
HETATM    3  C   UNL     1      -9.304   7.723  71.055  1.00  0.00    -0.160 C  
HETATM    4  C   UNL     1      -9.859   8.261  72.394  1.00  0.00    -0.375 C  
HETATM    5  C   UNL     1      -8.055   8.564  70.707  1.00  0.00    -0.128 C  
HETATM    6  C   UNL     1      -8.848   6.267  71.273  1.00  0.00    -0.139 C  
ENDBRANCH   2   3
BRANCH   2   7
HETATM    7  N   UNL     1     -11.263   9.016  70.198  1.00  0.00    -0.364 NA 
HETATM    8  H   UNL     1     -11.985   8.919  70.911  1.00  0.00     0.000 HD 
HETATM    9  C   UNL     1     -11.151  10.216  69.534  1.00  0.00    -0.250 C  
HETATM   10  N   UNL     1     -10.504  10.276  68.406  1.00  0.00    -0.189 NA 
HETATM   11  N   UNL     1     -11.630  11.299  70.218  1.00  0.00    -0.445 NA 
HETATM   12  N   UNL     1     -13.455  11.112  72.050  1.00  0.00    -0.300 NA 
HETATM   13  H   UNL     1     -11.272  12.226  69.989  1.00  0.00     0.000 HD 
HETATM   14  C   UNL     1     -12.620  11.171  71.250  1.00  0.00    -0.398 C  
HETATM   15  H   UNL     1     -10.100   9.409  68.052  1.00  0.00     0.000 HD 
BRANCH  10  16
HETATM   16  C   UNL     1     -10.315  11.441  67.633  1.00  0.00    -0.183 A  
HETATM   17  C   UNL     1     -11.364  11.789  66.787  1.00  0.00    -0.385 A  
HETATM   18  C   UNL     1     -11.270  12.946  66.031  1.00  0.00    -0.293 A  
HETATM   19  N   UNL     1     -10.205  13.772  66.064  1.00  0.00    -0.301 NA 
HETATM   20  C   UNL     1      -9.213  13.440  66.915  1.00  0.00    -0.248 A  
HETATM   21  C   UNL     1      -9.230  12.310  67.721  1.00  0.00    -0.191 A  
ENDBRANCH  10  16
ENDBRANCH   2   7
TORSDOF 3
ENDMDL
MODEL       65
REMARK 921   NORMALIZED FREE ENERGY PREDICTED BY IDOCK:   -4.27 KCAL/MOL
REMARK 922        TOTAL FREE ENERGY PREDICTED BY IDOCK:   -5.45 KCAL/MOL
REMARK 923 INTER-LIGAND FREE ENERGY PREDICTED BY IDOCK:   -4.96 KCAL/MOL
REMARK 924 INTRA-LIGAND FREE ENERGY PREDICTED BY IDOCK:   -0.49 KCAL/MOL
REMARK 927      BINDING AFFINITY PREDICTED BY RF-SCORE:    0.00 PKD
ROOT
HETATM    1  C   UNL     1     -11.556  15.745  68.471  1.00  0.00    -0.367 C  
HETATM    2  C   UNL     1     -10.570  15.235  67.416  1.00  0.00    -0.282 C  
ENDROOT
BRANCH   2   3
HETATM    3  C   UNL     1     -10.095  16.334  66.396  1.00  0.00    -0.318 C  
HETATM    4  C   UNL     1     -10.829  16.157  65.047  1.00  0.00    -0.380 C  
HETATM    5  C   UNL     1      -8.583  16.183  66.117  1.00  0.00    -0.331 C  
HETATM    6  C   UNL     1     -10.343  17.771  66.895  1.00  0.00    -0.344 C  
ENDBRANCH   2   3
BRANCH   2   7
HETATM    7  N   UNL     1     -11.141  14.085  66.703  1.00  0.00    -0.304 NA 
HETATM    8  H   UNL     1     -12.053  14.192  66.258  1.00  0.00     0.000 HD 
HETATM    9  C   UNL     1     -10.501  12.871  66.608  1.00  0.00    -0.263 C  
HETATM   10  N   UNL     1      -9.535  12.581  67.431  1.00  0.00    -0.180 NA 
HETATM   11  N   UNL     1     -10.863  12.113  65.529  1.00  0.00    -0.274 NA 
HETATM   12  N   UNL     1     -13.159  12.349  64.349  1.00  0.00    -0.811 NA 
HETATM   13  H   UNL     1     -10.213  11.408  65.181  1.00  0.00     0.000 HD 
HETATM   14  C   UNL     1     -12.128  12.278  64.871  1.00  0.00    -0.356 C  
HETATM   15  H   UNL     1      -9.289  13.283  68.129  1.00  0.00     0.000 HD 
BRANCH  10  16
HETATM   16  C   UNL     1      -8.799  11.377  67.435  1.00  0.00    -0.150 A  
HETATM   17  C   UNL     1      -9.334  10.337  68.190  1.00  0.00    -0.144 A  
HETATM   18  C   UNL     1      -8.691   9.111  68.205  1.00  0.00    -0.129 A  
HETATM   19  N   UNL     1      -7.558   8.856  67.521  1.00  0.00    -0.092 NA 
HETATM   20  C   UNL     1      -7.072   9.863  66.766  1.00  0.00    -0.090 A  
HETATM   21  C   UNL     1      -7.658  11.117  66.678  1.00  0.00    -0.147 A  
ENDBRANCH  10  16
ENDBRANCH   2   7
TORSDOF 3
ENDMDL
MODEL       66
REMARK 921   NORMALIZED FREE ENERGY PREDICTED BY IDOCK:   -4.24 KCAL/MOL
REMARK 922        TOTAL FREE ENERGY PREDICTED BY IDOCK:   -5.42 KCAL/MOL
REMARK 923 INTER-LIGAND FREE ENERGY PREDICTED BY IDOCK:   -6.60 KCAL/MOL
REMARK 924 INTRA-LIGAND FREE ENERGY PREDICTED BY IDOCK:    1.18 KCAL/MOL
REMARK 927      BINDING AFFINITY PREDICTED BY RF-SCORE:    0.00 PKD
ROOT
HETATM    1  C   UNL     1     -11.971  12.639  67.951  1.00  0.00    -0.307 C  
HETATM    2  C   UNL     1     -11.802  14.063  68.487  1.00  0.00    -0.364 C  
ENDROOT
BRANCH   2   3
HETATM    3  C   UNL     1     -10.360  14.660  68.285  1.00  0.00    -0.230 C  
HETATM    4  C   UNL     1      -9.339  13.518  68.075  1.00  0.00    -0.213 C  
HETATM    5  C   UNL     1      -9.924  15.437  69.547  1.00  0.00    -0.266 C  
HETATM    6  C   UNL     1     -10.265  15.619  67.082  1.00  0.00    -0.270 C  
ENDBRANCH   2   3
BRANCH   2   7
HETATM    7  N   UNL     1     -12.186  14.120  69.904  1.00  0.00    -0.346 NA 
HETATM    8  H   UNL     1     -12.301  15.034  70.342  1.00  0.00     0.000 HD 
HETATM    9  C   UNL     1     -12.397  12.994  70.667  1.00  0.00    -0.310 C  
HETATM   10  N   UNL     1     -11.932  11.845  70.269  1.00  0.00    -0.423 NA 
HETATM   11  N   UNL     1     -13.226  13.173  71.739  1.00  0.00    -0.421 NA 
HETATM   12  N   UNL     1     -13.570  15.474  72.884  1.00  0.00    -0.537 NA 
HETATM   13  H   UNL     1     -13.718  12.366  72.123  1.00  0.00     0.000 HD 
HETATM   14  C   UNL     1     -13.425  14.461  72.341  1.00  0.00    -0.462 C  
HETATM   15  H   UNL     1     -11.416  11.828  69.390  1.00  0.00     0.000 HD 
BRANCH  10  16
HETATM   16  C   UNL     1     -12.084  10.621  70.955  1.00  0.00    -0.385 A  
HETATM   17  C   UNL     1     -10.937   9.840  71.072  1.00  0.00    -0.402 A  
HETATM   18  C   UNL     1     -11.000   8.647  71.772  1.00  0.00    -0.326 A  
HETATM   19  N   UNL     1     -12.122   8.185  72.358  1.00  0.00    -0.359 NA 
HETATM   20  C   UNL     1     -13.215   8.970  72.266  1.00  0.00    -0.460 A  
HETATM   21  C   UNL     1     -13.240  10.187  71.599  1.00  0.00    -0.518 A  
ENDBRANCH  10  16
ENDBRANCH   2   7
TORSDOF 3
ENDMDL
MODEL       67
REMARK 921   NORMALIZED FREE ENERGY PREDICTED BY IDOCK:   -4.24 KCAL/MOL
REMARK 922        TOTAL FREE ENERGY PREDICTED BY IDOCK:   -5.41 KCAL/MOL
REMARK 923 INTER-LIGAND FREE ENERGY PREDICTED BY IDOCK:   -5.17 KCAL/MOL
REMARK 924 INTRA-LIGAND FREE ENERGY PREDICTED BY IDOCK:   -0.24 KCAL/MOL
REMARK 927      BINDING AFFINITY PREDICTED BY RF-SCORE:    0.00 PKD
ROOT
HETATM    1  C   UNL     1     -11.343   6.282  69.503  1.00  0.00    -0.475 C  
HETATM    2  C   UNL     1     -10.777   7.314  68.524  1.00  0.00    -0.126 C  
ENDROOT
BRANCH   2   3
HETATM    3  C   UNL     1      -9.938   6.692  67.348  1.00  0.00    -0.185 C  
HETATM    4  C   UNL     1      -8.583   6.172  67.881  1.00  0.00    -0.114 C  
HETATM    5  C   UNL     1      -9.628   7.770  66.286  1.00  0.00    -0.179 C  
HETATM    6  C   UNL     1     -10.657   5.525  66.642  1.00  0.00    -0.365 C  
ENDBRANCH   2   3
BRANCH   2   7
HETATM    7  N   UNL     1      -9.982   8.315  69.247  1.00  0.00    -0.187 NA 
HETATM    8  H   UNL     1      -9.291   7.992  69.925  1.00  0.00     0.000 HD 
HETATM    9  C   UNL     1     -10.128   9.669  69.052  1.00  0.00    -0.186 C  
HETATM   10  N   UNL     1     -11.205  10.130  68.483  1.00  0.00    -0.448 NA 
HETATM   11  N   UNL     1      -9.026  10.417  69.361  1.00  0.00    -0.323 NA 
HETATM   12  N   UNL     1      -7.230   9.642  71.063  1.00  0.00    -0.331 NA 
HETATM   13  H   UNL     1      -8.909  11.330  68.921  1.00  0.00     0.000 HD 
HETATM   14  C   UNL     1      -8.027   9.957  70.285  1.00  0.00    -0.109 C  
HETATM   15  H   UNL     1     -11.912   9.451  68.202  1.00  0.00     0.000 HD 
BRANCH  10  16
HETATM   16  C   UNL     1     -11.472  11.490  68.223  1.00  0.00    -0.299 A  
HETATM   17  C   UNL     1     -11.746  12.282  69.335  1.00  0.00    -0.392 A  
HETATM   18  C   UNL     1     -11.974  13.637  69.162  1.00  0.00    -0.351 A  
HETATM   19  N   UNL     1     -11.947  14.249  67.961  1.00  0.00    -0.342 NA 
HETATM   20  C   UNL     1     -11.645  13.475  66.899  1.00  0.00    -0.363 A  
HETATM   21  C   UNL     1     -11.387  12.114  66.981  1.00  0.00    -0.398 A  
ENDBRANCH  10  16
ENDBRANCH   2   7
TORSDOF 3
ENDMDL
MODEL       68
REMARK 921   NORMALIZED FREE ENERGY PREDICTED BY IDOCK:   -4.22 KCAL/MOL
REMARK 922        TOTAL FREE ENERGY PREDICTED BY IDOCK:   -5.39 KCAL/MOL
REMARK 923 INTER-LIGAND FREE ENERGY PREDICTED BY IDOCK:   -4.90 KCAL/MOL
REMARK 924 INTRA-LIGAND FREE ENERGY PREDICTED BY IDOCK:   -0.49 KCAL/MOL
REMARK 927      BINDING AFFINITY PREDICTED BY RF-SCORE:    0.00 PKD
ROOT
HETATM    1  C   UNL     1     -10.945   5.718  68.775  1.00  0.00    -0.223 C  
HETATM    2  C   UNL     1     -10.648   7.211  68.606  1.00  0.00    -0.189 C  
ENDROOT
BRANCH   2   3
HETATM    3  C   UNL     1      -9.702   7.545  67.395  1.00  0.00    -0.204 C  
HETATM    4  C   UNL     1      -9.724   6.388  66.369  1.00  0.00    -0.140 C  
HETATM    5  C   UNL     1      -8.244   7.694  67.884  1.00  0.00    -0.123 C  
HETATM    6  C   UNL     1     -10.091   8.844  66.663  1.00  0.00    -0.357 C  
ENDBRANCH   2   3
BRANCH   2   7
HETATM    7  N   UNL     1     -10.100   7.762  69.852  1.00  0.00    -0.199 NA 
HETATM    8  H   UNL     1      -9.402   7.219  70.360  1.00  0.00     0.000 HD 
HETATM    9  C   UNL     1     -10.488   8.979  70.365  1.00  0.00    -0.213 C  
HETATM   10  N   UNL     1     -11.596   9.530  69.962  1.00  0.00    -0.436 NA 
HETATM   11  N   UNL     1      -9.567   9.581  71.176  1.00  0.00    -0.287 NA 
HETATM   12  N   UNL     1      -7.760   8.255  72.481  1.00  0.00    -0.159 NA 
HETATM   13  H   UNL     1      -9.599  10.593  71.294  1.00  0.00     0.000 HD 
HETATM   14  C   UNL     1      -8.555   8.831  71.868  1.00  0.00    -0.099 C  
HETATM   15  H   UNL     1     -12.145   9.022  69.268  1.00  0.00     0.000 HD 
BRANCH  10  16
HETATM   16  C   UNL     1     -12.100  10.770  70.405  1.00  0.00    -0.354 A  
HETATM   17  C   UNL     1     -12.898  10.734  71.545  1.00  0.00    -0.567 A  
HETATM   18  C   UNL     1     -13.391  11.919  72.065  1.00  0.00    -0.320 A  
HETATM   19  N   UNL     1     -13.142  13.129  71.526  1.00  0.00    -0.353 NA 
HETATM   20  C   UNL     1     -12.339  13.151  70.443  1.00  0.00    -0.279 A  
HETATM   21  C   UNL     1     -11.788  12.016  69.864  1.00  0.00    -0.405 A  
ENDBRANCH  10  16
ENDBRANCH   2   7
TORSDOF 3
ENDMDL
MODEL       69
REMARK 921   NORMALIZED FREE ENERGY PREDICTED BY IDOCK:   -4.21 KCAL/MOL
REMARK 922        TOTAL FREE ENERGY PREDICTED BY IDOCK:   -5.38 KCAL/MOL
REMARK 923 INTER-LIGAND FREE ENERGY PREDICTED BY IDOCK:   -6.09 KCAL/MOL
REMARK 924 INTRA-LIGAND FREE ENERGY PREDICTED BY IDOCK:    0.71 KCAL/MOL
REMARK 927      BINDING AFFINITY PREDICTED BY RF-SCORE:    0.00 PKD
ROOT
HETATM    1  C   UNL     1     -11.686  12.072  69.605  1.00  0.00    -0.405 C  
HETATM    2  C   UNL     1     -11.781  11.019  68.498  1.00  0.00    -0.278 C  
ENDROOT
BRANCH   2   3
HETATM    3  C   UNL     1     -10.601   9.979  68.496  1.00  0.00    -0.245 C  
HETATM    4  C   UNL     1     -10.797   8.953  69.636  1.00  0.00    -0.186 C  
HETATM    5  C   UNL     1      -9.257  10.698  68.753  1.00  0.00    -0.182 C  
HETATM    6  C   UNL     1     -10.477   9.207  67.168  1.00  0.00    -0.325 C  
ENDBRANCH   2   3
BRANCH   2   7
HETATM    7  N   UNL     1     -11.890  11.673  67.186  1.00  0.00    -0.607 NA 
HETATM    8  H   UNL     1     -12.242  11.129  66.399  1.00  0.00     0.000 HD 
HETATM    9  C   UNL     1     -11.539  12.986  66.974  1.00  0.00    -0.360 C  
HETATM   10  N   UNL     1     -10.775  13.600  67.831  1.00  0.00    -0.243 NA 
HETATM   11  N   UNL     1     -12.162  13.584  65.915  1.00  0.00    -0.442 NA 
HETATM   12  N   UNL     1     -13.089  12.253  63.892  1.00  0.00    -0.761 NA 
HETATM   13  H   UNL     1     -12.252  14.600  65.904  1.00  0.00     0.000 HD 
HETATM   14  C   UNL     1     -12.695  12.827  64.817  1.00  0.00    -0.393 C  
HETATM   15  H   UNL     1     -10.460  13.067  68.642  1.00  0.00     0.000 HD 
BRANCH  10  16
HETATM   16  C   UNL     1     -10.349  14.941  67.731  1.00  0.00    -0.244 A  
HETATM   17  C   UNL     1      -9.149  15.152  67.058  1.00  0.00    -0.249 A  
HETATM   18  C   UNL     1      -8.690  16.446  66.881  1.00  0.00    -0.204 A  
HETATM   19  N   UNL     1      -9.344  17.536  67.328  1.00  0.00    -0.241 NA 
HETATM   20  C   UNL     1     -10.523  17.318  67.947  1.00  0.00    -0.382 A  
HETATM   21  C   UNL     1     -11.067  16.058  68.154  1.00  0.00    -0.344 A  
ENDBRANCH  10  16
ENDBRANCH   2   7
TORSDOF 3
ENDMDL
MODEL       70
REMARK 921   NORMALIZED FREE ENERGY PREDICTED BY IDOCK:   -4.20 KCAL/MOL
REMARK 922        TOTAL FREE ENERGY PREDICTED BY IDOCK:   -5.37 KCAL/MOL
REMARK 923 INTER-LIGAND FREE ENERGY PREDICTED BY IDOCK:   -6.23 KCAL/MOL
REMARK 924 INTRA-LIGAND FREE ENERGY PREDICTED BY IDOCK:    0.86 KCAL/MOL
REMARK 927      BINDING AFFINITY PREDICTED BY RF-SCORE:    0.00 PKD
ROOT
HETATM    1  C   UNL     1      -8.334  15.686  67.519  1.00  0.00    -0.186 C  
HETATM    2  C   UNL     1      -8.980  16.469  66.372  1.00  0.00    -0.305 C  
ENDROOT
BRANCH   2   3
HETATM    3  C   UNL     1      -9.177  18.001  66.671  1.00  0.00    -0.291 C  
HETATM    4  C   UNL     1      -9.359  18.226  68.190  1.00  0.00    -0.307 C  
HETATM    5  C   UNL     1     -10.455  18.519  65.976  1.00  0.00    -0.433 C  
HETATM    6  C   UNL     1      -7.994  18.867  66.194  1.00  0.00    -0.256 C  
ENDBRANCH   2   3
BRANCH   2   7
HETATM    7  N   UNL     1     -10.259  15.852  65.996  1.00  0.00    -0.312 NA 
HETATM    8  H   UNL     1     -10.552  15.894  65.019  1.00  0.00     0.000 HD 
HETATM    9  C   UNL     1     -11.080  15.221  66.901  1.00  0.00    -0.288 C  
HETATM   10  N   UNL     1     -10.932  15.443  68.175  1.00  0.00    -0.285 NA 
HETATM   11  N   UNL     1     -11.912  14.278  66.364  1.00  0.00    -0.418 NA 
HETATM   12  N   UNL     1     -12.678  14.325  63.887  1.00  0.00    -0.700 NA 
HETATM   13  H   UNL     1     -12.267  13.533  66.963  1.00  0.00     0.000 HD 
HETATM   14  C   UNL     1     -12.302  14.305  64.982  1.00  0.00    -0.428 C  
HETATM   15  H   UNL     1     -10.198  16.093  68.455  1.00  0.00     0.000 HD 
BRANCH  10  16
HETATM   16  C   UNL     1     -11.703  14.857  69.201  1.00  0.00    -0.309 A  
HETATM   17  C   UNL     1     -11.545  13.485  69.377  1.00  0.00    -0.369 A  
HETATM   18  C   UNL     1     -12.235  12.848  70.395  1.00  0.00    -0.304 A  
HETATM   19  N   UNL     1     -13.067  13.485  71.242  1.00  0.00    -0.298 NA 
HETATM   20  C   UNL     1     -13.183  14.819  71.082  1.00  0.00    -0.393 A  
HETATM   21  C   UNL     1     -12.517  15.542  70.101  1.00  0.00    -0.351 A  
ENDBRANCH  10  16
ENDBRANCH   2   7
TORSDOF 3
ENDMDL
MODEL       71
REMARK 921   NORMALIZED FREE ENERGY PREDICTED BY IDOCK:   -4.20 KCAL/MOL
REMARK 922        TOTAL FREE ENERGY PREDICTED BY IDOCK:   -5.36 KCAL/MOL
REMARK 923 INTER-LIGAND FREE ENERGY PREDICTED BY IDOCK:   -5.33 KCAL/MOL
REMARK 924 INTRA-LIGAND FREE ENERGY PREDICTED BY IDOCK:   -0.03 KCAL/MOL
REMARK 927      BINDING AFFINITY PREDICTED BY RF-SCORE:    0.00 PKD
ROOT
HETATM    1  C   UNL     1      -7.428  16.793  66.609  1.00  0.00    -0.308 C  
HETATM    2  C   UNL     1      -8.919  17.134  66.523  1.00  0.00    -0.272 C  
ENDROOT
BRANCH   2   3
HETATM    3  C   UNL     1      -9.244  18.656  66.748  1.00  0.00    -0.308 C  
HETATM    4  C   UNL     1      -9.520  18.923  68.246  1.00  0.00    -0.395 C  
HETATM    5  C   UNL     1     -10.519  19.049  65.970  1.00  0.00    -0.530 C  
HETATM    6  C   UNL     1      -8.106  19.592  66.294  1.00  0.00    -0.344 C  
ENDBRANCH   2   3
BRANCH   2   7
HETATM    7  N   UNL     1      -9.683  16.302  67.462  1.00  0.00    -0.232 NA 
HETATM    8  H   UNL     1     -10.034  16.730  68.319  1.00  0.00     0.000 HD 
HETATM    9  C   UNL     1      -9.948  14.971  67.236  1.00  0.00    -0.233 C  
HETATM   10  N   UNL     1      -9.245  14.309  66.363  1.00  0.00    -0.448 NA 
HETATM   11  N   UNL     1     -11.056  14.488  67.874  1.00  0.00    -0.269 NA 
HETATM   12  N   UNL     1     -12.001  15.542  70.046  1.00  0.00    -0.344 NA 
HETATM   13  H   UNL     1     -11.526  13.665  67.496  1.00  0.00     0.000 HD 
HETATM   14  C   UNL     1     -11.581  15.104  69.061  1.00  0.00    -0.330 C  
HETATM   15  H   UNL     1      -8.508  14.817  65.873  1.00  0.00     0.000 HD 
BRANCH  10  16
HETATM   16  C   UNL     1      -9.419  12.947  66.038  1.00  0.00    -0.103 A  
HETATM   17  C   UNL     1      -8.844  12.031  66.915  1.00  0.00    -0.197 A  
HETATM   18  C   UNL     1      -9.012  10.676  66.685  1.00  0.00    -0.150 A  
HETATM   19  N   UNL     1      -9.710  10.178  65.646  1.00  0.00    -0.239 NA 
HETATM   20  C   UNL     1     -10.290  11.077  64.825  1.00  0.00    -0.324 A  
HETATM   21  C   UNL     1     -10.189  12.452  64.987  1.00  0.00    -0.306 A  
ENDBRANCH  10  16
ENDBRANCH   2   7
TORSDOF 3
ENDMDL
MODEL       72
REMARK 921   NORMALIZED FREE ENERGY PREDICTED BY IDOCK:   -4.16 KCAL/MOL
REMARK 922        TOTAL FREE ENERGY PREDICTED BY IDOCK:   -5.32 KCAL/MOL
REMARK 923 INTER-LIGAND FREE ENERGY PREDICTED BY IDOCK:   -5.37 KCAL/MOL
REMARK 924 INTRA-LIGAND FREE ENERGY PREDICTED BY IDOCK:    0.05 KCAL/MOL
REMARK 927      BINDING AFFINITY PREDICTED BY RF-SCORE:    0.00 PKD
ROOT
HETATM    1  C   UNL     1     -12.000  14.257  65.559  1.00  0.00    -0.386 C  
HETATM    2  C   UNL     1     -10.713  13.646  64.997  1.00  0.00    -0.367 C  
ENDROOT
BRANCH   2   3
HETATM    3  C   UNL     1     -10.917  12.258  64.286  1.00  0.00    -0.392 C  
HETATM    4  C   UNL     1     -10.727  11.109  65.303  1.00  0.00    -0.271 C  
HETATM    5  C   UNL     1      -9.859  12.068  63.177  1.00  0.00    -0.156 C  
HETATM    6  C   UNL     1     -12.310  12.107  63.642  1.00  0.00    -0.673 C  
ENDBRANCH   2   3
BRANCH   2   7
HETATM    7  N   UNL     1      -9.700  13.536  66.055  1.00  0.00    -0.419 NA 
HETATM    8  H   UNL     1      -9.459  12.609  66.404  1.00  0.00     0.000 HD 
HETATM    9  C   UNL     1      -9.063  14.629  66.597  1.00  0.00    -0.258 C  
HETATM   10  N   UNL     1      -9.573  15.817  66.446  1.00  0.00    -0.262 NA 
HETATM   11  N   UNL     1      -7.837  14.368  67.143  1.00  0.00    -0.346 NA 
HETATM   12  N   UNL     1      -7.162  12.028  68.034  1.00  0.00    -0.088 NA 
HETATM   13  H   UNL     1      -7.161  15.127  67.225  1.00  0.00     0.000 HD 
HETATM   14  C   UNL     1      -7.472  13.058  67.604  1.00  0.00    -0.156 C  
HETATM   15  H   UNL     1     -10.445  15.889  65.923  1.00  0.00     0.000 HD 
BRANCH  10  16
HETATM   16  C   UNL     1      -9.017  17.014  66.947  1.00  0.00    -0.229 A  
HETATM   17  C   UNL     1      -9.529  17.465  68.160  1.00  0.00    -0.288 A  
HETATM   18  C   UNL     1      -9.001  18.608  68.736  1.00  0.00    -0.259 A  
HETATM   19  N   UNL     1      -8.002  19.326  68.184  1.00  0.00    -0.296 NA 
HETATM   20  C   UNL     1      -7.492  18.856  67.027  1.00  0.00    -0.216 A  
HETATM   21  C   UNL     1      -7.948  17.712  66.388  1.00  0.00    -0.309 A  
ENDBRANCH  10  16
ENDBRANCH   2   7
TORSDOF 3
ENDMDL
MODEL       73
REMARK 921   NORMALIZED FREE ENERGY PREDICTED BY IDOCK:   -4.16 KCAL/MOL
REMARK 922        TOTAL FREE ENERGY PREDICTED BY IDOCK:   -5.32 KCAL/MOL
REMARK 923 INTER-LIGAND FREE ENERGY PREDICTED BY IDOCK:   -4.97 KCAL/MOL
REMARK 924 INTRA-LIGAND FREE ENERGY PREDICTED BY IDOCK:   -0.35 KCAL/MOL
REMARK 927      BINDING AFFINITY PREDICTED BY RF-SCORE:    0.00 PKD
ROOT
HETATM    1  C   UNL     1      -5.596  10.390  66.349  1.00  0.00    -0.061 C  
HETATM    2  C   UNL     1      -6.792  11.281  66.694  1.00  0.00    -0.130 C  
ENDROOT
BRANCH   2   3
HETATM    3  C   UNL     1      -6.695  11.970  68.105  1.00  0.00    -0.064 C  
HETATM    4  C   UNL     1      -5.219  12.287  68.439  1.00  0.00    -0.053 C  
HETATM    5  C   UNL     1      -7.217  11.015  69.201  1.00  0.00    -0.121 C  
HETATM    6  C   UNL     1      -7.502  13.280  68.196  1.00  0.00    -0.128 C  
ENDBRANCH   2   3
BRANCH   2   7
HETATM    7  N   UNL     1      -8.042  10.517  66.582  1.00  0.00    -0.123 NA 
HETATM    8  H   UNL     1      -8.043   9.539  66.873  1.00  0.00     0.000 HD 
HETATM    9  C   UNL     1      -9.211  11.061  66.103  1.00  0.00    -0.190 C  
HETATM   10  N   UNL     1      -9.176  12.162  65.408  1.00  0.00    -0.428 NA 
HETATM   11  N   UNL     1     -10.352  10.446  66.535  1.00  0.00    -0.237 NA 
HETATM   12  N   UNL     1     -10.413   7.969  67.299  1.00  0.00    -0.301 NA 
HETATM   13  H   UNL     1     -11.226  10.973  66.542  1.00  0.00     0.000 HD 
HETATM   14  C   UNL     1     -10.359   9.081  66.982  1.00  0.00    -0.269 C  
HETATM   15  H   UNL     1      -8.262  12.582  65.243  1.00  0.00     0.000 HD 
BRANCH  10  16
HETATM   16  C   UNL     1     -10.300  12.821  64.866  1.00  0.00    -0.309 A  
HETATM   17  C   UNL     1     -10.554  14.099  65.356  1.00  0.00    -0.358 A  
HETATM   18  C   UNL     1     -11.614  14.824  64.838  1.00  0.00    -0.401 A  
HETATM   19  N   UNL     1     -12.430  14.362  63.870  1.00  0.00    -0.808 NA 
HETATM   20  C   UNL     1     -12.149  13.137  63.381  1.00  0.00    -0.486 A  
HETATM   21  C   UNL     1     -11.100  12.347  63.828  1.00  0.00    -0.506 A  
ENDBRANCH  10  16
ENDBRANCH   2   7
TORSDOF 3
ENDMDL
MODEL       74
REMARK 921   NORMALIZED FREE ENERGY PREDICTED BY IDOCK:   -4.16 KCAL/MOL
REMARK 922        TOTAL FREE ENERGY PREDICTED BY IDOCK:   -5.32 KCAL/MOL
REMARK 923 INTER-LIGAND FREE ENERGY PREDICTED BY IDOCK:   -4.82 KCAL/MOL
REMARK 924 INTRA-LIGAND FREE ENERGY PREDICTED BY IDOCK:   -0.49 KCAL/MOL
REMARK 927      BINDING AFFINITY PREDICTED BY RF-SCORE:    0.00 PKD
ROOT
HETATM    1  C   UNL     1      -9.251   7.447  67.394  1.00  0.00    -0.146 C  
HETATM    2  C   UNL     1      -8.855   8.344  66.218  1.00  0.00    -0.159 C  
ENDROOT
BRANCH   2   3
HETATM    3  C   UNL     1      -7.709   7.754  65.316  1.00  0.00    -0.102 C  
HETATM    4  C   UNL     1      -6.339   8.308  65.770  1.00  0.00    -0.052 C  
HETATM    5  C   UNL     1      -7.913   8.185  63.847  1.00  0.00    -0.138 C  
HETATM    6  C   UNL     1      -7.643   6.214  65.353  1.00  0.00    -0.087 C  
ENDBRANCH   2   3
BRANCH   2   7
HETATM    7  N   UNL     1      -8.488   9.681  66.703  1.00  0.00    -0.123 NA 
HETATM    8  H   UNL     1      -7.723   9.764  67.373  1.00  0.00     0.000 HD 
HETATM    9  C   UNL     1      -9.131  10.827  66.295  1.00  0.00    -0.175 C  
HETATM   10  N   UNL     1     -10.304  10.749  65.737  1.00  0.00    -0.248 NA 
HETATM   11  N   UNL     1      -8.387  11.970  66.392  1.00  0.00    -0.391 NA 
HETATM   12  N   UNL     1      -6.422  12.233  68.063  1.00  0.00    -0.068 NA 
HETATM   13  H   UNL     1      -8.622  12.765  65.797  1.00  0.00     0.000 HD 
HETATM   14  C   UNL     1      -7.284  12.086  67.304  1.00  0.00    -0.150 C  
HETATM   15  H   UNL     1     -10.708   9.819  65.627  1.00  0.00     0.000 HD 
BRANCH  10  16
HETATM   16  C   UNL     1     -11.063  11.844  65.273  1.00  0.00    -0.299 A  
HETATM   17  C   UNL     1     -11.198  11.952  63.891  1.00  0.00    -0.497 A  
HETATM   18  C   UNL     1     -11.967  12.976  63.364  1.00  0.00    -0.520 A  
HETATM   19  N   UNL     1     -12.604  13.893  64.118  1.00  0.00    -0.684 NA 
HETATM   20  C   UNL     1     -12.493  13.754  65.456  1.00  0.00    -0.512 A  
HETATM   21  C   UNL     1     -11.758  12.750  66.071  1.00  0.00    -0.470 A  
ENDBRANCH  10  16
ENDBRANCH   2   7
TORSDOF 3
ENDMDL
MODEL       75
REMARK 921   NORMALIZED FREE ENERGY PREDICTED BY IDOCK:   -4.15 KCAL/MOL
REMARK 922        TOTAL FREE ENERGY PREDICTED BY IDOCK:   -5.30 KCAL/MOL
REMARK 923 INTER-LIGAND FREE ENERGY PREDICTED BY IDOCK:   -4.82 KCAL/MOL
REMARK 924 INTRA-LIGAND FREE ENERGY PREDICTED BY IDOCK:   -0.48 KCAL/MOL
REMARK 927      BINDING AFFINITY PREDICTED BY RF-SCORE:    0.00 PKD
ROOT
HETATM    1  C   UNL     1      -8.242  15.328  69.548  1.00  0.00    -0.188 C  
HETATM    2  C   UNL     1      -9.133  15.034  68.337  1.00  0.00    -0.184 C  
ENDROOT
BRANCH   2   3
HETATM    3  C   UNL     1     -10.119  16.202  67.966  1.00  0.00    -0.242 C  
HETATM    4  C   UNL     1     -10.076  16.469  66.444  1.00  0.00    -0.323 C  
HETATM    5  C   UNL     1      -9.688  17.507  68.672  1.00  0.00    -0.319 C  
HETATM    6  C   UNL     1     -11.579  15.910  68.363  1.00  0.00    -0.317 C  
ENDBRANCH   2   3
BRANCH   2   7
HETATM    7  N   UNL     1      -9.874  13.784  68.545  1.00  0.00    -0.276 NA 
HETATM    8  H   UNL     1     -10.220  13.572  69.481  1.00  0.00     0.000 HD 
HETATM    9  C   UNL     1     -10.123  12.885  67.534  1.00  0.00    -0.214 C  
HETATM   10  N   UNL     1      -9.422  12.931  66.438  1.00  0.00    -0.319 NA 
HETATM   11  N   UNL     1     -11.217  12.088  67.728  1.00  0.00    -0.251 NA 
HETATM   12  N   UNL     1     -12.149  11.527  70.081  1.00  0.00    -0.346 NA 
HETATM   13  H   UNL     1     -11.679  11.677  66.917  1.00  0.00     0.000 HD 
HETATM   14  C   UNL     1     -11.735  11.812  69.039  1.00  0.00    -0.328 C  
HETATM   15  H   UNL     1      -8.699  13.647  66.375  1.00  0.00     0.000 HD 
BRANCH  10  16
HETATM   16  C   UNL     1      -9.581  12.073  65.329  1.00  0.00    -0.100 A  
HETATM   17  C   UNL     1     -10.291  12.593  64.250  1.00  0.00    -0.399 A  
HETATM   18  C   UNL     1     -10.448  11.824  63.109  1.00  0.00    -0.305 A  
HETATM   19  N   UNL     1      -9.948  10.580  62.975  1.00  0.00    -0.221 NA 
HETATM   20  C   UNL     1      -9.233  10.104  64.015  1.00  0.00    -0.272 A  
HETATM   21  C   UNL     1      -9.011  10.809  65.189  1.00  0.00    -0.215 A  
ENDBRANCH  10  16
ENDBRANCH   2   7
TORSDOF 3
ENDMDL
MODEL       76
REMARK 921   NORMALIZED FREE ENERGY PREDICTED BY IDOCK:   -4.12 KCAL/MOL
REMARK 922        TOTAL FREE ENERGY PREDICTED BY IDOCK:   -5.28 KCAL/MOL
REMARK 923 INTER-LIGAND FREE ENERGY PREDICTED BY IDOCK:   -4.90 KCAL/MOL
REMARK 924 INTRA-LIGAND FREE ENERGY PREDICTED BY IDOCK:   -0.37 KCAL/MOL
REMARK 927      BINDING AFFINITY PREDICTED BY RF-SCORE:    0.00 PKD
ROOT
HETATM    1  C   UNL     1      -8.753  15.119  67.136  1.00  0.00    -0.238 C  
HETATM    2  C   UNL     1      -9.777  13.989  66.994  1.00  0.00    -0.256 C  
ENDROOT
BRANCH   2   3
HETATM    3  C   UNL     1     -10.861  14.239  65.882  1.00  0.00    -0.300 C  
HETATM    4  C   UNL     1     -10.594  13.322  64.667  1.00  0.00    -0.421 C  
HETATM    5  C   UNL     1     -10.782  15.698  65.380  1.00  0.00    -0.424 C  
HETATM    6  C   UNL     1     -12.300  13.985  66.372  1.00  0.00    -0.468 C  
ENDBRANCH   2   3
BRANCH   2   7
HETATM    7  N   UNL     1     -10.421  13.725  68.288  1.00  0.00    -0.241 NA 
HETATM    8  H   UNL     1     -10.857  14.503  68.783  1.00  0.00     0.000 HD 
HETATM    9  C   UNL     1     -10.463  12.475  68.861  1.00  0.00    -0.080 C  
HETATM   10  N   UNL     1      -9.641  11.549  68.458  1.00  0.00    -0.201 NA 
HETATM   11  N   UNL     1     -11.495  12.277  69.735  1.00  0.00    -0.484 NA 
HETATM   12  N   UNL     1     -12.650  14.216  71.012  1.00  0.00    -0.347 NA 
HETATM   13  H   UNL     1     -11.816  11.325  69.913  1.00  0.00     0.000 HD 
HETATM   14  C   UNL     1     -12.141  13.367  70.411  1.00  0.00    -0.333 C  
HETATM   15  H   UNL     1      -8.984  11.797  67.719  1.00  0.00     0.000 HD 
BRANCH  10  16
HETATM   16  C   UNL     1      -9.585  10.232  68.960  1.00  0.00    -0.203 A  
HETATM   17  C   UNL     1      -8.719  10.021  70.029  1.00  0.00    -0.118 A  
HETATM   18  C   UNL     1      -8.645   8.763  70.603  1.00  0.00    -0.178 A  
HETATM   19  N   UNL     1      -9.374   7.709  70.184  1.00  0.00    -0.157 NA 
HETATM   20  C   UNL     1     -10.234   7.938  69.171  1.00  0.00    -0.216 A  
HETATM   21  C   UNL     1     -10.386   9.169  68.547  1.00  0.00    -0.236 A  
ENDBRANCH  10  16
ENDBRANCH   2   7
TORSDOF 3
ENDMDL
MODEL       77
REMARK 921   NORMALIZED FREE ENERGY PREDICTED BY IDOCK:   -4.11 KCAL/MOL
REMARK 922        TOTAL FREE ENERGY PREDICTED BY IDOCK:   -5.25 KCAL/MOL
REMARK 923 INTER-LIGAND FREE ENERGY PREDICTED BY IDOCK:   -5.21 KCAL/MOL
REMARK 924 INTRA-LIGAND FREE ENERGY PREDICTED BY IDOCK:   -0.05 KCAL/MOL
REMARK 927      BINDING AFFINITY PREDICTED BY RF-SCORE:    0.00 PKD
ROOT
HETATM    1  C   UNL     1     -10.575   8.261  67.285  1.00  0.00    -0.335 C  
HETATM    2  C   UNL     1     -10.045   9.133  68.427  1.00  0.00    -0.196 C  
ENDROOT
BRANCH   2   3
HETATM    3  C   UNL     1      -8.484   9.067  68.615  1.00  0.00    -0.128 C  
HETATM    4  C   UNL     1      -7.956  10.422  69.140  1.00  0.00    -0.141 C  
HETATM    5  C   UNL     1      -7.796   8.803  67.257  1.00  0.00    -0.097 C  
HETATM    6  C   UNL     1      -8.038   7.963  69.594  1.00  0.00    -0.117 C  
ENDBRANCH   2   3
BRANCH   2   7
HETATM    7  N   UNL     1     -10.727   8.791  69.683  1.00  0.00    -0.273 NA 
HETATM    8  H   UNL     1     -10.753   7.814  69.973  1.00  0.00     0.000 HD 
HETATM    9  C   UNL     1     -11.332   9.732  70.484  1.00  0.00    -0.314 C  
HETATM   10  N   UNL     1     -11.628  10.903  69.999  1.00  0.00    -0.312 NA 
HETATM   11  N   UNL     1     -11.443   9.381  71.801  1.00  0.00    -0.386 NA 
HETATM   12  N   UNL     1     -11.500   6.915  72.600  1.00  0.00    -0.235 NA 
HETATM   13  H   UNL     1     -11.527  10.116  72.503  1.00  0.00     0.000 HD 
HETATM   14  C   UNL     1     -11.444   8.009  72.226  1.00  0.00    -0.360 C  
HETATM   15  H   UNL     1     -11.396  11.077  69.021  1.00  0.00     0.000 HD 
BRANCH  10  16
HETATM   16  C   UNL     1     -12.244  11.952  70.715  1.00  0.00    -0.303 A  
HETATM   17  C   UNL     1     -11.990  13.240  70.251  1.00  0.00    -0.372 A  
HETATM   18  C   UNL     1     -12.596  14.316  70.876  1.00  0.00    -0.356 A  
HETATM   19  N   UNL     1     -13.433  14.194  71.925  1.00  0.00    -0.373 NA 
HETATM   20  C   UNL     1     -13.697  12.937  72.340  1.00  0.00    -0.431 A  
HETATM   21  C   UNL     1     -13.148  11.800  71.764  1.00  0.00    -0.480 A  
ENDBRANCH  10  16
ENDBRANCH   2   7
TORSDOF 3
ENDMDL
MODEL       78
REMARK 921   NORMALIZED FREE ENERGY PREDICTED BY IDOCK:   -4.04 KCAL/MOL
REMARK 922        TOTAL FREE ENERGY PREDICTED BY IDOCK:   -5.18 KCAL/MOL
REMARK 923 INTER-LIGAND FREE ENERGY PREDICTED BY IDOCK:   -4.76 KCAL/MOL
REMARK 924 INTRA-LIGAND FREE ENERGY PREDICTED BY IDOCK:   -0.41 KCAL/MOL
REMARK 927      BINDING AFFINITY PREDICTED BY RF-SCORE:    0.00 PKD
ROOT
HETATM    1  C   UNL     1     -11.861  13.230  66.723  1.00  0.00    -0.448 C  
HETATM    2  C   UNL     1     -11.420  13.106  68.185  1.00  0.00    -0.314 C  
ENDROOT
BRANCH   2   3
HETATM    3  C   UNL     1     -11.215  14.485  68.914  1.00  0.00    -0.283 C  
HETATM    4  C   UNL     1     -11.708  15.640  68.012  1.00  0.00    -0.162 C  
HETATM    5  C   UNL     1      -9.714  14.725  69.186  1.00  0.00    -0.149 C  
HETATM    6  C   UNL     1     -11.960  14.573  70.260  1.00  0.00    -0.379 C  
ENDBRANCH   2   3
BRANCH   2   7
HETATM    7  N   UNL     1     -10.201  12.291  68.278  1.00  0.00    -0.216 NA 
HETATM    8  H   UNL     1      -9.383  12.573  67.738  1.00  0.00     0.000 HD 
HETATM    9  C   UNL     1     -10.115  11.163  69.061  1.00  0.00    -0.155 C  
HETATM   10  N   UNL     1     -11.201  10.577  69.476  1.00  0.00    -0.253 NA 
HETATM   11  N   UNL     1      -8.849  10.834  69.458  1.00  0.00    -0.392 NA 
HETATM   12  N   UNL     1      -6.732  11.535  68.136  1.00  0.00    -0.061 NA 
HETATM   13  H   UNL     1      -8.725  10.270  70.300  1.00  0.00     0.000 HD 
HETATM   14  C   UNL     1      -7.687  11.257  68.727  1.00  0.00    -0.138 C  
HETATM   15  H   UNL     1     -12.091  10.987  69.194  1.00  0.00     0.000 HD 
BRANCH  10  16
HETATM   16  C   UNL     1     -11.247   9.421  70.284  1.00  0.00    -0.246 A  
HETATM   17  C   UNL     1     -11.826   9.577  71.541  1.00  0.00    -0.478 A  
HETATM   18  C   UNL     1     -11.947   8.476  72.372  1.00  0.00    -0.364 A  
HETATM   19  N   UNL     1     -11.532   7.239  72.035  1.00  0.00    -0.261 NA 
HETATM   20  C   UNL     1     -11.006   7.097  70.801  1.00  0.00    -0.252 A  
HETATM   21  C   UNL     1     -10.860   8.140  69.897  1.00  0.00    -0.215 A  
ENDBRANCH  10  16
ENDBRANCH   2   7
TORSDOF 3
ENDMDL
MODEL       79
REMARK 921   NORMALIZED FREE ENERGY PREDICTED BY IDOCK:   -4.01 KCAL/MOL
REMARK 922        TOTAL FREE ENERGY PREDICTED BY IDOCK:   -5.14 KCAL/MOL
REMARK 923 INTER-LIGAND FREE ENERGY PREDICTED BY IDOCK:   -5.01 KCAL/MOL
REMARK 924 INTRA-LIGAND FREE ENERGY PREDICTED BY IDOCK:   -0.14 KCAL/MOL
REMARK 927      BINDING AFFINITY PREDICTED BY RF-SCORE:    0.00 PKD
ROOT
HETATM    1  C   UNL     1      -8.131  12.473  67.626  1.00  0.00    -0.171 C  
HETATM    2  C   UNL     1      -9.234  11.428  67.809  1.00  0.00    -0.159 C  
ENDROOT
BRANCH   2   3
HETATM    3  C   UNL     1     -10.049  11.117  66.500  1.00  0.00    -0.265 C  
HETATM    4  C   UNL     1     -10.210   9.590  66.326  1.00  0.00    -0.290 C  
HETATM    5  C   UNL     1      -9.287  11.641  65.262  1.00  0.00    -0.112 C  
HETATM    6  C   UNL     1     -11.453  11.754  66.496  1.00  0.00    -0.325 C  
ENDBRANCH   2   3
BRANCH   2   7
HETATM    7  N   UNL     1     -10.140  11.832  68.893  1.00  0.00    -0.394 NA 
HETATM    8  H   UNL     1     -10.355  12.823  69.004  1.00  0.00     0.000 HD 
HETATM    9  C   UNL     1     -10.710  10.933  69.765  1.00  0.00    -0.137 C  
HETATM   10  N   UNL     1     -10.206   9.739  69.887  1.00  0.00    -0.238 NA 
HETATM   11  N   UNL     1     -11.879  11.350  70.338  1.00  0.00    -0.409 NA 
HETATM   12  N   UNL     1     -12.487  13.853  70.634  1.00  0.00    -0.355 NA 
HETATM   13  H   UNL     1     -12.536  10.651  70.684  1.00  0.00     0.000 HD 
HETATM   14  C   UNL     1     -12.211  12.741  70.467  1.00  0.00    -0.307 C  
HETATM   15  H   UNL     1      -9.388   9.517  69.320  1.00  0.00     0.000 HD 
BRANCH  10  16
HETATM   16  C   UNL     1     -10.698   8.729  70.740  1.00  0.00    -0.228 A  
HETATM   17  C   UNL     1     -10.667   7.433  70.232  1.00  0.00    -0.250 A  
HETATM   18  C   UNL     1     -11.092   6.383  71.030  1.00  0.00    -0.294 A  
HETATM   19  N   UNL     1     -11.542   6.540  72.290  1.00  0.00    -0.292 NA 
HETATM   20  C   UNL     1     -11.532   7.797  72.780  1.00  0.00    -0.359 A  
HETATM   21  C   UNL     1     -11.109   8.905  72.059  1.00  0.00    -0.421 A  
ENDBRANCH  10  16
ENDBRANCH   2   7
TORSDOF 3
ENDMDL
MODEL       80
REMARK 921   NORMALIZED FREE ENERGY PREDICTED BY IDOCK:   -3.98 KCAL/MOL
REMARK 922        TOTAL FREE ENERGY PREDICTED BY IDOCK:   -5.11 KCAL/MOL
REMARK 923 INTER-LIGAND FREE ENERGY PREDICTED BY IDOCK:   -4.75 KCAL/MOL
REMARK 924 INTRA-LIGAND FREE ENERGY PREDICTED BY IDOCK:   -0.36 KCAL/MOL
REMARK 927      BINDING AFFINITY PREDICTED BY RF-SCORE:    0.00 PKD
ROOT
HETATM    1  C   UNL     1      -7.168  11.693  69.059  1.00  0.00    -0.094 C  
HETATM    2  C   UNL     1      -8.177  10.590  68.731  1.00  0.00    -0.134 C  
ENDROOT
BRANCH   2   3
HETATM    3  C   UNL     1      -7.757   9.673  67.523  1.00  0.00    -0.095 C  
HETATM    4  C   UNL     1      -8.120   8.201  67.824  1.00  0.00    -0.127 C  
HETATM    5  C   UNL     1      -6.227   9.734  67.316  1.00  0.00    -0.067 C  
HETATM    6  C   UNL     1      -8.430  10.074  66.196  1.00  0.00    -0.131 C  
ENDBRANCH   2   3
BRANCH   2   7
HETATM    7  N   UNL     1      -9.505  11.172  68.494  1.00  0.00    -0.188 NA 
HETATM    8  H   UNL     1      -9.576  11.996  67.898  1.00  0.00     0.000 HD 
HETATM    9  C   UNL     1     -10.656  10.655  69.042  1.00  0.00    -0.219 C  
HETATM   10  N   UNL     1     -10.584   9.849  70.062  1.00  0.00    -0.268 NA 
HETATM   11  N   UNL     1     -11.800  10.939  68.350  1.00  0.00    -0.705 NA 
HETATM   12  N   UNL     1     -12.036  13.010  66.808  1.00  0.00    -0.390 NA 
HETATM   13  H   UNL     1     -12.607  10.324  68.456  1.00  0.00     0.000 HD 
HETATM   14  C   UNL     1     -11.901  12.076  67.478  1.00  0.00    -0.205 C  
HETATM   15  H   UNL     1      -9.655   9.632  70.421  1.00  0.00     0.000 HD 
BRANCH  10  16
HETATM   16  C   UNL     1     -11.685   9.251  70.709  1.00  0.00    -0.269 A  
HETATM   17  C   UNL     1     -11.628   7.868  70.861  1.00  0.00    -0.286 A  
HETATM   18  C   UNL     1     -12.652   7.217  71.528  1.00  0.00    -0.390 A  
HETATM   19  N   UNL     1     -13.722   7.849  72.049  1.00  0.00    -0.271 NA 
HETATM   20  C   UNL     1     -13.746   9.193  71.924  1.00  0.00    -0.424 A  
HETATM   21  C   UNL     1     -12.757   9.929  71.287  1.00  0.00    -0.482 A  
ENDBRANCH  10  16
ENDBRANCH   2   7
TORSDOF 3
ENDMDL
MODEL       81
REMARK 921   NORMALIZED FREE ENERGY PREDICTED BY IDOCK:   -3.96 KCAL/MOL
REMARK 922        TOTAL FREE ENERGY PREDICTED BY IDOCK:   -5.09 KCAL/MOL
REMARK 923 INTER-LIGAND FREE ENERGY PREDICTED BY IDOCK:   -4.90 KCAL/MOL
REMARK 924 INTRA-LIGAND FREE ENERGY PREDICTED BY IDOCK:   -0.19 KCAL/MOL
REMARK 927      BINDING AFFINITY PREDICTED BY RF-SCORE:    0.00 PKD
ROOT
HETATM    1  C   UNL     1      -7.762  10.651  65.375  1.00  0.00    -0.051 C  
HETATM    2  C   UNL     1      -8.802  10.836  66.482  1.00  0.00    -0.155 C  
ENDROOT
BRANCH   2   3
HETATM    3  C   UNL     1      -9.229   9.500  67.194  1.00  0.00    -0.158 C  
HETATM    4  C   UNL     1     -10.407   8.847  66.435  1.00  0.00    -0.189 C  
HETATM    5  C   UNL     1      -9.718   9.795  68.630  1.00  0.00    -0.162 C  
HETATM    6  C   UNL     1      -8.085   8.471  67.286  1.00  0.00    -0.105 C  
ENDBRANCH   2   3
BRANCH   2   7
HETATM    7  N   UNL     1      -9.982  11.536  65.956  1.00  0.00    -0.216 NA 
HETATM    8  H   UNL     1     -10.262  11.361  64.991  1.00  0.00     0.000 HD 
HETATM    9  C   UNL     1     -10.725  12.417  66.707  1.00  0.00    -0.234 C  
HETATM   10  N   UNL     1     -10.221  12.931  67.792  1.00  0.00    -0.219 NA 
HETATM   11  N   UNL     1     -12.022  12.567  66.302  1.00  0.00    -0.577 NA 
HETATM   12  N   UNL     1     -12.796  12.124  63.867  1.00  0.00    -0.717 NA 
HETATM   13  H   UNL     1     -12.717  12.886  66.977  1.00  0.00     0.000 HD 
HETATM   14  C   UNL     1     -12.437  12.289  64.955  1.00  0.00    -0.177 C  
HETATM   15  H   UNL     1      -9.272  12.654  68.044  1.00  0.00     0.000 HD 
BRANCH  10  16
HETATM   16  C   UNL     1     -10.879  13.838  68.649  1.00  0.00    -0.263 A  
HETATM   17  C   UNL     1     -10.597  15.186  68.444  1.00  0.00    -0.238 A  
HETATM   18  C   UNL     1     -11.241  16.138  69.216  1.00  0.00    -0.337 A  
HETATM   19  N   UNL     1     -12.141  15.836  70.173  1.00  0.00    -0.359 NA 
HETATM   20  C   UNL     1     -12.429  14.528  70.336  1.00  0.00    -0.347 A  
HETATM   21  C   UNL     1     -11.846  13.509  69.596  1.00  0.00    -0.398 A  
ENDBRANCH  10  16
ENDBRANCH   2   7
TORSDOF 3
ENDMDL
MODEL       82
REMARK 921   NORMALIZED FREE ENERGY PREDICTED BY IDOCK:   -3.95 KCAL/MOL
REMARK 922        TOTAL FREE ENERGY PREDICTED BY IDOCK:   -5.07 KCAL/MOL
REMARK 923 INTER-LIGAND FREE ENERGY PREDICTED BY IDOCK:   -4.55 KCAL/MOL
REMARK 924 INTRA-LIGAND FREE ENERGY PREDICTED BY IDOCK:   -0.52 KCAL/MOL
REMARK 927      BINDING AFFINITY PREDICTED BY RF-SCORE:    0.00 PKD
ROOT
HETATM    1  C   UNL     1      -7.011   6.233  70.004  1.00  0.00    -0.066 C  
HETATM    2  C   UNL     1      -8.474   5.914  69.685  1.00  0.00    -0.117 C  
ENDROOT
BRANCH   2   3
HETATM    3  C   UNL     1      -8.677   4.600  68.845  1.00  0.00    -0.110 C  
HETATM    4  C   UNL     1      -9.779   3.725  69.486  1.00  0.00    -0.152 C  
HETATM    5  C   UNL     1      -7.377   3.766  68.839  1.00  0.00    -0.054 C  
HETATM    6  C   UNL     1      -9.070   4.873  67.379  1.00  0.00    -0.124 C  
ENDBRANCH   2   3
BRANCH   2   7
HETATM    7  N   UNL     1      -9.106   7.056  69.010  1.00  0.00    -0.136 NA 
HETATM    8  H   UNL     1      -8.643   7.457  68.195  1.00  0.00     0.000 HD 
HETATM    9  C   UNL     1     -10.294   7.608  69.430  1.00  0.00    -0.214 C  
HETATM   10  N   UNL     1     -10.729   7.373  70.634  1.00  0.00    -0.225 NA 
HETATM   11  N   UNL     1     -10.999   8.263  68.459  1.00  0.00    -0.426 NA 
HETATM   12  N   UNL     1      -9.880   9.291  66.358  1.00  0.00    -0.256 NA 
HETATM   13  H   UNL     1     -12.007   8.373  68.569  1.00  0.00     0.000 HD 
HETATM   14  C   UNL     1     -10.365   8.801  67.288  1.00  0.00    -0.290 C  
HETATM   15  H   UNL     1     -10.155   6.777  71.231  1.00  0.00     0.000 HD 
BRANCH  10  16
HETATM   16  C   UNL     1     -11.929   7.874  71.182  1.00  0.00    -0.285 A  
HETATM   17  C   UNL     1     -13.030   7.024  71.120  1.00  0.00    -0.293 A  
HETATM   18  C   UNL     1     -14.231   7.430  71.678  1.00  0.00    -0.440 A  
HETATM   19  N   UNL     1     -14.404   8.619  72.289  1.00  0.00    -0.493 NA 
HETATM   20  C   UNL     1     -13.319   9.416  72.372  1.00  0.00    -0.424 A  
HETATM   21  C   UNL     1     -12.074   9.084  71.856  1.00  0.00    -0.448 A  
ENDBRANCH  10  16
ENDBRANCH   2   7
TORSDOF 3
ENDMDL
MODEL       83
REMARK 921   NORMALIZED FREE ENERGY PREDICTED BY IDOCK:   -3.94 KCAL/MOL
REMARK 922        TOTAL FREE ENERGY PREDICTED BY IDOCK:   -5.05 KCAL/MOL
REMARK 923 INTER-LIGAND FREE ENERGY PREDICTED BY IDOCK:   -4.69 KCAL/MOL
REMARK 924 INTRA-LIGAND FREE ENERGY PREDICTED BY IDOCK:   -0.37 KCAL/MOL
REMARK 927      BINDING AFFINITY PREDICTED BY RF-SCORE:    0.00 PKD
ROOT
HETATM    1  C   UNL     1      -8.291  10.188  64.911  1.00  0.00    -0.166 C  
HETATM    2  C   UNL     1      -8.129  10.881  66.267  1.00  0.00    -0.165 C  
ENDROOT
BRANCH   2   3
HETATM    3  C   UNL     1      -7.289  10.060  67.312  1.00  0.00    -0.090 C  
HETATM    4  C   UNL     1      -8.026   8.750  67.674  1.00  0.00    -0.106 C  
HETATM    5  C   UNL     1      -7.127  10.869  68.618  1.00  0.00    -0.080 C  
HETATM    6  C   UNL     1      -5.880   9.696  66.804  1.00  0.00    -0.055 C  
ENDBRANCH   2   3
BRANCH   2   7
HETATM    7  N   UNL     1      -9.447  11.221  66.821  1.00  0.00    -0.176 NA 
HETATM    8  H   UNL     1      -9.964  10.501  67.325  1.00  0.00     0.000 HD 
HETATM    9  C   UNL     1     -10.013  12.468  66.692  1.00  0.00    -0.236 C  
HETATM   10  N   UNL     1      -9.571  13.290  65.784  1.00  0.00    -0.481 NA 
HETATM   11  N   UNL     1     -10.927  12.788  67.657  1.00  0.00    -0.237 NA 
HETATM   12  N   UNL     1     -12.262  11.001  68.978  1.00  0.00    -0.483 NA 
HETATM   13  H   UNL     1     -11.112  13.771  67.856  1.00  0.00     0.000 HD 
HETATM   14  C   UNL     1     -11.636  11.782  68.398  1.00  0.00    -0.318 C  
HETATM   15  H   UNL     1      -8.807  12.966  65.192  1.00  0.00     0.000 HD 
BRANCH  10  16
HETATM   16  C   UNL     1     -10.061  14.593  65.554  1.00  0.00    -0.377 A  
HETATM   17  C   UNL     1      -9.307  15.634  66.088  1.00  0.00    -0.382 A  
HETATM   18  C   UNL     1      -9.702  16.942  65.864  1.00  0.00    -0.176 A  
HETATM   19  N   UNL     1     -10.793  17.277  65.147  1.00  0.00    -0.599 NA 
HETATM   20  C   UNL     1     -11.493  16.259  64.606  1.00  0.00    -0.167 A  
HETATM   21  C   UNL     1     -11.162  14.921  64.765  1.00  0.00    -0.393 A  
ENDBRANCH  10  16
ENDBRANCH   2   7
TORSDOF 3
ENDMDL
MODEL       84
REMARK 921   NORMALIZED FREE ENERGY PREDICTED BY IDOCK:   -3.92 KCAL/MOL
REMARK 922        TOTAL FREE ENERGY PREDICTED BY IDOCK:   -5.04 KCAL/MOL
REMARK 923 INTER-LIGAND FREE ENERGY PREDICTED BY IDOCK:   -6.41 KCAL/MOL
REMARK 924 INTRA-LIGAND FREE ENERGY PREDICTED BY IDOCK:    1.37 KCAL/MOL
REMARK 927      BINDING AFFINITY PREDICTED BY RF-SCORE:    0.00 PKD
ROOT
HETATM    1  C   UNL     1     -11.882  12.393  67.830  1.00  0.00    -0.362 C  
HETATM    2  C   UNL     1     -11.989  13.864  68.241  1.00  0.00    -0.357 C  
ENDROOT
BRANCH   2   3
HETATM    3  C   UNL     1     -10.757  14.743  67.813  1.00  0.00    -0.268 C  
HETATM    4  C   UNL     1     -10.968  16.206  68.264  1.00  0.00    -0.340 C  
HETATM    5  C   UNL     1     -10.620  14.753  66.274  1.00  0.00    -0.306 C  
HETATM    6  C   UNL     1      -9.424  14.244  68.404  1.00  0.00    -0.213 C  
ENDBRANCH   2   3
BRANCH   2   7
HETATM    7  N   UNL     1     -12.216  13.968  69.689  1.00  0.00    -0.346 NA 
HETATM    8  H   UNL     1     -12.291  14.897  70.105  1.00  0.00     0.000 HD 
HETATM    9  C   UNL     1     -12.330  12.870  70.509  1.00  0.00    -0.283 C  
HETATM   10  N   UNL     1     -11.900  11.710  70.104  1.00  0.00    -0.398 NA 
HETATM   11  N   UNL     1     -13.037  13.082  71.660  1.00  0.00    -0.385 NA 
HETATM   12  N   UNL     1     -13.275  15.420  72.755  1.00  0.00    -0.441 NA 
HETATM   13  H   UNL     1     -13.475  12.287  72.125  1.00  0.00     0.000 HD 
HETATM   14  C   UNL     1     -13.182  14.390  72.235  1.00  0.00    -0.406 C  
HETATM   15  H   UNL     1     -11.484  11.665  69.174  1.00  0.00     0.000 HD 
BRANCH  10  16
HETATM   16  C   UNL     1     -11.963  10.511  70.844  1.00  0.00    -0.377 A  
HETATM   17  C   UNL     1     -13.234  10.101  71.237  1.00  0.00    -0.453 A  
HETATM   18  C   UNL     1     -13.378   8.910  71.928  1.00  0.00    -0.405 A  
HETATM   19  N   UNL     1     -12.345   8.107  72.252  1.00  0.00    -0.336 NA 
HETATM   20  C   UNL     1     -11.125   8.500  71.833  1.00  0.00    -0.325 A  
HETATM   21  C   UNL     1     -10.889   9.668  71.122  1.00  0.00    -0.404 A  
ENDBRANCH  10  16
ENDBRANCH   2   7
TORSDOF 3
ENDMDL
MODEL       85
REMARK 921   NORMALIZED FREE ENERGY PREDICTED BY IDOCK:   -3.87 KCAL/MOL
REMARK 922        TOTAL FREE ENERGY PREDICTED BY IDOCK:   -4.97 KCAL/MOL
REMARK 923 INTER-LIGAND FREE ENERGY PREDICTED BY IDOCK:   -5.71 KCAL/MOL
REMARK 924 INTRA-LIGAND FREE ENERGY PREDICTED BY IDOCK:    0.74 KCAL/MOL
REMARK 927      BINDING AFFINITY PREDICTED BY RF-SCORE:    0.00 PKD
ROOT
HETATM    1  C   UNL     1     -11.196  10.815  69.206  1.00  0.00    -0.333 C  
HETATM    2  C   UNL     1     -11.194  10.138  67.833  1.00  0.00    -0.163 C  
ENDROOT
BRANCH   2   3
HETATM    3  C   UNL     1      -9.867   9.361  67.501  1.00  0.00    -0.220 C  
HETATM    4  C   UNL     1      -9.733   9.171  65.972  1.00  0.00    -0.358 C  
HETATM    5  C   UNL     1      -9.901   7.953  68.136  1.00  0.00    -0.193 C  
HETATM    6  C   UNL     1      -8.602  10.079  68.010  1.00  0.00    -0.121 C  
ENDBRANCH   2   3
BRANCH   2   7
HETATM    7  N   UNL     1     -11.489  11.122  66.783  1.00  0.00    -0.354 NA 
HETATM    8  H   UNL     1     -11.734  10.783  65.853  1.00  0.00     0.000 HD 
HETATM    9  C   UNL     1     -11.449  12.480  66.999  1.00  0.00    -0.356 C  
HETATM   10  N   UNL     1     -10.816  12.954  68.033  1.00  0.00    -0.233 NA 
HETATM   11  N   UNL     1     -12.224  13.221  66.150  1.00  0.00    -0.420 NA 
HETATM   12  N   UNL     1     -12.891  12.407  63.781  1.00  0.00    -0.781 NA 
HETATM   13  H   UNL     1     -12.540  14.144  66.449  1.00  0.00     0.000 HD 
HETATM   14  C   UNL     1     -12.607  12.740  64.853  1.00  0.00    -0.470 C  
HETATM   15  H   UNL     1     -10.363  12.282  68.653  1.00  0.00     0.000 HD 
BRANCH  10  16
HETATM   16  C   UNL     1     -10.705  14.320  68.367  1.00  0.00    -0.251 A  
HETATM   17  C   UNL     1     -11.378  14.725  69.517  1.00  0.00    -0.312 A  
HETATM   18  C   UNL     1     -11.277  16.042  69.932  1.00  0.00    -0.361 A  
HETATM   19  N   UNL     1     -10.555  16.975  69.281  1.00  0.00    -0.323 NA 
HETATM   20  C   UNL     1      -9.881  16.559  68.189  1.00  0.00    -0.244 A  
HETATM   21  C   UNL     1      -9.910  15.257  67.710  1.00  0.00    -0.220 A  
ENDBRANCH  10  16
ENDBRANCH   2   7
TORSDOF 3
ENDMDL
MODEL       86
REMARK 921   NORMALIZED FREE ENERGY PREDICTED BY IDOCK:   -3.85 KCAL/MOL
REMARK 922        TOTAL FREE ENERGY PREDICTED BY IDOCK:   -4.95 KCAL/MOL
REMARK 923 INTER-LIGAND FREE ENERGY PREDICTED BY IDOCK:   -4.49 KCAL/MOL
REMARK 924 INTRA-LIGAND FREE ENERGY PREDICTED BY IDOCK:   -0.46 KCAL/MOL
REMARK 927      BINDING AFFINITY PREDICTED BY RF-SCORE:    0.00 PKD
ROOT
HETATM    1  C   UNL     1     -10.221   8.778  71.892  1.00  0.00    -0.415 C  
HETATM    2  C   UNL     1     -10.129   8.987  70.378  1.00  0.00    -0.207 C  
ENDROOT
BRANCH   2   3
HETATM    3  C   UNL     1      -9.741   7.693  69.572  1.00  0.00    -0.168 C  
HETATM    4  C   UNL     1     -10.577   6.490  70.066  1.00  0.00    -0.280 C  
HETATM    5  C   UNL     1      -8.254   7.345  69.809  1.00  0.00    -0.129 C  
HETATM    6  C   UNL     1      -9.956   7.839  68.053  1.00  0.00    -0.210 C  
ENDBRANCH   2   3
BRANCH   2   7
HETATM    7  N   UNL     1      -9.196  10.080  70.074  1.00  0.00    -0.378 NA 
HETATM    8  H   UNL     1      -8.268  10.061  70.497  1.00  0.00     0.000 HD 
HETATM    9  C   UNL     1      -9.518  11.129  69.243  1.00  0.00     0.119 C  
HETATM   10  N   UNL     1     -10.766  11.380  68.970  1.00  0.00    -0.226 NA 
HETATM   11  N   UNL     1      -8.449  11.742  68.651  1.00  0.00    -0.303 NA 
HETATM   12  N   UNL     1      -6.066  11.716  69.673  1.00  0.00    -0.103 NA 
HETATM   13  H   UNL     1      -8.593  12.252  67.779  1.00  0.00     0.000 HD 
HETATM   14  C   UNL     1      -7.131  11.692  69.218  1.00  0.00    -0.055 C  
HETATM   15  H   UNL     1     -11.468  10.777  69.396  1.00  0.00     0.000 HD 
BRANCH  10  16
HETATM   16  C   UNL     1     -11.225  12.419  68.133  1.00  0.00    -0.265 A  
HETATM   17  C   UNL     1     -11.585  12.047  66.840  1.00  0.00    -0.389 A  
HETATM   18  C   UNL     1     -12.087  13.005  65.975  1.00  0.00    -0.432 A  
HETATM   19  N   UNL     1     -12.254  14.300  66.313  1.00  0.00    -0.433 NA 
HETATM   20  C   UNL     1     -11.934  14.636  67.580  1.00  0.00    -0.278 A  
HETATM   21  C   UNL     1     -11.439  13.741  68.517  1.00  0.00    -0.342 A  
ENDBRANCH  10  16
ENDBRANCH   2   7
TORSDOF 3
ENDMDL
MODEL       87
REMARK 921   NORMALIZED FREE ENERGY PREDICTED BY IDOCK:   -3.84 KCAL/MOL
REMARK 922        TOTAL FREE ENERGY PREDICTED BY IDOCK:   -4.95 KCAL/MOL
REMARK 923 INTER-LIGAND FREE ENERGY PREDICTED BY IDOCK:   -6.18 KCAL/MOL
REMARK 924 INTRA-LIGAND FREE ENERGY PREDICTED BY IDOCK:    1.23 KCAL/MOL
REMARK 927      BINDING AFFINITY PREDICTED BY RF-SCORE:    0.00 PKD
ROOT
HETATM    1  C   UNL     1     -13.014   9.679  72.169  1.00  0.00    -0.493 C  
HETATM    2  C   UNL     1     -12.304   8.823  71.117  1.00  0.00    -0.219 C  
ENDROOT
BRANCH   2   3
HETATM    3  C   UNL     1     -11.134   7.940  71.689  1.00  0.00    -0.285 C  
HETATM    4  C   UNL     1     -11.354   7.682  73.198  1.00  0.00    -0.231 C  
HETATM    5  C   UNL     1      -9.787   8.682  71.544  1.00  0.00    -0.342 C  
HETATM    6  C   UNL     1     -11.002   6.577  70.981  1.00  0.00    -0.314 C  
ENDBRANCH   2   3
BRANCH   2   7
HETATM    7  N   UNL     1     -11.817   9.670  70.020  1.00  0.00    -0.457 NA 
HETATM    8  H   UNL     1     -11.286   9.234  69.266  1.00  0.00     0.000 HD 
HETATM    9  C   UNL     1     -12.046  11.026  69.964  1.00  0.00    -0.364 C  
HETATM   10  N   UNL     1     -12.397  11.669  71.040  1.00  0.00    -0.342 NA 
HETATM   11  N   UNL     1     -12.017  11.563  68.707  1.00  0.00    -0.446 NA 
HETATM   12  N   UNL     1     -10.697  10.492  66.750  1.00  0.00    -0.221 NA 
HETATM   13  H   UNL     1     -12.518  12.434  68.530  1.00  0.00     0.000 HD 
HETATM   14  C   UNL     1     -11.303  10.939  67.629  1.00  0.00    -0.270 C  
HETATM   15  H   UNL     1     -12.486  11.128  71.900  1.00  0.00     0.000 HD 
BRANCH  10  16
HETATM   16  C   UNL     1     -12.664  13.052  71.114  1.00  0.00    -0.283 A  
HETATM   17  C   UNL     1     -13.849  13.413  71.749  1.00  0.00    -0.245 A  
HETATM   18  C   UNL     1     -14.156  14.755  71.899  1.00  0.00    -0.518 A  
HETATM   19  N   UNL     1     -13.363  15.754  71.461  1.00  0.00    -0.467 NA 
HETATM   20  C   UNL     1     -12.202  15.388  70.880  1.00  0.00    -0.373 A  
HETATM   21  C   UNL     1     -11.806  14.070  70.702  1.00  0.00    -0.310 A  
ENDBRANCH  10  16
ENDBRANCH   2   7
TORSDOF 3
ENDMDL
MODEL       88
REMARK 921   NORMALIZED FREE ENERGY PREDICTED BY IDOCK:   -3.83 KCAL/MOL
REMARK 922        TOTAL FREE ENERGY PREDICTED BY IDOCK:   -4.93 KCAL/MOL
REMARK 923 INTER-LIGAND FREE ENERGY PREDICTED BY IDOCK:   -5.52 KCAL/MOL
REMARK 924 INTRA-LIGAND FREE ENERGY PREDICTED BY IDOCK:    0.59 KCAL/MOL
REMARK 927      BINDING AFFINITY PREDICTED BY RF-SCORE:    0.00 PKD
ROOT
HETATM    1  C   UNL     1      -8.634   9.239  68.887  1.00  0.00    -0.130 C  
HETATM    2  C   UNL     1      -9.616   8.701  67.842  1.00  0.00    -0.149 C  
ENDROOT
BRANCH   2   3
HETATM    3  C   UNL     1      -9.890   7.156  67.954  1.00  0.00    -0.170 C  
HETATM    4  C   UNL     1     -10.927   6.723  66.892  1.00  0.00    -0.370 C  
HETATM    5  C   UNL     1     -10.487   6.821  69.339  1.00  0.00    -0.244 C  
HETATM    6  C   UNL     1      -8.622   6.300  67.766  1.00  0.00    -0.115 C  
ENDBRANCH   2   3
BRANCH   2   7
HETATM    7  N   UNL     1      -9.153   9.042  66.491  1.00  0.00    -0.153 NA 
HETATM    8  H   UNL     1      -8.347   8.546  66.111  1.00  0.00     0.000 HD 
HETATM    9  C   UNL     1      -9.759  10.003  65.714  1.00  0.00    -0.257 C  
HETATM   10  N   UNL     1     -10.541  10.885  66.266  1.00  0.00    -0.241 NA 
HETATM   11  N   UNL     1      -9.586   9.847  64.367  1.00  0.00    -0.405 NA 
HETATM   12  N   UNL     1      -7.566   8.584  63.344  1.00  0.00    -0.116 NA 
HETATM   13  H   UNL     1     -10.266  10.261  63.730  1.00  0.00     0.000 HD 
HETATM   14  C   UNL     1      -8.475   9.119  63.821  1.00  0.00    -0.180 C  
HETATM   15  H   UNL     1     -10.672  10.828  67.276  1.00  0.00     0.000 HD 
BRANCH  10  16
HETATM   16  C   UNL     1     -11.222  11.914  65.583  1.00  0.00    -0.306 A  
HETATM   17  C   UNL     1     -11.265  11.803  64.196  1.00  0.00    -0.437 A  
HETATM   18  C   UNL     1     -11.955  12.752  63.460  1.00  0.00    -0.555 A  
HETATM   19  N   UNL     1     -12.601  13.797  64.014  1.00  0.00    -0.692 NA 
HETATM   20  C   UNL     1     -12.580  13.872  65.361  1.00  0.00    -0.507 A  
HETATM   21  C   UNL     1     -11.929  12.958  66.177  1.00  0.00    -0.491 A  
ENDBRANCH  10  16
ENDBRANCH   2   7
TORSDOF 3
ENDMDL
MODEL       89
REMARK 921   NORMALIZED FREE ENERGY PREDICTED BY IDOCK:   -3.82 KCAL/MOL
REMARK 922        TOTAL FREE ENERGY PREDICTED BY IDOCK:   -4.92 KCAL/MOL
REMARK 923 INTER-LIGAND FREE ENERGY PREDICTED BY IDOCK:   -4.74 KCAL/MOL
REMARK 924 INTRA-LIGAND FREE ENERGY PREDICTED BY IDOCK:   -0.17 KCAL/MOL
REMARK 927      BINDING AFFINITY PREDICTED BY RF-SCORE:    0.00 PKD
ROOT
HETATM    1  C   UNL     1      -9.453  14.800  65.708  1.00  0.00    -0.209 C  
HETATM    2  C   UNL     1      -9.133  15.774  66.846  1.00  0.00    -0.235 C  
ENDROOT
BRANCH   2   3
HETATM    3  C   UNL     1      -9.853  15.438  68.203  1.00  0.00    -0.213 C  
HETATM    4  C   UNL     1     -10.589  14.082  68.090  1.00  0.00    -0.252 C  
HETATM    5  C   UNL     1     -10.918  16.511  68.520  1.00  0.00    -0.350 C  
HETATM    6  C   UNL     1      -8.885  15.363  69.400  1.00  0.00    -0.251 C  
ENDBRANCH   2   3
BRANCH   2   7
HETATM    7  N   UNL     1      -9.435  17.151  66.432  1.00  0.00    -0.272 NA 
HETATM    8  H   UNL     1     -10.149  17.301  65.720  1.00  0.00     0.000 HD 
HETATM    9  C   UNL     1      -8.797  18.248  66.964  1.00  0.00    -0.266 C  
HETATM   10  N   UNL     1      -7.667  18.099  67.594  1.00  0.00    -0.221 NA 
HETATM   11  N   UNL     1      -9.507  19.415  66.898  1.00  0.00    -0.318 NA 
HETATM   12  N   UNL     1     -11.343  19.846  65.118  1.00  0.00     0.131 NA 
HETATM   13  H   UNL     1      -9.296  20.160  67.561  1.00  0.00     0.000 HD 
HETATM   14  C   UNL     1     -10.540  19.624  65.922  1.00  0.00    -0.466 C  
HETATM   15  H   UNL     1      -7.293  17.154  67.666  1.00  0.00     0.000 HD 
BRANCH  10  16
HETATM   16  C   UNL     1      -6.919  19.139  68.185  1.00  0.00    -0.251 A  
HETATM   17  C   UNL     1      -6.893  19.157  69.577  1.00  0.00    -0.243 A  
HETATM   18  C   UNL     1      -6.142  20.122  70.228  1.00  0.00    -0.358 A  
HETATM   19  N   UNL     1      -5.421  21.062  69.586  1.00  0.00    -0.424 NA 
HETATM   20  C   UNL     1      -5.428  21.009  68.238  1.00  0.00    -0.332 A  
HETATM   21  C   UNL     1      -6.137  20.070  67.504  1.00  0.00    -0.215 A  
ENDBRANCH  10  16
ENDBRANCH   2   7
TORSDOF 3
ENDMDL
MODEL       90
REMARK 921   NORMALIZED FREE ENERGY PREDICTED BY IDOCK:   -3.79 KCAL/MOL
REMARK 922        TOTAL FREE ENERGY PREDICTED BY IDOCK:   -4.89 KCAL/MOL
REMARK 923 INTER-LIGAND FREE ENERGY PREDICTED BY IDOCK:   -4.86 KCAL/MOL
REMARK 924 INTRA-LIGAND FREE ENERGY PREDICTED BY IDOCK:   -0.03 KCAL/MOL
REMARK 927      BINDING AFFINITY PREDICTED BY RF-SCORE:    0.00 PKD
ROOT
HETATM    1  C   UNL     1     -10.517   8.667  72.125  1.00  0.00    -0.411 C  
HETATM    2  C   UNL     1     -11.077   9.822  71.291  1.00  0.00    -0.304 C  
ENDROOT
BRANCH   2   3
HETATM    3  C   UNL     1     -12.618  10.070  71.488  1.00  0.00    -0.525 C  
HETATM    4  C   UNL     1     -13.146   9.216  72.663  1.00  0.00    -0.345 C  
HETATM    5  C   UNL     1     -13.393   9.638  70.223  1.00  0.00     0.555 C  
HETATM    6  C   UNL     1     -12.962  11.546  71.772  1.00  0.00    -0.500 C  
ENDBRANCH   2   3
BRANCH   2   7
HETATM    7  N   UNL     1     -10.769   9.616  69.869  1.00  0.00    -0.235 NA 
HETATM    8  H   UNL     1     -10.582   8.668  69.544  1.00  0.00     0.000 HD 
HETATM    9  C   UNL     1     -10.721  10.645  68.958  1.00  0.00    -0.221 C  
HETATM   10  N   UNL     1     -10.604  11.874  69.372  1.00  0.00    -0.444 NA 
HETATM   11  N   UNL     1     -10.950  10.277  67.661  1.00  0.00    -0.303 NA 
HETATM   12  N   UNL     1     -10.507   7.879  66.780  1.00  0.00    -0.310 NA 
HETATM   13  H   UNL     1     -11.292  10.976  67.001  1.00  0.00     0.000 HD 
HETATM   14  C   UNL     1     -10.726   8.936  67.199  1.00  0.00    -0.133 C  
HETATM   15  H   UNL     1     -10.548  12.024  70.379  1.00  0.00     0.000 HD 
BRANCH  10  16
HETATM   16  C   UNL     1     -10.548  13.014  68.543  1.00  0.00    -0.258 A  
HETATM   17  C   UNL     1      -9.286  13.364  68.070  1.00  0.00    -0.217 A  
HETATM   18  C   UNL     1      -9.160  14.445  67.214  1.00  0.00    -0.214 A  
HETATM   19  N   UNL     1     -10.202  15.194  66.801  1.00  0.00    -0.259 NA 
HETATM   20  C   UNL     1     -11.422  14.820  67.239  1.00  0.00    -0.366 A  
HETATM   21  C   UNL     1     -11.644  13.742  68.085  1.00  0.00    -0.370 A  
ENDBRANCH  10  16
ENDBRANCH   2   7
TORSDOF 3
ENDMDL
MODEL       91
REMARK 921   NORMALIZED FREE ENERGY PREDICTED BY IDOCK:   -3.79 KCAL/MOL
REMARK 922        TOTAL FREE ENERGY PREDICTED BY IDOCK:   -4.88 KCAL/MOL
REMARK 923 INTER-LIGAND FREE ENERGY PREDICTED BY IDOCK:   -4.50 KCAL/MOL
REMARK 924 INTRA-LIGAND FREE ENERGY PREDICTED BY IDOCK:   -0.39 KCAL/MOL
REMARK 927      BINDING AFFINITY PREDICTED BY RF-SCORE:    0.00 PKD
ROOT
HETATM    1  C   UNL     1      -8.992  13.530  68.153  1.00  0.00    -0.187 C  
HETATM    2  C   UNL     1      -9.607  14.858  68.602  1.00  0.00    -0.222 C  
ENDROOT
BRANCH   2   3
HETATM    3  C   UNL     1     -10.971  14.708  69.371  1.00  0.00    -0.279 C  
HETATM    4  C   UNL     1     -11.238  13.219  69.691  1.00  0.00    -0.100 C  
HETATM    5  C   UNL     1     -12.138  15.201  68.487  1.00  0.00    -0.146 C  
HETATM    6  C   UNL     1     -11.012  15.500  70.693  1.00  0.00    -0.370 C  
ENDBRANCH   2   3
BRANCH   2   7
HETATM    7  N   UNL     1      -9.764  15.758  67.451  1.00  0.00    -0.222 NA 
HETATM    8  H   UNL     1     -10.425  15.501  66.719  1.00  0.00     0.000 HD 
HETATM    9  C   UNL     1      -9.058  16.931  67.318  1.00  0.00    -0.218 C  
HETATM   10  N   UNL     1      -7.980  17.123  68.022  1.00  0.00    -0.205 NA 
HETATM   11  N   UNL     1      -9.657  17.877  66.533  1.00  0.00    -0.305 NA 
HETATM   12  N   UNL     1     -11.355  17.285  64.665  1.00  0.00    -0.781 NA 
HETATM   13  H   UNL     1      -9.414  18.858  66.669  1.00  0.00     0.000 HD 
HETATM   14  C   UNL     1     -10.617  17.531  65.522  1.00  0.00    -0.092 C  
HETATM   15  H   UNL     1      -7.695  16.376  68.655  1.00  0.00     0.000 HD 
BRANCH  10  16
HETATM   16  C   UNL     1      -7.173  18.279  67.981  1.00  0.00    -0.236 A  
HETATM   17  C   UNL     1      -5.987  18.171  67.259  1.00  0.00    -0.162 A  
HETATM   18  C   UNL     1      -5.165  19.279  67.136  1.00  0.00    -0.158 A  
HETATM   19  N   UNL     1      -5.447  20.479  67.682  1.00  0.00    -0.189 NA 
HETATM   20  C   UNL     1      -6.616  20.577  68.348  1.00  0.00    -0.257 A  
HETATM   21  C   UNL     1      -7.507  19.525  68.507  1.00  0.00    -0.368 A  
ENDBRANCH  10  16
ENDBRANCH   2   7
TORSDOF 3
ENDMDL
MODEL       92
REMARK 921   NORMALIZED FREE ENERGY PREDICTED BY IDOCK:   -3.79 KCAL/MOL
REMARK 922        TOTAL FREE ENERGY PREDICTED BY IDOCK:   -4.88 KCAL/MOL
REMARK 923 INTER-LIGAND FREE ENERGY PREDICTED BY IDOCK:   -4.42 KCAL/MOL
REMARK 924 INTRA-LIGAND FREE ENERGY PREDICTED BY IDOCK:   -0.46 KCAL/MOL
REMARK 927      BINDING AFFINITY PREDICTED BY RF-SCORE:    0.00 PKD
ROOT
HETATM    1  C   UNL     1      -7.182   9.970  68.540  1.00  0.00    -0.076 C  
HETATM    2  C   UNL     1      -8.697  10.079  68.731  1.00  0.00    -0.136 C  
ENDROOT
BRANCH   2   3
HETATM    3  C   UNL     1      -9.432   8.693  68.846  1.00  0.00    -0.146 C  
HETATM    4  C   UNL     1     -10.285   8.651  70.135  1.00  0.00    -0.204 C  
HETATM    5  C   UNL     1      -8.398   7.549  68.943  1.00  0.00    -0.129 C  
HETATM    6  C   UNL     1     -10.355   8.396  67.647  1.00  0.00    -0.317 C  
ENDBRANCH   2   3
BRANCH   2   7
HETATM    7  N   UNL     1      -9.286  10.883  67.652  1.00  0.00    -0.155 NA 
HETATM    8  H   UNL     1      -9.044  10.658  66.687  1.00  0.00     0.000 HD 
HETATM    9  C   UNL     1     -10.150  11.928  67.885  1.00  0.00    -0.192 C  
HETATM   10  N   UNL     1     -10.211  12.468  69.069  1.00  0.00    -0.426 NA 
HETATM   11  N   UNL     1     -10.995  12.219  66.850  1.00  0.00    -0.254 NA 
HETATM   12  N   UNL     1     -10.439  11.657  64.381  1.00  0.00    -0.298 NA 
HETATM   13  H   UNL     1     -11.874  12.697  67.048  1.00  0.00     0.000 HD 
HETATM   14  C   UNL     1     -10.682  11.873  65.492  1.00  0.00    -0.283 C  
HETATM   15  H   UNL     1      -9.598  12.086  69.789  1.00  0.00     0.000 HD 
BRANCH  10  16
HETATM   16  C   UNL     1     -11.055  13.537  69.436  1.00  0.00    -0.119 A  
HETATM   17  C   UNL     1     -12.096  13.223  70.305  1.00  0.00    -0.405 A  
HETATM   18  C   UNL     1     -12.938  14.231  70.745  1.00  0.00    -0.304 A  
HETATM   19  N   UNL     1     -12.810  15.522  70.379  1.00  0.00    -0.365 NA 
HETATM   20  C   UNL     1     -11.775  15.816  69.565  1.00  0.00    -0.360 A  
HETATM   21  C   UNL     1     -10.873  14.874  69.088  1.00  0.00    -0.253 A  
ENDBRANCH  10  16
ENDBRANCH   2   7
TORSDOF 3
ENDMDL
MODEL       93
REMARK 921   NORMALIZED FREE ENERGY PREDICTED BY IDOCK:   -3.76 KCAL/MOL
REMARK 922        TOTAL FREE ENERGY PREDICTED BY IDOCK:   -4.85 KCAL/MOL
REMARK 923 INTER-LIGAND FREE ENERGY PREDICTED BY IDOCK:   -4.36 KCAL/MOL
REMARK 924 INTRA-LIGAND FREE ENERGY PREDICTED BY IDOCK:   -0.49 KCAL/MOL
REMARK 927      BINDING AFFINITY PREDICTED BY RF-SCORE:    0.00 PKD
ROOT
HETATM    1  C   UNL     1      -7.368   7.125  70.632  1.00  0.00    -0.075 C  
HETATM    2  C   UNL     1      -8.772   7.734  70.566  1.00  0.00    -0.140 C  
ENDROOT
BRANCH   2   3
HETATM    3  C   UNL     1      -9.726   7.279  71.730  1.00  0.00    -0.167 C  
HETATM    4  C   UNL     1      -8.895   6.754  72.923  1.00  0.00    -0.136 C  
HETATM    5  C   UNL     1     -10.628   6.118  71.255  1.00  0.00    -0.295 C  
HETATM    6  C   UNL     1     -10.641   8.410  72.240  1.00  0.00    -0.412 C  
ENDBRANCH   2   3
BRANCH   2   7
HETATM    7  N   UNL     1      -9.384   7.453  69.261  1.00  0.00    -0.154 NA 
HETATM    8  H   UNL     1      -9.356   6.497  68.905  1.00  0.00     0.000 HD 
HETATM    9  C   UNL     1      -9.994   8.421  68.497  1.00  0.00    -0.187 C  
HETATM   10  N   UNL     1      -9.753   9.679  68.730  1.00  0.00    -0.159 NA 
HETATM   11  N   UNL     1     -10.938   7.955  67.624  1.00  0.00    -0.512 NA 
HETATM   12  N   UNL     1     -10.925   5.533  66.697  1.00  0.00    -0.177 NA 
HETATM   13  H   UNL     1     -11.671   8.588  67.304  1.00  0.00     0.000 HD 
HETATM   14  C   UNL     1     -10.930   6.601  67.144  1.00  0.00    -0.408 C  
HETATM   15  H   UNL     1      -9.104   9.898  69.485  1.00  0.00     0.000 HD 
BRANCH  10  16
HETATM   16  C   UNL     1     -10.316  10.762  68.024  1.00  0.00    -0.182 A  
HETATM   17  C   UNL     1      -9.694  11.100  66.825  1.00  0.00    -0.220 A  
HETATM   18  C   UNL     1     -10.219  12.124  66.055  1.00  0.00    -0.237 A  
HETATM   19  N   UNL     1     -11.314  12.829  66.400  1.00  0.00    -0.306 NA 
HETATM   20  C   UNL     1     -11.926  12.467  67.546  1.00  0.00    -0.219 A  
HETATM   21  C   UNL     1     -11.481  11.444  68.371  1.00  0.00    -0.367 A  
ENDBRANCH  10  16
ENDBRANCH   2   7
TORSDOF 3
ENDMDL
MODEL       94
REMARK 921   NORMALIZED FREE ENERGY PREDICTED BY IDOCK:   -3.74 KCAL/MOL
REMARK 922        TOTAL FREE ENERGY PREDICTED BY IDOCK:   -4.82 KCAL/MOL
REMARK 923 INTER-LIGAND FREE ENERGY PREDICTED BY IDOCK:   -4.93 KCAL/MOL
REMARK 924 INTRA-LIGAND FREE ENERGY PREDICTED BY IDOCK:    0.11 KCAL/MOL
REMARK 927      BINDING AFFINITY PREDICTED BY RF-SCORE:    0.00 PKD
ROOT
HETATM    1  C   UNL     1     -12.558  10.711  71.171  1.00  0.00    -0.526 C  
HETATM    2  C   UNL     1     -11.794  10.567  69.851  1.00  0.00    -0.282 C  
ENDROOT
BRANCH   2   3
HETATM    3  C   UNL     1     -10.679   9.458  69.871  1.00  0.00    -0.258 C  
HETATM    4  C   UNL     1      -9.330  10.071  70.313  1.00  0.00    -0.012 C  
HETATM    5  C   UNL     1     -10.477   8.881  68.453  1.00  0.00    -0.230 C  
HETATM    6  C   UNL     1     -11.008   8.286  70.816  1.00  0.00    -0.266 C  
ENDBRANCH   2   3
BRANCH   2   7
HETATM    7  N   UNL     1     -11.224  11.861  69.453  1.00  0.00    -0.381 NA 
HETATM    8  H   UNL     1     -11.049  12.560  70.175  1.00  0.00     0.000 HD 
HETATM    9  C   UNL     1     -10.915  12.172  68.149  1.00  0.00    -0.230 C  
HETATM   10  N   UNL     1     -11.431  11.477  67.176  1.00  0.00    -0.497 NA 
HETATM   11  N   UNL     1      -9.950  13.129  67.999  1.00  0.00    -0.227 NA 
HETATM   12  N   UNL     1      -9.452  14.921  69.805  1.00  0.00     0.065 NA 
HETATM   13  H   UNL     1      -9.413  13.157  67.132  1.00  0.00     0.000 HD 
HETATM   14  C   UNL     1      -9.669  14.095  69.023  1.00  0.00     0.009 C  
HETATM   15  H   UNL     1     -12.060  10.715  67.429  1.00  0.00     0.000 HD 
BRANCH  10  16
HETATM   16  C   UNL     1     -11.192  11.692  65.803  1.00  0.00    -0.230 A  
HETATM   17  C   UNL     1     -10.295  10.817  65.195  1.00  0.00    -0.341 A  
HETATM   18  C   UNL     1     -10.045  10.938  63.838  1.00  0.00    -0.361 A  
HETATM   19  N   UNL     1     -10.626  11.867  63.054  1.00  0.00    -0.233 NA 
HETATM   20  C   UNL     1     -11.519  12.684  63.650  1.00  0.00    -0.495 A  
HETATM   21  C   UNL     1     -11.843  12.624  64.998  1.00  0.00    -0.439 A  
ENDBRANCH  10  16
ENDBRANCH   2   7
TORSDOF 3
ENDMDL
MODEL       95
REMARK 921   NORMALIZED FREE ENERGY PREDICTED BY IDOCK:   -3.74 KCAL/MOL
REMARK 922        TOTAL FREE ENERGY PREDICTED BY IDOCK:   -4.82 KCAL/MOL
REMARK 923 INTER-LIGAND FREE ENERGY PREDICTED BY IDOCK:   -5.37 KCAL/MOL
REMARK 924 INTRA-LIGAND FREE ENERGY PREDICTED BY IDOCK:    0.55 KCAL/MOL
REMARK 927      BINDING AFFINITY PREDICTED BY RF-SCORE:    0.00 PKD
ROOT
HETATM    1  C   UNL     1      -9.579  13.727  68.931  1.00  0.00     0.055 C  
HETATM    2  C   UNL     1     -10.240  15.064  69.277  1.00  0.00    -0.241 C  
ENDROOT
BRANCH   2   3
HETATM    3  C   UNL     1     -11.544  14.931  70.147  1.00  0.00    -0.333 C  
HETATM    4  C   UNL     1     -12.078  13.482  70.084  1.00  0.00    -0.425 C  
HETATM    5  C   UNL     1     -12.652  15.852  69.589  1.00  0.00     0.265 C  
HETATM    6  C   UNL     1     -11.323  15.300  71.627  1.00  0.00    -0.440 C  
ENDBRANCH   2   3
BRANCH   2   7
HETATM    7  N   UNL     1     -10.517  15.824  68.051  1.00  0.00    -0.263 NA 
HETATM    8  H   UNL     1     -10.528  16.843  68.100  1.00  0.00     0.000 HD 
HETATM    9  C   UNL     1     -10.762  15.222  66.838  1.00  0.00    -0.313 C  
HETATM   10  N   UNL     1     -11.102  13.966  66.794  1.00  0.00    -0.299 NA 
HETATM   11  N   UNL     1     -10.480  15.994  65.745  1.00  0.00    -0.358 NA 
HETATM   12  N   UNL     1     -10.478  18.586  65.815  1.00  0.00    -0.628 NA 
HETATM   13  H   UNL     1     -10.280  15.537  64.855  1.00  0.00     0.000 HD 
HETATM   14  C   UNL     1     -10.456  17.428  65.811  1.00  0.00    -0.215 C  
HETATM   15  H   UNL     1     -11.177  13.471  67.682  1.00  0.00     0.000 HD 
BRANCH  10  16
HETATM   16  C   UNL     1     -11.375  13.235  65.619  1.00  0.00    -0.304 A  
HETATM   17  C   UNL     1     -10.339  12.438  65.140  1.00  0.00    -0.313 A  
HETATM   18  C   UNL     1     -10.549  11.657  64.016  1.00  0.00    -0.373 A  
HETATM   19  N   UNL     1     -11.716  11.618  63.344  1.00  0.00    -0.336 NA 
HETATM   20  C   UNL     1     -12.721  12.368  63.840  1.00  0.00    -0.353 A  
HETATM   21  C   UNL     1     -12.606  13.168  64.969  1.00  0.00    -0.499 A  
ENDBRANCH  10  16
ENDBRANCH   2   7
TORSDOF 3
ENDMDL
MODEL       96
REMARK 921   NORMALIZED FREE ENERGY PREDICTED BY IDOCK:   -3.72 KCAL/MOL
REMARK 922        TOTAL FREE ENERGY PREDICTED BY IDOCK:   -4.80 KCAL/MOL
REMARK 923 INTER-LIGAND FREE ENERGY PREDICTED BY IDOCK:   -5.31 KCAL/MOL
REMARK 924 INTRA-LIGAND FREE ENERGY PREDICTED BY IDOCK:    0.50 KCAL/MOL
REMARK 927      BINDING AFFINITY PREDICTED BY RF-SCORE:    0.00 PKD
ROOT
HETATM    1  C   UNL     1     -10.656   9.568  68.054  1.00  0.00    -0.282 C  
HETATM    2  C   UNL     1     -10.234   9.674  66.586  1.00  0.00    -0.232 C  
ENDROOT
BRANCH   2   3
HETATM    3  C   UNL     1      -8.677   9.705  66.364  1.00  0.00    -0.148 C  
HETATM    4  C   UNL     1      -8.338  10.519  65.095  1.00  0.00    -0.150 C  
HETATM    5  C   UNL     1      -8.143   8.272  66.145  1.00  0.00    -0.111 C  
HETATM    6  C   UNL     1      -7.909  10.319  67.551  1.00  0.00    -0.102 C  
ENDBRANCH   2   3
BRANCH   2   7
HETATM    7  N   UNL     1     -10.864  10.846  65.962  1.00  0.00    -0.146 NA 
HETATM    8  H   UNL     1     -11.044  10.826  64.958  1.00  0.00     0.000 HD 
HETATM    9  C   UNL     1     -11.221  11.969  66.672  1.00  0.00    -0.327 C  
HETATM   10  N   UNL     1     -10.706  12.183  67.848  1.00  0.00    -0.201 NA 
HETATM   11  N   UNL     1     -12.225  12.709  66.112  1.00  0.00    -0.586 NA 
HETATM   12  N   UNL     1     -12.739  12.687  63.571  1.00  0.00    -0.736 NA 
HETATM   13  H   UNL     1     -12.787  13.313  66.711  1.00  0.00     0.000 HD 
HETATM   14  C   UNL     1     -12.513  12.661  64.706  1.00  0.00    -0.484 C  
HETATM   15  H   UNL     1     -10.042  11.495  68.201  1.00  0.00     0.000 HD 
BRANCH  10  16
HETATM   16  C   UNL     1     -10.992  13.290  68.675  1.00  0.00    -0.264 A  
HETATM   17  C   UNL     1     -11.907  13.067  69.700  1.00  0.00    -0.385 A  
HETATM   18  C   UNL     1     -12.203  14.095  70.580  1.00  0.00    -0.361 A  
HETATM   19  N   UNL     1     -11.650  15.321  70.505  1.00  0.00    -0.279 NA 
HETATM   20  C   UNL     1     -10.739  15.511  69.528  1.00  0.00    -0.272 A  
HETATM   21  C   UNL     1     -10.369  14.535  68.614  1.00  0.00    -0.242 A  
ENDBRANCH  10  16
ENDBRANCH   2   7
TORSDOF 3
ENDMDL
MODEL       97
REMARK 921   NORMALIZED FREE ENERGY PREDICTED BY IDOCK:   -3.69 KCAL/MOL
REMARK 922        TOTAL FREE ENERGY PREDICTED BY IDOCK:   -4.77 KCAL/MOL
REMARK 923 INTER-LIGAND FREE ENERGY PREDICTED BY IDOCK:   -4.35 KCAL/MOL
REMARK 924 INTRA-LIGAND FREE ENERGY PREDICTED BY IDOCK:   -0.42 KCAL/MOL
REMARK 927      BINDING AFFINITY PREDICTED BY RF-SCORE:    0.00 PKD
ROOT
HETATM    1  C   UNL     1     -11.746  10.752  70.568  1.00  0.00    -0.449 C  
HETATM    2  C   UNL     1     -11.651   9.226  70.478  1.00  0.00    -0.217 C  
ENDROOT
BRANCH   2   3
HETATM    3  C   UNL     1     -12.377   8.467  71.649  1.00  0.00    -0.359 C  
HETATM    4  C   UNL     1     -13.446   9.381  72.291  1.00  0.00    -0.539 C  
HETATM    5  C   UNL     1     -11.363   8.100  72.755  1.00  0.00    -0.406 C  
HETATM    6  C   UNL     1     -13.067   7.167  71.190  1.00  0.00    -0.294 C  
ENDBRANCH   2   3
BRANCH   2   7
HETATM    7  N   UNL     1     -10.245   8.810  70.392  1.00  0.00    -0.190 NA 
HETATM    8  H   UNL     1      -9.582   9.189  71.069  1.00  0.00     0.000 HD 
HETATM    9  C   UNL     1      -9.781   7.933  69.439  1.00  0.00    -0.170 C  
HETATM   10  N   UNL     1     -10.487   7.706  68.369  1.00  0.00    -0.268 NA 
HETATM   11  N   UNL     1      -8.647   7.253  69.785  1.00  0.00    -0.140 NA 
HETATM   12  N   UNL     1      -6.935   8.159  71.509  1.00  0.00    -0.056 NA 
HETATM   13  H   UNL     1      -8.449   6.360  69.335  1.00  0.00     0.000 HD 
HETATM   14  C   UNL     1      -7.725   7.758  70.764  1.00  0.00    -0.084 C  
HETATM   15  H   UNL     1     -11.374   8.202  68.279  1.00  0.00     0.000 HD 
BRANCH  10  16
HETATM   16  C   UNL     1     -10.127   6.830  67.324  1.00  0.00    -0.182 A  
HETATM   17  C   UNL     1      -9.098   7.262  66.491  1.00  0.00    -0.186 A  
HETATM   18  C   UNL     1      -8.660   6.435  65.471  1.00  0.00    -0.109 A  
HETATM   19  N   UNL     1      -9.176   5.214  65.228  1.00  0.00    -0.128 NA 
HETATM   20  C   UNL     1     -10.147   4.795  66.065  1.00  0.00    -0.257 A  
HETATM   21  C   UNL     1     -10.637   5.549  67.122  1.00  0.00    -0.313 A  
ENDBRANCH  10  16
ENDBRANCH   2   7
TORSDOF 3
ENDMDL
MODEL       98
REMARK 921   NORMALIZED FREE ENERGY PREDICTED BY IDOCK:   -3.69 KCAL/MOL
REMARK 922        TOTAL FREE ENERGY PREDICTED BY IDOCK:   -4.77 KCAL/MOL
REMARK 923 INTER-LIGAND FREE ENERGY PREDICTED BY IDOCK:   -4.36 KCAL/MOL
REMARK 924 INTRA-LIGAND FREE ENERGY PREDICTED BY IDOCK:   -0.40 KCAL/MOL
REMARK 927      BINDING AFFINITY PREDICTED BY RF-SCORE:    0.00 PKD
ROOT
HETATM    1  C   UNL     1      -7.620  10.389  69.601  1.00  0.00    -0.158 C  
HETATM    2  C   UNL     1      -9.027  10.299  69.003  1.00  0.00    -0.172 C  
ENDROOT
BRANCH   2   3
HETATM    3  C   UNL     1      -9.948   9.222  69.685  1.00  0.00    -0.201 C  
HETATM    4  C   UNL     1     -10.210   8.053  68.707  1.00  0.00    -0.220 C  
HETATM    5  C   UNL     1     -11.319   9.840  70.038  1.00  0.00    -0.269 C  
HETATM    6  C   UNL     1      -9.344   8.641  70.979  1.00  0.00    -0.254 C  
ENDBRANCH   2   3
BRANCH   2   7
HETATM    7  N   UNL     1      -8.947  10.064  67.556  1.00  0.00    -0.134 NA 
HETATM    8  H   UNL     1      -8.339   9.319  67.216  1.00  0.00     0.000 HD 
HETATM    9  C   UNL     1      -9.656  10.803  66.638  1.00  0.00    -0.178 C  
HETATM   10  N   UNL     1     -10.153  11.957  66.980  1.00  0.00    -0.204 NA 
HETATM   11  N   UNL     1      -9.898  10.169  65.451  1.00  0.00    -0.289 NA 
HETATM   12  N   UNL     1      -8.396   8.261  64.543  1.00  0.00    -0.130 NA 
HETATM   13  H   UNL     1     -10.691  10.469  64.883  1.00  0.00     0.000 HD 
HETATM   14  C   UNL     1      -9.071   9.094  64.979  1.00  0.00    -0.156 C  
HETATM   15  H   UNL     1      -9.989  12.272  67.936  1.00  0.00     0.000 HD 
BRANCH  10  16
HETATM   16  C   UNL     1     -10.900  12.806  66.137  1.00  0.00    -0.279 A  
HETATM   17  C   UNL     1     -12.213  13.056  66.529  1.00  0.00    -0.316 A  
HETATM   18  C   UNL     1     -12.993  13.917  65.775  1.00  0.00    -0.276 A  
HETATM   19  N   UNL     1     -12.553  14.540  64.664  1.00  0.00    -0.619 NA 
HETATM   20  C   UNL     1     -11.268  14.316  64.317  1.00  0.00    -0.132 A  
HETATM   21  C   UNL     1     -10.411  13.483  65.021  1.00  0.00    -0.379 A  
ENDBRANCH  10  16
ENDBRANCH   2   7
TORSDOF 3
ENDMDL
MODEL       99
REMARK 921   NORMALIZED FREE ENERGY PREDICTED BY IDOCK:   -3.68 KCAL/MOL
REMARK 922        TOTAL FREE ENERGY PREDICTED BY IDOCK:   -4.76 KCAL/MOL
REMARK 923 INTER-LIGAND FREE ENERGY PREDICTED BY IDOCK:   -4.33 KCAL/MOL
REMARK 924 INTRA-LIGAND FREE ENERGY PREDICTED BY IDOCK:   -0.43 KCAL/MOL
REMARK 927      BINDING AFFINITY PREDICTED BY RF-SCORE:    0.00 PKD
ROOT
HETATM    1  C   UNL     1      -6.321   7.691  69.436  1.00  0.00    -0.035 C  
HETATM    2  C   UNL     1      -7.535   7.149  70.195  1.00  0.00    -0.089 C  
ENDROOT
BRANCH   2   3
HETATM    3  C   UNL     1      -7.316   5.724  70.825  1.00  0.00    -0.084 C  
HETATM    4  C   UNL     1      -5.845   5.285  70.642  1.00  0.00    -0.021 C  
HETATM    5  C   UNL     1      -8.198   4.681  70.103  1.00  0.00    -0.068 C  
HETATM    6  C   UNL     1      -7.652   5.668  72.328  1.00  0.00    -0.101 C  
ENDBRANCH   2   3
BRANCH   2   7
HETATM    7  N   UNL     1      -8.718   7.147  69.323  1.00  0.00    -0.136 NA 
HETATM    8  H   UNL     1      -8.641   6.727  68.398  1.00  0.00     0.000 HD 
HETATM    9  C   UNL     1      -9.925   7.689  69.701  1.00  0.00    -0.185 C  
HETATM   10  N   UNL     1      -9.977   8.526  70.696  1.00  0.00    -0.184 NA 
HETATM   11  N   UNL     1     -11.015   7.168  69.059  1.00  0.00    -0.422 NA 
HETATM   12  N   UNL     1     -10.877   6.075  66.713  1.00  0.00    -0.316 NA 
HETATM   13  H   UNL     1     -11.928   7.228  69.509  1.00  0.00     0.000 HD 
HETATM   14  C   UNL     1     -10.913   6.541  67.772  1.00  0.00    -0.316 C  
HETATM   15  H   UNL     1      -9.100   8.753  71.163  1.00  0.00     0.000 HD 
BRANCH  10  16
HETATM   16  C   UNL     1     -11.149   9.145  71.182  1.00  0.00    -0.323 A  
HETATM   17  C   UNL     1     -11.478  10.368  70.604  1.00  0.00    -0.438 A  
HETATM   18  C   UNL     1     -12.638  11.013  70.998  1.00  0.00    -0.411 A  
HETATM   19  N   UNL     1     -13.486  10.521  71.924  1.00  0.00    -0.325 NA 
HETATM   20  C   UNL     1     -13.171   9.319  72.448  1.00  0.00    -0.426 A  
HETATM   21  C   UNL     1     -12.039   8.595  72.101  1.00  0.00    -0.451 A  
ENDBRANCH  10  16
ENDBRANCH   2   7
TORSDOF 3
ENDMDL
MODEL      100
REMARK 921   NORMALIZED FREE ENERGY PREDICTED BY IDOCK:   -3.67 KCAL/MOL
REMARK 922        TOTAL FREE ENERGY PREDICTED BY IDOCK:   -4.75 KCAL/MOL
REMARK 923 INTER-LIGAND FREE ENERGY PREDICTED BY IDOCK:   -5.57 KCAL/MOL
REMARK 924 INTRA-LIGAND FREE ENERGY PREDICTED BY IDOCK:    0.82 KCAL/MOL
REMARK 927      BINDING AFFINITY PREDICTED BY RF-SCORE:    0.00 PKD
ROOT
HETATM    1  C   UNL     1      -9.167  13.144  66.380  1.00  0.00    -0.134 C  
HETATM    2  C   UNL     1     -10.676  12.903  66.461  1.00  0.00    -0.269 C  
ENDROOT
BRANCH   2   3
HETATM    3  C   UNL     1     -11.475  13.398  65.199  1.00  0.00    -0.316 C  
HETATM    4  C   UNL     1     -10.781  14.636  64.585  1.00  0.00    -0.309 C  
HETATM    5  C   UNL     1     -12.901  13.829  65.607  1.00  0.00    -0.456 C  
HETATM    6  C   UNL     1     -11.601  12.322  64.102  1.00  0.00    -0.463 C  
ENDBRANCH   2   3
BRANCH   2   7
HETATM    7  N   UNL     1     -11.221  13.509  67.683  1.00  0.00    -0.269 NA 
HETATM    8  H   UNL     1     -11.924  12.992  68.212  1.00  0.00     0.000 HD 
HETATM    9  C   UNL     1     -10.827  14.743  68.145  1.00  0.00    -0.254 C  
HETATM   10  N   UNL     1     -10.219  15.572  67.346  1.00  0.00    -0.251 NA 
HETATM   11  N   UNL     1     -10.992  14.934  69.489  1.00  0.00    -0.265 NA 
HETATM   12  N   UNL     1     -12.750  13.640  70.888  1.00  0.00    -0.330 NA 
HETATM   13  H   UNL     1     -10.416  15.629  69.964  1.00  0.00     0.000 HD 
HETATM   14  C   UNL     1     -11.952  14.186  70.252  1.00  0.00    -0.334 C  
HETATM   15  H   UNL     1     -10.061  15.264  66.386  1.00  0.00     0.000 HD 
BRANCH  10  16
HETATM   16  C   UNL     1      -9.762  16.859  67.697  1.00  0.00    -0.249 A  
HETATM   17  C   UNL     1     -10.690  17.891  67.578  1.00  0.00    -0.333 A  
HETATM   18  C   UNL     1     -10.326  19.175  67.948  1.00  0.00    -0.414 A  
HETATM   19  N   UNL     1      -9.108  19.495  68.426  1.00  0.00    -0.353 NA 
HETATM   20  C   UNL     1      -8.232  18.479  68.570  1.00  0.00    -0.335 A  
HETATM   21  C   UNL     1      -8.515  17.161  68.240  1.00  0.00    -0.236 A  
ENDBRANCH  10  16
ENDBRANCH   2   7
TORSDOF 3
ENDMDL
MODEL      101
REMARK 921   NORMALIZED FREE ENERGY PREDICTED BY IDOCK:   -3.67 KCAL/MOL
REMARK 922        TOTAL FREE ENERGY PREDICTED BY IDOCK:   -4.75 KCAL/MOL
REMARK 923 INTER-LIGAND FREE ENERGY PREDICTED BY IDOCK:   -4.69 KCAL/MOL
REMARK 924 INTRA-LIGAND FREE ENERGY PREDICTED BY IDOCK:   -0.06 KCAL/MOL
REMARK 927      BINDING AFFINITY PREDICTED BY RF-SCORE:    0.00 PKD
ROOT
HETATM    1  C   UNL     1     -10.483  10.715  64.861  1.00  0.00    -0.282 C  
HETATM    2  C   UNL     1      -9.437   9.864  65.587  1.00  0.00    -0.235 C  
ENDROOT
BRANCH   2   3
HETATM    3  C   UNL     1      -8.181   9.505  64.711  1.00  0.00    -0.143 C  
HETATM    4  C   UNL     1      -7.978   7.973  64.678  1.00  0.00    -0.151 C  
HETATM    5  C   UNL     1      -6.907  10.122  65.329  1.00  0.00    -0.137 C  
HETATM    6  C   UNL     1      -8.292  10.008  63.258  1.00  0.00    -0.168 C  
ENDBRANCH   2   3
BRANCH   2   7
HETATM    7  N   UNL     1     -10.058   8.644  66.118  1.00  0.00    -0.441 NA 
HETATM    8  H   UNL     1     -10.175   7.845  65.494  1.00  0.00     0.000 HD 
HETATM    9  C   UNL     1     -10.487   8.529  67.420  1.00  0.00    -0.280 C  
HETATM   10  N   UNL     1     -10.681   9.599  68.136  1.00  0.00    -0.327 NA 
HETATM   11  N   UNL     1     -10.538   7.250  67.899  1.00  0.00    -0.307 NA 
HETATM   12  N   UNL     1     -10.822   5.182  66.361  1.00  0.00    -0.221 NA 
HETATM   13  H   UNL     1     -10.483   7.096  68.906  1.00  0.00     0.000 HD 
HETATM   14  C   UNL     1     -10.667   6.115  67.028  1.00  0.00    -0.350 C  
HETATM   15  H   UNL     1     -10.504  10.499  67.689  1.00  0.00     0.000 HD 
BRANCH  10  16
HETATM   16  C   UNL     1     -11.114   9.617  69.478  1.00  0.00    -0.168 A  
HETATM   17  C   UNL     1     -12.232  10.401  69.749  1.00  0.00    -0.166 A  
HETATM   18  C   UNL     1     -12.742  10.431  71.036  1.00  0.00    -0.394 A  
HETATM   19  N   UNL     1     -12.215   9.736  72.063  1.00  0.00    -0.291 NA 
HETATM   20  C   UNL     1     -11.153   8.953  71.777  1.00  0.00    -0.363 A  
HETATM   21  C   UNL     1     -10.586   8.849  70.514  1.00  0.00    -0.262 A  
ENDBRANCH  10  16
ENDBRANCH   2   7
TORSDOF 3
ENDMDL
MODEL      102
REMARK 921   NORMALIZED FREE ENERGY PREDICTED BY IDOCK:   -3.67 KCAL/MOL
REMARK 922        TOTAL FREE ENERGY PREDICTED BY IDOCK:   -4.74 KCAL/MOL
REMARK 923 INTER-LIGAND FREE ENERGY PREDICTED BY IDOCK:   -4.33 KCAL/MOL
REMARK 924 INTRA-LIGAND FREE ENERGY PREDICTED BY IDOCK:   -0.41 KCAL/MOL
REMARK 927      BINDING AFFINITY PREDICTED BY RF-SCORE:    0.00 PKD
ROOT
HETATM    1  C   UNL     1     -12.181  10.740  71.021  1.00  0.00    -0.485 C  
HETATM    2  C   UNL     1     -11.619   9.344  70.737  1.00  0.00    -0.298 C  
ENDROOT
BRANCH   2   3
HETATM    3  C   UNL     1     -12.197   8.216  71.669  1.00  0.00    -0.343 C  
HETATM    4  C   UNL     1     -13.579   8.639  72.218  1.00  0.00    -0.428 C  
HETATM    5  C   UNL     1     -11.268   8.001  72.884  1.00  0.00    -0.389 C  
HETATM    6  C   UNL     1     -12.358   6.862  70.950  1.00  0.00    -0.365 C  
ENDBRANCH   2   3
BRANCH   2   7
HETATM    7  N   UNL     1     -10.152   9.366  70.809  1.00  0.00    -0.285 NA 
HETATM    8  H   UNL     1      -9.709   9.434  71.725  1.00  0.00     0.000 HD 
HETATM    9  C   UNL     1      -9.348   9.298  69.694  1.00  0.00    -0.179 C  
HETATM   10  N   UNL     1      -9.845   9.560  68.520  1.00  0.00    -0.155 NA 
HETATM   11  N   UNL     1      -8.092   8.807  69.919  1.00  0.00    -0.104 NA 
HETATM   12  N   UNL     1      -6.922   8.940  72.229  1.00  0.00    -0.311 NA 
HETATM   13  H   UNL     1      -7.579   8.387  69.144  1.00  0.00     0.000 HD 
HETATM   14  C   UNL     1      -7.473   8.864  71.214  1.00  0.00    -0.103 C  
HETATM   15  H   UNL     1     -10.831   9.815  68.475  1.00  0.00     0.000 HD 
BRANCH  10  16
HETATM   16  C   UNL     1      -9.130   9.522  67.304  1.00  0.00    -0.130 A  
HETATM   17  C   UNL     1      -8.361  10.645  67.011  1.00  0.00    -0.126 A  
HETATM   18  C   UNL     1      -7.597  10.661  65.857  1.00  0.00    -0.138 A  
HETATM   19  N   UNL     1      -7.549   9.637  64.981  1.00  0.00    -0.111 NA 
HETATM   20  C   UNL     1      -8.271   8.542  65.297  1.00  0.00    -0.149 A  
HETATM   21  C   UNL     1      -9.052   8.433  66.439  1.00  0.00    -0.231 A  
ENDBRANCH  10  16
ENDBRANCH   2   7
TORSDOF 3
ENDMDL
MODEL      103
REMARK 921   NORMALIZED FREE ENERGY PREDICTED BY IDOCK:   -3.66 KCAL/MOL
REMARK 922        TOTAL FREE ENERGY PREDICTED BY IDOCK:   -4.74 KCAL/MOL
REMARK 923 INTER-LIGAND FREE ENERGY PREDICTED BY IDOCK:   -5.47 KCAL/MOL
REMARK 924 INTRA-LIGAND FREE ENERGY PREDICTED BY IDOCK:    0.74 KCAL/MOL
REMARK 927      BINDING AFFINITY PREDICTED BY RF-SCORE:    0.00 PKD
ROOT
HETATM    1  C   UNL     1     -10.917  14.779  69.310  1.00  0.00    -0.275 C  
HETATM    2  C   UNL     1     -11.553  14.084  68.103  1.00  0.00    -0.334 C  
ENDROOT
BRANCH   2   3
HETATM    3  C   UNL     1     -11.164  12.567  67.956  1.00  0.00    -0.316 C  
HETATM    4  C   UNL     1      -9.645  12.385  68.180  1.00  0.00    -0.218 C  
HETATM    5  C   UNL     1     -11.477  12.074  66.526  1.00  0.00    -0.413 C  
HETATM    6  C   UNL     1     -11.911  11.652  68.946  1.00  0.00    -0.392 C  
ENDBRANCH   2   3
BRANCH   2   7
HETATM    7  N   UNL     1     -11.233  14.818  66.871  1.00  0.00    -0.340 NA 
HETATM    8  H   UNL     1     -11.793  14.638  66.037  1.00  0.00     0.000 HD 
HETATM    9  C   UNL     1     -10.213  15.737  66.791  1.00  0.00    -0.282 C  
HETATM   10  N   UNL     1      -9.273  15.742  67.692  1.00  0.00    -0.199 NA 
HETATM   11  N   UNL     1     -10.363  16.681  65.814  1.00  0.00    -0.471 NA 
HETATM   12  N   UNL     1     -11.784  16.285  63.682  1.00  0.00    -0.707 NA 
HETATM   13  H   UNL     1      -9.882  17.575  65.912  1.00  0.00     0.000 HD 
HETATM   14  C   UNL     1     -11.178  16.453  64.654  1.00  0.00    -0.192 C  
HETATM   15  H   UNL     1      -9.334  15.046  68.435  1.00  0.00     0.000 HD 
BRANCH  10  16
HETATM   16  C   UNL     1      -8.179  16.632  67.725  1.00  0.00    -0.177 A  
HETATM   17  C   UNL     1      -7.064  16.257  66.980  1.00  0.00    -0.259 A  
HETATM   18  C   UNL     1      -5.968  17.103  66.928  1.00  0.00    -0.189 A  
HETATM   19  N   UNL     1      -5.912  18.288  67.567  1.00  0.00    -0.161 NA 
HETATM   20  C   UNL     1      -7.013  18.653  68.255  1.00  0.00    -0.246 A  
HETATM   21  C   UNL     1      -8.160  17.878  68.348  1.00  0.00    -0.302 A  
ENDBRANCH  10  16
ENDBRANCH   2   7
TORSDOF 3
ENDMDL
MODEL      104
REMARK 921   NORMALIZED FREE ENERGY PREDICTED BY IDOCK:   -3.66 KCAL/MOL
REMARK 922        TOTAL FREE ENERGY PREDICTED BY IDOCK:   -4.74 KCAL/MOL
REMARK 923 INTER-LIGAND FREE ENERGY PREDICTED BY IDOCK:   -4.69 KCAL/MOL
REMARK 924 INTRA-LIGAND FREE ENERGY PREDICTED BY IDOCK:   -0.05 KCAL/MOL
REMARK 927      BINDING AFFINITY PREDICTED BY RF-SCORE:    0.00 PKD
ROOT
HETATM    1  C   UNL     1     -11.261  12.064  66.433  1.00  0.00    -0.389 C  
HETATM    2  C   UNL     1      -9.936  12.155  65.671  1.00  0.00    -0.249 C  
ENDROOT
BRANCH   2   3
HETATM    3  C   UNL     1      -9.392  10.771  65.160  1.00  0.00    -0.254 C  
HETATM    4  C   UNL     1      -7.848  10.805  65.081  1.00  0.00     0.068 C  
HETATM    5  C   UNL     1      -9.917  10.485  63.736  1.00  0.00    -0.324 C  
HETATM    6  C   UNL     1      -9.802   9.590  66.062  1.00  0.00    -0.353 C  
ENDBRANCH   2   3
BRANCH   2   7
HETATM    7  N   UNL     1      -8.925  12.833  66.493  1.00  0.00    -0.399 NA 
HETATM    8  H   UNL     1      -8.178  12.274  66.906  1.00  0.00     0.000 HD 
HETATM    9  C   UNL     1      -8.940  14.188  66.732  1.00  0.00    -0.208 C  
HETATM   10  N   UNL     1     -10.032  14.869  66.532  1.00  0.00    -0.255 NA 
HETATM   11  N   UNL     1      -7.723  14.733  67.033  1.00  0.00    -0.318 NA 
HETATM   12  N   UNL     1      -5.784  13.359  68.070  1.00  0.00    -0.110 NA 
HETATM   13  H   UNL     1      -7.572  15.727  66.864  1.00  0.00     0.000 HD 
HETATM   14  C   UNL     1      -6.652  13.949  67.580  1.00  0.00    -0.164 C  
HETATM   15  H   UNL     1     -10.849  14.356  66.203  1.00  0.00     0.000 HD 
BRANCH  10  16
HETATM   16  C   UNL     1     -10.176  16.258  66.735  1.00  0.00    -0.280 A  
HETATM   17  C   UNL     1     -10.532  16.654  68.021  1.00  0.00    -0.320 A  
HETATM   18  C   UNL     1     -10.647  18.005  68.306  1.00  0.00    -0.285 A  
HETATM   19  N   UNL     1     -10.433  18.978  67.398  1.00  0.00    -0.430 NA 
HETATM   20  C   UNL     1     -10.054  18.579  66.166  1.00  0.00    -0.368 A  
HETATM   21  C   UNL     1      -9.898  17.250  65.797  1.00  0.00    -0.051 A  
ENDBRANCH  10  16
ENDBRANCH   2   7
TORSDOF 3
ENDMDL
MODEL      105
REMARK 921   NORMALIZED FREE ENERGY PREDICTED BY IDOCK:   -3.65 KCAL/MOL
REMARK 922        TOTAL FREE ENERGY PREDICTED BY IDOCK:   -4.72 KCAL/MOL
REMARK 923 INTER-LIGAND FREE ENERGY PREDICTED BY IDOCK:   -4.92 KCAL/MOL
REMARK 924 INTRA-LIGAND FREE ENERGY PREDICTED BY IDOCK:    0.20 KCAL/MOL
REMARK 927      BINDING AFFINITY PREDICTED BY RF-SCORE:    0.00 PKD
ROOT
HETATM    1  C   UNL     1      -7.240  10.023  67.778  1.00  0.00    -0.087 C  
HETATM    2  C   UNL     1      -8.701  10.382  67.493  1.00  0.00    -0.125 C  
ENDROOT
BRANCH   2   3
HETATM    3  C   UNL     1      -9.733   9.278  67.930  1.00  0.00    -0.180 C  
HETATM    4  C   UNL     1     -11.123   9.914  68.162  1.00  0.00    -0.215 C  
HETATM    5  C   UNL     1      -9.293   8.639  69.266  1.00  0.00    -0.153 C  
HETATM    6  C   UNL     1      -9.886   8.149  66.893  1.00  0.00    -0.316 C  
ENDBRANCH   2   3
BRANCH   2   7
HETATM    7  N   UNL     1      -8.873  10.710  66.071  1.00  0.00    -0.168 NA 
HETATM    8  H   UNL     1      -8.737   9.972  65.381  1.00  0.00     0.000 HD 
HETATM    9  C   UNL     1      -9.210  11.969  65.630  1.00  0.00    -0.003 C  
HETATM   10  N   UNL     1      -9.050  12.996  66.415  1.00  0.00    -0.434 NA 
HETATM   11  N   UNL     1      -9.833  12.005  64.414  1.00  0.00    -0.440 NA 
HETATM   12  N   UNL     1      -9.536  10.152  62.625  1.00  0.00    -0.285 NA 
HETATM   13  H   UNL     1     -10.426  12.803  64.185  1.00  0.00     0.000 HD 
HETATM   14  C   UNL     1      -9.678  10.954  63.447  1.00  0.00    -0.352 C  
HETATM   15  H   UNL     1      -8.671  12.819  67.345  1.00  0.00     0.000 HD 
BRANCH  10  16
HETATM   16  C   UNL     1      -9.360  14.332  66.085  1.00  0.00    -0.160 A  
HETATM   17  C   UNL     1     -10.547  14.529  65.383  1.00  0.00    -0.385 A  
HETATM   18  C   UNL     1     -10.939  15.818  65.064  1.00  0.00    -0.417 A  
HETATM   19  N   UNL     1     -10.230  16.916  65.396  1.00  0.00    -0.623 NA 
HETATM   20  C   UNL     1      -9.101  16.711  66.105  1.00  0.00    -0.283 A  
HETATM   21  C   UNL     1      -8.641  15.457  66.483  1.00  0.00    -0.294 A  
ENDBRANCH  10  16
ENDBRANCH   2   7
TORSDOF 3
ENDMDL
MODEL      106
REMARK 921   NORMALIZED FREE ENERGY PREDICTED BY IDOCK:   -3.65 KCAL/MOL
REMARK 922        TOTAL FREE ENERGY PREDICTED BY IDOCK:   -4.72 KCAL/MOL
REMARK 923 INTER-LIGAND FREE ENERGY PREDICTED BY IDOCK:   -5.59 KCAL/MOL
REMARK 924 INTRA-LIGAND FREE ENERGY PREDICTED BY IDOCK:    0.87 KCAL/MOL
REMARK 927      BINDING AFFINITY PREDICTED BY RF-SCORE:    0.00 PKD
ROOT
HETATM    1  C   UNL     1     -12.381  12.778  66.040  1.00  0.00    -0.251 C  
HETATM    2  C   UNL     1     -12.178  14.253  66.394  1.00  0.00    -0.401 C  
ENDROOT
BRANCH   2   3
HETATM    3  C   UNL     1     -10.891  14.896  65.759  1.00  0.00    -0.343 C  
HETATM    4  C   UNL     1     -11.267  15.694  64.490  1.00  0.00    -0.337 C  
HETATM    5  C   UNL     1      -9.901  13.791  65.328  1.00  0.00    -0.155 C  
HETATM    6  C   UNL     1     -10.150  15.844  66.723  1.00  0.00    -0.276 C  
ENDBRANCH   2   3
BRANCH   2   7
HETATM    7  N   UNL     1     -12.173  14.427  67.852  1.00  0.00    -0.620 NA 
HETATM    8  H   UNL     1     -12.482  15.320  68.238  1.00  0.00     0.000 HD 
HETATM    9  C   UNL     1     -11.769  13.440  68.722  1.00  0.00    -0.340 C  
HETATM   10  N   UNL     1     -11.053  12.445  68.285  1.00  0.00    -0.226 NA 
HETATM   11  N   UNL     1     -12.297  13.531  69.980  1.00  0.00    -0.287 NA 
HETATM   12  N   UNL     1     -13.111  15.768  71.007  1.00  0.00    -0.521 NA 
HETATM   13  H   UNL     1     -12.356  12.688  70.552  1.00  0.00     0.000 HD 
HETATM   14  C   UNL     1     -12.769  14.774  70.520  1.00  0.00    -0.343 C  
HETATM   15  H   UNL     1     -10.813  12.440  67.294  1.00  0.00     0.000 HD 
BRANCH  10  16
HETATM   16  C   UNL     1     -10.582  11.371  69.070  1.00  0.00    -0.191 A  
HETATM   17  C   UNL     1      -9.226  11.079  68.955  1.00  0.00    -0.139 A  
HETATM   18  C   UNL     1      -8.683  10.068  69.729  1.00  0.00    -0.179 A  
HETATM   19  N   UNL     1      -9.398   9.334  70.605  1.00  0.00    -0.257 NA 
HETATM   20  C   UNL     1     -10.703   9.653  70.731  1.00  0.00    -0.331 A  
HETATM   21  C   UNL     1     -11.327  10.660  70.008  1.00  0.00    -0.400 A  
ENDBRANCH  10  16
ENDBRANCH   2   7
TORSDOF 3
ENDMDL
MODEL      107
REMARK 921   NORMALIZED FREE ENERGY PREDICTED BY IDOCK:   -3.56 KCAL/MOL
REMARK 922        TOTAL FREE ENERGY PREDICTED BY IDOCK:   -4.62 KCAL/MOL
REMARK 923 INTER-LIGAND FREE ENERGY PREDICTED BY IDOCK:   -4.18 KCAL/MOL
REMARK 924 INTRA-LIGAND FREE ENERGY PREDICTED BY IDOCK:   -0.43 KCAL/MOL
REMARK 927      BINDING AFFINITY PREDICTED BY RF-SCORE:    0.00 PKD
ROOT
HETATM    1  C   UNL     1     -10.925   6.396  72.071  1.00  0.00    -0.289 C  
HETATM    2  C   UNL     1     -10.156   6.529  70.753  1.00  0.00    -0.185 C  
ENDROOT
BRANCH   2   3
HETATM    3  C   UNL     1      -9.341   5.245  70.352  1.00  0.00    -0.208 C  
HETATM    4  C   UNL     1      -9.860   4.686  69.007  1.00  0.00    -0.224 C  
HETATM    5  C   UNL     1      -9.535   4.138  71.413  1.00  0.00    -0.229 C  
HETATM    6  C   UNL     1      -7.828   5.507  70.214  1.00  0.00    -0.093 C  
ENDBRANCH   2   3
BRANCH   2   7
HETATM    7  N   UNL     1      -9.274   7.703  70.798  1.00  0.00    -0.157 NA 
HETATM    8  H   UNL     1      -8.478   7.691  71.437  1.00  0.00     0.000 HD 
HETATM    9  C   UNL     1      -9.473   8.818  70.018  1.00  0.00    -0.169 C  
HETATM   10  N   UNL     1     -10.634   9.025  69.466  1.00  0.00    -0.226 NA 
HETATM   11  N   UNL     1      -8.349   9.558  69.773  1.00  0.00    -0.146 NA 
HETATM   12  N   UNL     1      -6.292   9.556  71.351  1.00  0.00    -0.252 NA 
HETATM   13  H   UNL     1      -8.320  10.154  68.946  1.00  0.00     0.000 HD 
HETATM   14  C   UNL     1      -7.208   9.521  70.645  1.00  0.00    -0.122 C  
HETATM   15  H   UNL     1     -11.365   8.336  69.643  1.00  0.00     0.000 HD 
BRANCH  10  16
HETATM   16  C   UNL     1     -10.964  10.123  68.644  1.00  0.00    -0.230 A  
HETATM   17  C   UNL     1     -11.540  11.216  69.286  1.00  0.00    -0.388 A  
HETATM   18  C   UNL     1     -11.848  12.348  68.550  1.00  0.00    -0.304 A  
HETATM   19  N   UNL     1     -11.622  12.461  67.227  1.00  0.00    -0.352 NA 
HETATM   20  C   UNL     1     -11.031  11.407  66.626  1.00  0.00    -0.285 A  
HETATM   21  C   UNL     1     -10.672  10.240  67.286  1.00  0.00    -0.323 A  
ENDBRANCH  10  16
ENDBRANCH   2   7
TORSDOF 3
ENDMDL
MODEL      108
REMARK 921   NORMALIZED FREE ENERGY PREDICTED BY IDOCK:   -3.49 KCAL/MOL
REMARK 922        TOTAL FREE ENERGY PREDICTED BY IDOCK:   -4.53 KCAL/MOL
REMARK 923 INTER-LIGAND FREE ENERGY PREDICTED BY IDOCK:   -5.53 KCAL/MOL
REMARK 924 INTRA-LIGAND FREE ENERGY PREDICTED BY IDOCK:    1.00 KCAL/MOL
REMARK 927      BINDING AFFINITY PREDICTED BY RF-SCORE:    0.00 PKD
ROOT
HETATM    1  C   UNL     1      -8.871   9.370  70.164  1.00  0.00    -0.249 C  
HETATM    2  C   UNL     1      -9.774   8.189  70.534  1.00  0.00    -0.174 C  
ENDROOT
BRANCH   2   3
HETATM    3  C   UNL     1      -9.792   7.035  69.465  1.00  0.00    -0.161 C  
HETATM    4  C   UNL     1      -9.768   7.632  68.039  1.00  0.00    -0.173 C  
HETATM    5  C   UNL     1     -11.092   6.211  69.595  1.00  0.00    -0.489 C  
HETATM    6  C   UNL     1      -8.601   6.066  69.601  1.00  0.00    -0.126 C  
ENDBRANCH   2   3
BRANCH   2   7
HETATM    7  N   UNL     1     -11.139   8.661  70.803  1.00  0.00    -0.250 NA 
HETATM    8  H   UNL     1     -11.775   8.047  71.312  1.00  0.00     0.000 HD 
HETATM    9  C   UNL     1     -11.597   9.893  70.399  1.00  0.00    -0.282 C  
HETATM   10  N   UNL     1     -10.964  10.548  69.468  1.00  0.00    -0.246 NA 
HETATM   11  N   UNL     1     -12.633  10.393  71.138  1.00  0.00    -0.373 NA 
HETATM   12  N   UNL     1     -14.273   8.883  72.463  1.00  0.00    -0.564 NA 
HETATM   13  H   UNL     1     -12.785  11.401  71.158  1.00  0.00     0.000 HD 
HETATM   14  C   UNL     1     -13.513   9.541  71.889  1.00  0.00    -0.424 C  
HETATM   15  H   UNL     1     -10.137  10.107  69.067  1.00  0.00     0.000 HD 
BRANCH  10  16
HETATM   16  C   UNL     1     -11.328  11.817  68.971  1.00  0.00    -0.278 A  
HETATM   17  C   UNL     1     -11.503  11.905  67.592  1.00  0.00    -0.387 A  
HETATM   18  C   UNL     1     -11.905  13.108  67.036  1.00  0.00    -0.379 A  
HETATM   19  N   UNL     1     -12.142  14.220  67.759  1.00  0.00    -0.339 NA 
HETATM   20  C   UNL     1     -12.003  14.109  69.097  1.00  0.00    -0.349 A  
HETATM   21  C   UNL     1     -11.621  12.941  69.740  1.00  0.00    -0.288 A  
ENDBRANCH  10  16
ENDBRANCH   2   7
TORSDOF 3
ENDMDL
MODEL      109
REMARK 921   NORMALIZED FREE ENERGY PREDICTED BY IDOCK:   -3.49 KCAL/MOL
REMARK 922        TOTAL FREE ENERGY PREDICTED BY IDOCK:   -4.53 KCAL/MOL
REMARK 923 INTER-LIGAND FREE ENERGY PREDICTED BY IDOCK:   -4.08 KCAL/MOL
REMARK 924 INTRA-LIGAND FREE ENERGY PREDICTED BY IDOCK:   -0.45 KCAL/MOL
REMARK 927      BINDING AFFINITY PREDICTED BY RF-SCORE:    0.00 PKD
ROOT
HETATM    1  C   UNL     1      -8.838   8.570  71.692  1.00  0.00    -0.272 C  
HETATM    2  C   UNL     1     -10.010   8.335  70.735  1.00  0.00    -0.190 C  
ENDROOT
BRANCH   2   3
HETATM    3  C   UNL     1     -11.354   7.938  71.449  1.00  0.00    -0.285 C  
HETATM    4  C   UNL     1     -12.353   9.117  71.392  1.00  0.00    -0.404 C  
HETATM    5  C   UNL     1     -11.093   7.630  72.940  1.00  0.00    -0.448 C  
HETATM    6  C   UNL     1     -12.030   6.703  70.822  1.00  0.00    -0.412 C  
ENDBRANCH   2   3
BRANCH   2   7
HETATM    7  N   UNL     1      -9.647   7.329  69.728  1.00  0.00    -0.163 NA 
HETATM    8  H   UNL     1      -9.535   6.360  70.026  1.00  0.00     0.000 HD 
HETATM    9  C   UNL     1      -9.452   7.636  68.401  1.00  0.00    -0.150 C  
HETATM   10  N   UNL     1      -9.239   8.870  68.045  1.00  0.00    -0.139 NA 
HETATM   11  N   UNL     1      -9.646   6.596  67.535  1.00  0.00    -0.124 NA 
HETATM   12  N   UNL     1      -9.389   4.113  68.238  1.00  0.00    -0.148 NA 
HETATM   13  H   UNL     1      -9.882   6.798  66.564  1.00  0.00     0.000 HD 
HETATM   14  C   UNL     1      -9.527   5.226  67.951  1.00  0.00    -0.125 C  
HETATM   15  H   UNL     1      -9.222   9.573  68.783  1.00  0.00     0.000 HD 
BRANCH  10  16
HETATM   16  C   UNL     1      -9.029   9.314  66.723  1.00  0.00    -0.131 A  
HETATM   17  C   UNL     1     -10.139   9.848  66.074  1.00  0.00    -0.314 A  
HETATM   18  C   UNL     1      -9.999  10.346  64.790  1.00  0.00    -0.339 A  
HETATM   19  N   UNL     1      -8.833  10.346  64.114  1.00  0.00    -0.201 NA 
HETATM   20  C   UNL     1      -7.759   9.857  64.769  1.00  0.00    -0.138 A  
HETATM   21  C   UNL     1      -7.804   9.354  66.061  1.00  0.00    -0.099 A  
ENDBRANCH  10  16
ENDBRANCH   2   7
TORSDOF 3
ENDMDL
MODEL      110
REMARK 921   NORMALIZED FREE ENERGY PREDICTED BY IDOCK:   -3.44 KCAL/MOL
REMARK 922        TOTAL FREE ENERGY PREDICTED BY IDOCK:   -4.47 KCAL/MOL
REMARK 923 INTER-LIGAND FREE ENERGY PREDICTED BY IDOCK:   -4.00 KCAL/MOL
REMARK 924 INTRA-LIGAND FREE ENERGY PREDICTED BY IDOCK:   -0.47 KCAL/MOL
REMARK 927      BINDING AFFINITY PREDICTED BY RF-SCORE:    0.00 PKD
ROOT
HETATM    1  C   UNL     1      -8.282  11.577  68.721  1.00  0.00    -0.082 C  
HETATM    2  C   UNL     1      -9.211  10.440  68.287  1.00  0.00    -0.149 C  
ENDROOT
BRANCH   2   3
HETATM    3  C   UNL     1     -10.013  10.733  66.966  1.00  0.00    -0.236 C  
HETATM    4  C   UNL     1     -10.252   9.419  66.189  1.00  0.00    -0.264 C  
HETATM    5  C   UNL     1      -9.197  11.668  66.045  1.00  0.00    -0.218 C  
HETATM    6  C   UNL     1     -11.380  11.397  67.223  1.00  0.00    -0.347 C  
ENDBRANCH   2   3
BRANCH   2   7
HETATM    7  N   UNL     1     -10.130  10.093  69.379  1.00  0.00    -0.218 NA 
HETATM    8  H   UNL     1     -10.688  10.836  69.801  1.00  0.00     0.000 HD 
HETATM    9  C   UNL     1     -10.272   8.811  69.859  1.00  0.00    -0.200 C  
HETATM   10  N   UNL     1      -9.356   7.920  69.608  1.00  0.00    -0.153 NA 
HETATM   11  N   UNL     1     -11.473   8.550  70.457  1.00  0.00    -0.398 NA 
HETATM   12  N   UNL     1     -12.941  10.397  71.532  1.00  0.00    -0.424 NA 
HETATM   13  H   UNL     1     -11.803   7.586  70.503  1.00  0.00     0.000 HD 
HETATM   14  C   UNL     1     -12.285   9.591  71.021  1.00  0.00    -0.304 C  
HETATM   15  H   UNL     1      -8.552   8.219  69.057  1.00  0.00     0.000 HD 
BRANCH  10  16
HETATM   16  C   UNL     1      -9.386   6.577  70.037  1.00  0.00    -0.157 A  
HETATM   17  C   UNL     1      -8.964   6.342  71.343  1.00  0.00    -0.138 A  
HETATM   18  C   UNL     1      -9.008   5.054  71.848  1.00  0.00    -0.133 A  
HETATM   19  N   UNL     1      -9.442   3.991  71.141  1.00  0.00    -0.147 NA 
HETATM   20  C   UNL     1      -9.880   4.240  69.890  1.00  0.00    -0.197 A  
HETATM   21  C   UNL     1      -9.888   5.500  69.308  1.00  0.00    -0.233 A  
ENDBRANCH  10  16
ENDBRANCH   2   7
TORSDOF 3
ENDMDL
MODEL      111
REMARK 921   NORMALIZED FREE ENERGY PREDICTED BY IDOCK:   -3.42 KCAL/MOL
REMARK 922        TOTAL FREE ENERGY PREDICTED BY IDOCK:   -4.45 KCAL/MOL
REMARK 923 INTER-LIGAND FREE ENERGY PREDICTED BY IDOCK:   -4.31 KCAL/MOL
REMARK 924 INTRA-LIGAND FREE ENERGY PREDICTED BY IDOCK:   -0.14 KCAL/MOL
REMARK 927      BINDING AFFINITY PREDICTED BY RF-SCORE:    0.00 PKD
ROOT
HETATM    1  C   UNL     1      -9.350  11.206  66.073  1.00  0.00    -0.228 C  
HETATM    2  C   UNL     1      -8.861  10.243  67.159  1.00  0.00    -0.136 C  
ENDROOT
BRANCH   2   3
HETATM    3  C   UNL     1      -7.360   9.800  66.998  1.00  0.00    -0.091 C  
HETATM    4  C   UNL     1      -6.768   9.425  68.376  1.00  0.00    -0.058 C  
HETATM    5  C   UNL     1      -6.518  10.969  66.441  1.00  0.00    -0.127 C  
HETATM    6  C   UNL     1      -7.183   8.596  66.053  1.00  0.00    -0.084 C  
ENDBRANCH   2   3
BRANCH   2   7
HETATM    7  N   UNL     1      -9.739   9.067  67.224  1.00  0.00    -0.168 NA 
HETATM    8  H   UNL     1      -9.774   8.440  66.420  1.00  0.00     0.000 HD 
HETATM    9  C   UNL     1     -10.515   8.773  68.321  1.00  0.00    -0.187 C  
HETATM   10  N   UNL     1     -10.770   9.697  69.202  1.00  0.00    -0.221 NA 
HETATM   11  N   UNL     1     -10.840   7.452  68.459  1.00  0.00    -0.417 NA 
HETATM   12  N   UNL     1     -10.933   5.809  66.455  1.00  0.00    -0.184 NA 
HETATM   13  H   UNL     1     -11.078   7.095  69.385  1.00  0.00     0.000 HD 
HETATM   14  C   UNL     1     -10.858   6.551  67.341  1.00  0.00    -0.373 C  
HETATM   15  H   UNL     1     -10.377  10.623  69.034  1.00  0.00     0.000 HD 
BRANCH  10  16
HETATM   16  C   UNL     1     -11.546   9.523  70.367  1.00  0.00    -0.212 A  
HETATM   17  C   UNL     1     -11.061   8.603  71.292  1.00  0.00    -0.336 A  
HETATM   18  C   UNL     1     -11.745   8.413  72.481  1.00  0.00    -0.359 A  
HETATM   19  N   UNL     1     -12.873   9.075  72.805  1.00  0.00    -0.279 NA 
HETATM   20  C   UNL     1     -13.311   9.989  71.914  1.00  0.00    -0.415 A  
HETATM   21  C   UNL     1     -12.681  10.257  70.707  1.00  0.00    -0.434 A  
ENDBRANCH  10  16
ENDBRANCH   2   7
TORSDOF 3
ENDMDL
MODEL      112
REMARK 921   NORMALIZED FREE ENERGY PREDICTED BY IDOCK:   -3.41 KCAL/MOL
REMARK 922        TOTAL FREE ENERGY PREDICTED BY IDOCK:   -4.44 KCAL/MOL
REMARK 923 INTER-LIGAND FREE ENERGY PREDICTED BY IDOCK:   -4.96 KCAL/MOL
REMARK 924 INTRA-LIGAND FREE ENERGY PREDICTED BY IDOCK:    0.52 KCAL/MOL
REMARK 927      BINDING AFFINITY PREDICTED BY RF-SCORE:    0.00 PKD
ROOT
HETATM    1  C   UNL     1     -11.866  14.151  66.605  1.00  0.00    -0.447 C  
HETATM    2  C   UNL     1     -11.755  14.990  67.881  1.00  0.00    -0.289 C  
ENDROOT
BRANCH   2   3
HETATM    3  C   UNL     1     -10.414  15.803  68.002  1.00  0.00    -0.270 C  
HETATM    4  C   UNL     1     -10.671  17.297  67.695  1.00  0.00    -0.307 C  
HETATM    5  C   UNL     1      -9.388  15.293  66.966  1.00  0.00    -0.238 C  
HETATM    6  C   UNL     1      -9.768  15.702  69.398  1.00  0.00    -0.292 C  
ENDBRANCH   2   3
BRANCH   2   7
HETATM    7  N   UNL     1     -11.948  14.140  69.064  1.00  0.00    -0.370 NA 
HETATM    8  H   UNL     1     -12.386  14.547  69.890  1.00  0.00     0.000 HD 
HETATM    9  C   UNL     1     -11.564  12.820  69.106  1.00  0.00    -0.319 C  
HETATM   10  N   UNL     1     -10.707  12.365  68.237  1.00  0.00    -0.222 NA 
HETATM   11  N   UNL     1     -12.249  12.050  70.004  1.00  0.00    -0.245 NA 
HETATM   12  N   UNL     1     -13.394  13.030  72.114  1.00  0.00    -0.522 NA 
HETATM   13  H   UNL     1     -12.300  11.042  69.854  1.00  0.00     0.000 HD 
HETATM   14  C   UNL     1     -12.901  12.615  71.152  1.00  0.00    -0.220 C  
HETATM   15  H   UNL     1     -10.347  13.024  67.547  1.00  0.00     0.000 HD 
BRANCH  10  16
HETATM   16  C   UNL     1     -10.238  11.037  68.172  1.00  0.00    -0.182 A  
HETATM   17  C   UNL     1      -9.110  10.749  68.936  1.00  0.00    -0.170 A  
HETATM   18  C   UNL     1      -8.619   9.454  68.957  1.00  0.00    -0.135 A  
HETATM   19  N   UNL     1      -9.174   8.435  68.271  1.00  0.00    -0.135 NA 
HETATM   20  C   UNL     1     -10.287   8.723  67.564  1.00  0.00    -0.268 A  
HETATM   21  C   UNL     1     -10.858   9.986  67.498  1.00  0.00    -0.326 A  
ENDBRANCH  10  16
ENDBRANCH   2   7
TORSDOF 3
ENDMDL
MODEL      113
REMARK 921   NORMALIZED FREE ENERGY PREDICTED BY IDOCK:   -3.41 KCAL/MOL
REMARK 922        TOTAL FREE ENERGY PREDICTED BY IDOCK:   -4.43 KCAL/MOL
REMARK 923 INTER-LIGAND FREE ENERGY PREDICTED BY IDOCK:   -5.40 KCAL/MOL
REMARK 924 INTRA-LIGAND FREE ENERGY PREDICTED BY IDOCK:    0.97 KCAL/MOL
REMARK 927      BINDING AFFINITY PREDICTED BY RF-SCORE:    0.00 PKD
ROOT
HETATM    1  C   UNL     1     -10.571   8.672  67.360  1.00  0.00    -0.298 C  
HETATM    2  C   UNL     1      -9.826   9.569  66.368  1.00  0.00    -0.253 C  
ENDROOT
BRANCH   2   3
HETATM    3  C   UNL     1      -8.297   9.754  66.691  1.00  0.00    -0.124 C  
HETATM    4  C   UNL     1      -7.451   8.812  65.803  1.00  0.00    -0.085 C  
HETATM    5  C   UNL     1      -8.015   9.374  68.161  1.00  0.00    -0.091 C  
HETATM    6  C   UNL     1      -7.803  11.197  66.471  1.00  0.00    -0.151 C  
ENDBRANCH   2   3
BRANCH   2   7
HETATM    7  N   UNL     1     -10.490  10.875  66.269  1.00  0.00    -0.256 NA 
HETATM    8  H   UNL     1     -10.401  11.403  65.401  1.00  0.00     0.000 HD 
HETATM    9  C   UNL     1     -11.229  11.418  67.295  1.00  0.00    -0.304 C  
HETATM   10  N   UNL     1     -11.085  10.966  68.507  1.00  0.00    -0.235 NA 
HETATM   11  N   UNL     1     -12.180  12.319  66.905  1.00  0.00    -0.439 NA 
HETATM   12  N   UNL     1     -12.013  13.680  64.704  1.00  0.00    -0.389 NA 
HETATM   13  H   UNL     1     -12.984  12.483  67.512  1.00  0.00     0.000 HD 
HETATM   14  C   UNL     1     -12.084  13.042  65.668  1.00  0.00    -0.454 C  
HETATM   15  H   UNL     1     -10.412  10.213  68.648  1.00  0.00     0.000 HD 
BRANCH  10  16
HETATM   16  C   UNL     1     -11.783  11.432  69.641  1.00  0.00    -0.345 A  
HETATM   17  C   UNL     1     -11.863  12.815  69.783  1.00  0.00    -0.380 A  
HETATM   18  C   UNL     1     -12.572  13.346  70.847  1.00  0.00    -0.327 A  
HETATM   19  N   UNL     1     -13.201  12.595  71.773  1.00  0.00    -0.418 NA 
HETATM   20  C   UNL     1     -13.144  11.258  71.601  1.00  0.00    -0.408 A  
HETATM   21  C   UNL     1     -12.471  10.639  70.557  1.00  0.00    -0.445 A  
ENDBRANCH  10  16
ENDBRANCH   2   7
TORSDOF 3
ENDMDL
MODEL      114
REMARK 921   NORMALIZED FREE ENERGY PREDICTED BY IDOCK:   -3.38 KCAL/MOL
REMARK 922        TOTAL FREE ENERGY PREDICTED BY IDOCK:   -4.40 KCAL/MOL
REMARK 923 INTER-LIGAND FREE ENERGY PREDICTED BY IDOCK:   -5.32 KCAL/MOL
REMARK 924 INTRA-LIGAND FREE ENERGY PREDICTED BY IDOCK:    0.92 KCAL/MOL
REMARK 927      BINDING AFFINITY PREDICTED BY RF-SCORE:    0.00 PKD
ROOT
HETATM    1  C   UNL     1      -9.586  13.313  68.385  1.00  0.00    -0.185 C  
HETATM    2  C   UNL     1      -9.847  12.835  66.954  1.00  0.00    -0.236 C  
ENDROOT
BRANCH   2   3
HETATM    3  C   UNL     1     -11.146  13.437  66.302  1.00  0.00    -0.305 C  
HETATM    4  C   UNL     1     -10.767  14.544  65.291  1.00  0.00    -0.390 C  
HETATM    5  C   UNL     1     -12.032  14.091  67.386  1.00  0.00    -0.439 C  
HETATM    6  C   UNL     1     -11.998  12.384  65.567  1.00  0.00    -0.453 C  
ENDBRANCH   2   3
BRANCH   2   7
HETATM    7  N   UNL     1      -9.884  11.368  66.909  1.00  0.00    -0.191 NA 
HETATM    8  H   UNL     1      -9.627  10.900  66.040  1.00  0.00     0.000 HD 
HETATM    9  C   UNL     1     -10.249  10.596  67.988  1.00  0.00    -0.175 C  
HETATM   10  N   UNL     1     -10.906  11.131  68.976  1.00  0.00    -0.218 NA 
HETATM   11  N   UNL     1      -9.746   9.324  67.982  1.00  0.00    -0.147 NA 
HETATM   12  N   UNL     1      -9.064   8.090  65.807  1.00  0.00    -0.109 NA 
HETATM   13  H   UNL     1      -9.652   8.826  68.868  1.00  0.00     0.000 HD 
HETATM   14  C   UNL     1      -9.347   8.668  66.769  1.00  0.00    -0.179 C  
HETATM   15  H   UNL     1     -11.130  12.124  68.905  1.00  0.00     0.000 HD 
BRANCH  10  16
HETATM   16  C   UNL     1     -11.333  10.452  70.136  1.00  0.00    -0.323 A  
HETATM   17  C   UNL     1     -12.648  10.681  70.530  1.00  0.00    -0.433 A  
HETATM   18  C   UNL     1     -13.152  10.014  71.634  1.00  0.00    -0.445 A  
HETATM   19  N   UNL     1     -12.434   9.139  72.366  1.00  0.00    -0.325 NA 
HETATM   20  C   UNL     1     -11.173   8.900  71.951  1.00  0.00    -0.377 A  
HETATM   21  C   UNL     1     -10.592   9.511  70.848  1.00  0.00    -0.395 A  
ENDBRANCH  10  16
ENDBRANCH   2   7
TORSDOF 3
ENDMDL
MODEL      115
REMARK 921   NORMALIZED FREE ENERGY PREDICTED BY IDOCK:   -3.34 KCAL/MOL
REMARK 922        TOTAL FREE ENERGY PREDICTED BY IDOCK:   -4.35 KCAL/MOL
REMARK 923 INTER-LIGAND FREE ENERGY PREDICTED BY IDOCK:   -4.26 KCAL/MOL
REMARK 924 INTRA-LIGAND FREE ENERGY PREDICTED BY IDOCK:   -0.09 KCAL/MOL
REMARK 927      BINDING AFFINITY PREDICTED BY RF-SCORE:    0.00 PKD
ROOT
HETATM    1  C   UNL     1      -9.875   6.804  66.510  1.00  0.00    -0.167 C  
HETATM    2  C   UNL     1      -9.374   7.579  67.732  1.00  0.00    -0.141 C  
ENDROOT
BRANCH   2   3
HETATM    3  C   UNL     1      -7.808   7.651  67.849  1.00  0.00    -0.117 C  
HETATM    4  C   UNL     1      -7.283   6.458  68.681  1.00  0.00    -0.085 C  
HETATM    5  C   UNL     1      -7.388   8.942  68.587  1.00  0.00    -0.077 C  
HETATM    6  C   UNL     1      -7.097   7.636  66.482  1.00  0.00    -0.075 C  
ENDBRANCH   2   3
BRANCH   2   7
HETATM    7  N   UNL     1      -9.955   7.018  68.959  1.00  0.00    -0.160 NA 
HETATM    8  H   UNL     1      -9.837   6.022  69.143  1.00  0.00     0.000 HD 
HETATM    9  C   UNL     1     -10.652   7.777  69.871  1.00  0.00    -0.239 C  
HETATM   10  N   UNL     1     -11.123   8.940  69.522  1.00  0.00    -0.432 NA 
HETATM   11  N   UNL     1     -10.663   7.280  71.144  1.00  0.00    -0.227 NA 
HETATM   12  N   UNL     1     -10.354   4.761  71.675  1.00  0.00    -0.178 NA 
HETATM   13  H   UNL     1     -10.819   7.920  71.923  1.00  0.00     0.000 HD 
HETATM   14  C   UNL     1     -10.461   5.885  71.420  1.00  0.00    -0.236 C  
HETATM   15  H   UNL     1     -10.954   9.244  68.563  1.00  0.00     0.000 HD 
BRANCH  10  16
HETATM   16  C   UNL     1     -11.847   9.812  70.361  1.00  0.00    -0.193 A  
HETATM   17  C   UNL     1     -11.718  11.171  70.086  1.00  0.00    -0.439 A  
HETATM   18  C   UNL     1     -12.436  12.086  70.839  1.00  0.00    -0.288 A  
HETATM   19  N   UNL     1     -13.267  11.736  71.841  1.00  0.00    -0.450 NA 
HETATM   20  C   UNL     1     -13.408  10.415  72.072  1.00  0.00    -0.335 A  
HETATM   21  C   UNL     1     -12.742   9.429  71.357  1.00  0.00    -0.425 A  
ENDBRANCH  10  16
ENDBRANCH   2   7
TORSDOF 3
ENDMDL
MODEL      116
REMARK 921   NORMALIZED FREE ENERGY PREDICTED BY IDOCK:   -3.32 KCAL/MOL
REMARK 922        TOTAL FREE ENERGY PREDICTED BY IDOCK:   -4.33 KCAL/MOL
REMARK 923 INTER-LIGAND FREE ENERGY PREDICTED BY IDOCK:   -4.06 KCAL/MOL
REMARK 924 INTRA-LIGAND FREE ENERGY PREDICTED BY IDOCK:   -0.27 KCAL/MOL
REMARK 927      BINDING AFFINITY PREDICTED BY RF-SCORE:    0.00 PKD
ROOT
HETATM    1  C   UNL     1      -9.504   8.726  70.231  1.00  0.00    -0.194 C  
HETATM    2  C   UNL     1     -10.645   7.715  70.370  1.00  0.00    -0.230 C  
ENDROOT
BRANCH   2   3
HETATM    3  C   UNL     1     -11.681   8.065  71.500  1.00  0.00    -0.321 C  
HETATM    4  C   UNL     1     -11.068   7.775  72.890  1.00  0.00    -0.457 C  
HETATM    5  C   UNL     1     -12.940   7.181  71.362  1.00  0.00    -0.419 C  
HETATM    6  C   UNL     1     -12.133   9.539  71.471  1.00  0.00    -0.468 C  
ENDBRANCH   2   3
BRANCH   2   7
HETATM    7  N   UNL     1     -10.103   6.364  70.572  1.00  0.00    -0.184 NA 
HETATM    8  H   UNL     1      -9.897   6.059  71.523  1.00  0.00     0.000 HD 
HETATM    9  C   UNL     1      -9.862   5.493  69.536  1.00  0.00    -0.189 C  
HETATM   10  N   UNL     1      -9.774   5.942  68.317  1.00  0.00    -0.123 NA 
HETATM   11  N   UNL     1      -9.876   4.170  69.881  1.00  0.00    -0.212 NA 
HETATM   12  N   UNL     1      -9.373   3.337  72.284  1.00  0.00    -0.108 NA 
HETATM   13  H   UNL     1     -10.073   3.473  69.162  1.00  0.00     0.000 HD 
HETATM   14  C   UNL     1      -9.623   3.730  71.224  1.00  0.00    -0.173 C  
HETATM   15  H   UNL     1      -9.887   6.947  68.180  1.00  0.00     0.000 HD 
BRANCH  10  16
HETATM   16  C   UNL     1      -9.535   5.155  67.171  1.00  0.00    -0.131 A  
HETATM   17  C   UNL     1     -10.584   5.068  66.260  1.00  0.00    -0.332 A  
HETATM   18  C   UNL     1     -10.406   4.349  65.090  1.00  0.00    -0.173 A  
HETATM   19  N   UNL     1      -9.260   3.717  64.771  1.00  0.00    -0.137 NA 
HETATM   20  C   UNL     1      -8.241   3.840  65.647  1.00  0.00    -0.105 A  
HETATM   21  C   UNL     1      -8.324   4.553  66.835  1.00  0.00    -0.105 A  
ENDBRANCH  10  16
ENDBRANCH   2   7
TORSDOF 3
ENDMDL
MODEL      117
REMARK 921   NORMALIZED FREE ENERGY PREDICTED BY IDOCK:   -3.31 KCAL/MOL
REMARK 922        TOTAL FREE ENERGY PREDICTED BY IDOCK:   -4.32 KCAL/MOL
REMARK 923 INTER-LIGAND FREE ENERGY PREDICTED BY IDOCK:   -4.06 KCAL/MOL
REMARK 924 INTRA-LIGAND FREE ENERGY PREDICTED BY IDOCK:   -0.26 KCAL/MOL
REMARK 927      BINDING AFFINITY PREDICTED BY RF-SCORE:    0.00 PKD
ROOT
HETATM    1  C   UNL     1      -8.315   8.981  68.683  1.00  0.00    -0.123 C  
HETATM    2  C   UNL     1      -9.147  10.085  69.342  1.00  0.00    -0.215 C  
ENDROOT
BRANCH   2   3
HETATM    3  C   UNL     1     -10.270   9.554  70.307  1.00  0.00    -0.312 C  
HETATM    4  C   UNL     1     -11.318  10.661  70.560  1.00  0.00    -0.355 C  
HETATM    5  C   UNL     1      -9.662   9.177  71.676  1.00  0.00    -0.263 C  
HETATM    6  C   UNL     1     -11.003   8.314  69.758  1.00  0.00    -0.132 C  
ENDBRANCH   2   3
BRANCH   2   7
HETATM    7  N   UNL     1      -9.725  10.964  68.317  1.00  0.00    -0.159 NA 
HETATM    8  H   UNL     1     -10.460  10.593  67.715  1.00  0.00     0.000 HD 
HETATM    9  C   UNL     1      -9.317  12.265  68.132  1.00  0.00    -0.205 C  
HETATM   10  N   UNL     1      -8.176  12.662  68.616  1.00  0.00    -0.337 NA 
HETATM   11  N   UNL     1     -10.249  13.083  67.556  1.00  0.00    -0.219 NA 
HETATM   12  N   UNL     1     -12.149  12.198  66.030  1.00  0.00    -0.586 NA 
HETATM   13  H   UNL     1     -10.188  14.089  67.713  1.00  0.00     0.000 HD 
HETATM   14  C   UNL     1     -11.311  12.570  66.737  1.00  0.00    -0.334 C  
HETATM   15  H   UNL     1      -7.617  11.975  69.121  1.00  0.00     0.000 HD 
BRANCH  10  16
HETATM   16  C   UNL     1      -7.649  13.966  68.500  1.00  0.00    -0.134 A  
HETATM   17  C   UNL     1      -7.316  14.600  69.694  1.00  0.00    -0.064 A  
HETATM   18  C   UNL     1      -6.751  15.863  69.655  1.00  0.00    -0.173 A  
HETATM   19  N   UNL     1      -6.498  16.531  68.512  1.00  0.00    -0.133 NA 
HETATM   20  C   UNL     1      -6.793  15.890  67.363  1.00  0.00    -0.194 A  
HETATM   21  C   UNL     1      -7.346  14.618  67.306  1.00  0.00    -0.122 A  
ENDBRANCH  10  16
ENDBRANCH   2   7
TORSDOF 3
ENDMDL
MODEL      118
REMARK 921   NORMALIZED FREE ENERGY PREDICTED BY IDOCK:   -3.31 KCAL/MOL
REMARK 922        TOTAL FREE ENERGY PREDICTED BY IDOCK:   -4.31 KCAL/MOL
REMARK 923 INTER-LIGAND FREE ENERGY PREDICTED BY IDOCK:   -4.20 KCAL/MOL
REMARK 924 INTRA-LIGAND FREE ENERGY PREDICTED BY IDOCK:   -0.11 KCAL/MOL
REMARK 927      BINDING AFFINITY PREDICTED BY RF-SCORE:    0.00 PKD
ROOT
HETATM    1  C   UNL     1     -10.609   5.383  69.933  1.00  0.00    -0.351 C  
HETATM    2  C   UNL     1      -9.262   6.110  69.981  1.00  0.00    -0.151 C  
ENDROOT
BRANCH   2   3
HETATM    3  C   UNL     1      -8.023   5.189  69.682  1.00  0.00    -0.079 C  
HETATM    4  C   UNL     1      -8.486   3.728  69.474  1.00  0.00    -0.095 C  
HETATM    5  C   UNL     1      -7.054   5.194  70.885  1.00  0.00    -0.059 C  
HETATM    6  C   UNL     1      -7.231   5.625  68.435  1.00  0.00    -0.075 C  
ENDBRANCH   2   3
BRANCH   2   7
HETATM    7  N   UNL     1      -9.098   6.787  71.275  1.00  0.00    -0.150 NA 
HETATM    8  H   UNL     1      -8.472   6.373  71.965  1.00  0.00     0.000 HD 
HETATM    9  C   UNL     1      -9.752   7.954  71.596  1.00  0.00    -0.163 C  
HETATM   10  N   UNL     1     -10.799   8.320  70.914  1.00  0.00    -0.225 NA 
HETATM   11  N   UNL     1      -9.134   8.717  72.548  1.00  0.00    -0.367 NA 
HETATM   12  N   UNL     1      -7.523   7.723  74.319  1.00  0.00    -0.137 NA 
HETATM   13  H   UNL     1      -9.326   9.718  72.580  1.00  0.00     0.000 HD 
HETATM   14  C   UNL     1      -8.222   8.152  73.502  1.00  0.00    -0.215 C  
HETATM   15  H   UNL     1     -11.099   7.710  70.154  1.00  0.00     0.000 HD 
BRANCH  10  16
HETATM   16  C   UNL     1     -11.552   9.492  71.139  1.00  0.00    -0.367 A  
HETATM   17  C   UNL     1     -11.291  10.560  70.285  1.00  0.00    -0.407 A  
HETATM   18  C   UNL     1     -12.023  11.727  70.418  1.00  0.00    -0.332 A  
HETATM   19  N   UNL     1     -12.992  11.899  71.339  1.00  0.00    -0.356 NA 
HETATM   20  C   UNL     1     -13.257  10.842  72.136  1.00  0.00    -0.228 A  
HETATM   21  C   UNL     1     -12.586   9.630  72.063  1.00  0.00    -0.443 A  
ENDBRANCH  10  16
ENDBRANCH   2   7
TORSDOF 3
ENDMDL
MODEL      119
REMARK 921   NORMALIZED FREE ENERGY PREDICTED BY IDOCK:   -3.30 KCAL/MOL
REMARK 922        TOTAL FREE ENERGY PREDICTED BY IDOCK:   -4.31 KCAL/MOL
REMARK 923 INTER-LIGAND FREE ENERGY PREDICTED BY IDOCK:   -3.89 KCAL/MOL
REMARK 924 INTRA-LIGAND FREE ENERGY PREDICTED BY IDOCK:   -0.42 KCAL/MOL
REMARK 927      BINDING AFFINITY PREDICTED BY RF-SCORE:    0.00 PKD
ROOT
HETATM    1  C   UNL     1      -7.605  15.499  70.284  1.00  0.00     0.621 C  
HETATM    2  C   UNL     1      -7.693  14.924  68.868  1.00  0.00    -0.148 C  
ENDROOT
BRANCH   2   3
HETATM    3  C   UNL     1      -6.351  14.288  68.348  1.00  0.00    -0.101 C  
HETATM    4  C   UNL     1      -5.499  13.799  69.541  1.00  0.00    -0.087 C  
HETATM    5  C   UNL     1      -5.518  15.347  67.593  1.00  0.00    -0.064 C  
HETATM    6  C   UNL     1      -6.576  13.096  67.396  1.00  0.00    -0.092 C  
ENDBRANCH   2   3
BRANCH   2   7
HETATM    7  N   UNL     1      -8.169  15.952  67.933  1.00  0.00    -0.143 NA 
HETATM    8  H   UNL     1      -7.797  16.898  68.019  1.00  0.00     0.000 HD 
HETATM    9  C   UNL     1      -9.094  15.696  66.947  1.00  0.00    -0.236 C  
HETATM   10  N   UNL     1      -9.840  14.632  67.019  1.00  0.00    -0.239 NA 
HETATM   11  N   UNL     1      -9.042  16.543  65.875  1.00  0.00    -0.496 NA 
HETATM   12  N   UNL     1      -8.096  18.952  66.029  1.00  0.00    -0.470 NA 
HETATM   13  H   UNL     1      -9.408  16.226  64.977  1.00  0.00     0.000 HD 
HETATM   14  C   UNL     1      -8.487  17.864  65.974  1.00  0.00    -0.018 C  
HETATM   15  H   UNL     1      -9.706  14.020  67.824  1.00  0.00     0.000 HD 
BRANCH  10  16
HETATM   16  C   UNL     1     -10.818  14.255  66.075  1.00  0.00    -0.303 A  
HETATM   17  C   UNL     1     -10.351  13.602  64.938  1.00  0.00    -0.408 A  
HETATM   18  C   UNL     1     -11.258  13.162  63.989  1.00  0.00    -0.379 A  
HETATM   19  N   UNL     1     -12.590  13.329  64.098  1.00  0.00    -0.660 NA 
HETATM   20  C   UNL     1     -13.030  13.932  65.222  1.00  0.00    -0.297 A  
HETATM   21  C   UNL     1     -12.196  14.390  66.232  1.00  0.00    -0.366 A  
ENDBRANCH  10  16
ENDBRANCH   2   7
TORSDOF 3
ENDMDL
MODEL      120
REMARK 921   NORMALIZED FREE ENERGY PREDICTED BY IDOCK:   -3.21 KCAL/MOL
REMARK 922        TOTAL FREE ENERGY PREDICTED BY IDOCK:   -4.20 KCAL/MOL
REMARK 923 INTER-LIGAND FREE ENERGY PREDICTED BY IDOCK:   -5.45 KCAL/MOL
REMARK 924 INTRA-LIGAND FREE ENERGY PREDICTED BY IDOCK:    1.25 KCAL/MOL
REMARK 927      BINDING AFFINITY PREDICTED BY RF-SCORE:    0.00 PKD
ROOT
HETATM    1  C   UNL     1     -11.473  16.454  70.725  1.00  0.00    -0.198 C  
HETATM    2  C   UNL     1     -12.455  15.280  70.681  1.00  0.00    -0.406 C  
ENDROOT
BRANCH   2   3
HETATM    3  C   UNL     1     -12.903  14.764  72.098  1.00  0.00    -0.407 C  
HETATM    4  C   UNL     1     -14.246  15.417  72.499  1.00  0.00    -0.500 C  
HETATM    5  C   UNL     1     -11.861  15.166  73.165  1.00  0.00    -0.438 C  
HETATM    6  C   UNL     1     -13.075  13.233  72.158  1.00  0.00    -0.486 C  
ENDBRANCH   2   3
BRANCH   2   7
HETATM    7  N   UNL     1     -11.891  14.178  69.889  1.00  0.00    -0.305 NA 
HETATM    8  H   UNL     1     -12.350  13.268  69.924  1.00  0.00     0.000 HD 
HETATM    9  C   UNL     1     -10.771  14.320  69.102  1.00  0.00    -0.220 C  
HETATM   10  N   UNL     1      -9.967  15.326  69.294  1.00  0.00    -0.238 NA 
HETATM   11  N   UNL     1     -10.681  13.434  68.065  1.00  0.00    -0.242 NA 
HETATM   12  N   UNL     1     -11.838  11.114  68.091  1.00  0.00    -0.607 NA 
HETATM   13  H   UNL     1     -10.119  13.682  67.250  1.00  0.00     0.000 HD 
HETATM   14  C   UNL     1     -11.353  12.165  68.086  1.00  0.00    -0.293 C  
HETATM   15  H   UNL     1     -10.206  15.980  70.039  1.00  0.00     0.000 HD 
BRANCH  10  16
HETATM   16  C   UNL     1      -8.794  15.585  68.555  1.00  0.00    -0.186 A  
HETATM   17  C   UNL     1      -7.597  15.513  69.264  1.00  0.00    -0.221 A  
HETATM   18  C   UNL     1      -6.401  15.711  68.595  1.00  0.00    -0.103 A  
HETATM   19  N   UNL     1      -6.320  15.973  67.276  1.00  0.00    -0.249 NA 
HETATM   20  C   UNL     1      -7.485  16.004  66.596  1.00  0.00    -0.123 A  
HETATM   21  C   UNL     1      -8.727  15.802  67.181  1.00  0.00    -0.228 A  
ENDBRANCH  10  16
ENDBRANCH   2   7
TORSDOF 3
ENDMDL
MODEL      121
REMARK 921   NORMALIZED FREE ENERGY PREDICTED BY IDOCK:   -3.19 KCAL/MOL
REMARK 922        TOTAL FREE ENERGY PREDICTED BY IDOCK:   -4.18 KCAL/MOL
REMARK 923 INTER-LIGAND FREE ENERGY PREDICTED BY IDOCK:   -4.99 KCAL/MOL
REMARK 924 INTRA-LIGAND FREE ENERGY PREDICTED BY IDOCK:    0.81 KCAL/MOL
REMARK 927      BINDING AFFINITY PREDICTED BY RF-SCORE:    0.00 PKD
ROOT
HETATM    1  C   UNL     1      -6.917  10.460  65.446  1.00  0.00    -0.118 C  
HETATM    2  C   UNL     1      -7.120   8.979  65.114  1.00  0.00    -0.087 C  
ENDROOT
BRANCH   2   3
HETATM    3  C   UNL     1      -6.911   8.626  63.596  1.00  0.00    -0.088 C  
HETATM    4  C   UNL     1      -5.603   7.823  63.413  1.00  0.00    -0.053 C  
HETATM    5  C   UNL     1      -6.775   9.919  62.762  1.00  0.00    -0.117 C  
HETATM    6  C   UNL     1      -8.070   7.800  63.002  1.00  0.00    -0.086 C  
ENDBRANCH   2   3
BRANCH   2   7
HETATM    7  N   UNL     1      -8.446   8.537  65.566  1.00  0.00    -0.158 NA 
HETATM    8  H   UNL     1      -8.560   7.570  65.870  1.00  0.00     0.000 HD 
HETATM    9  C   UNL     1      -9.541   9.369  65.598  1.00  0.00    -0.274 C  
HETATM   10  N   UNL     1      -9.537  10.473  64.908  1.00  0.00    -0.250 NA 
HETATM   11  N   UNL     1     -10.511   9.011  66.493  1.00  0.00    -0.190 NA 
HETATM   12  N   UNL     1     -10.838   6.573  67.313  1.00  0.00    -0.347 NA 
HETATM   13  H   UNL     1     -11.149   9.726  66.842  1.00  0.00     0.000 HD 
HETATM   14  C   UNL     1     -10.658   7.660  66.957  1.00  0.00    -0.336 C  
HETATM   15  H   UNL     1      -8.702  10.678  64.359  1.00  0.00     0.000 HD 
BRANCH  10  16
HETATM   16  C   UNL     1     -10.591  11.410  64.859  1.00  0.00    -0.307 A  
HETATM   17  C   UNL     1     -11.092  11.699  63.593  1.00  0.00    -0.506 A  
HETATM   18  C   UNL     1     -12.158  12.575  63.471  1.00  0.00    -0.562 A  
HETATM   19  N   UNL     1     -12.751  13.177  64.521  1.00  0.00    -0.686 NA 
HETATM   20  C   UNL     1     -12.277  12.859  65.743  1.00  0.00    -0.439 A  
HETATM   21  C   UNL     1     -11.225  11.980  65.961  1.00  0.00    -0.385 A  
ENDBRANCH  10  16
ENDBRANCH   2   7
TORSDOF 3
ENDMDL
MODEL      122
REMARK 921   NORMALIZED FREE ENERGY PREDICTED BY IDOCK:   -3.18 KCAL/MOL
REMARK 922        TOTAL FREE ENERGY PREDICTED BY IDOCK:   -4.16 KCAL/MOL
REMARK 923 INTER-LIGAND FREE ENERGY PREDICTED BY IDOCK:   -3.77 KCAL/MOL
REMARK 924 INTRA-LIGAND FREE ENERGY PREDICTED BY IDOCK:   -0.39 KCAL/MOL
REMARK 927      BINDING AFFINITY PREDICTED BY RF-SCORE:    0.00 PKD
ROOT
HETATM    1  C   UNL     1     -10.149   6.106  67.222  1.00  0.00    -0.202 C  
HETATM    2  C   UNL     1      -9.584   7.527  67.142  1.00  0.00    -0.161 C  
ENDROOT
BRANCH   2   3
HETATM    3  C   UNL     1      -8.159   7.616  66.482  1.00  0.00    -0.119 C  
HETATM    4  C   UNL     1      -7.941   6.419  65.528  1.00  0.00    -0.116 C  
HETATM    5  C   UNL     1      -7.064   7.541  67.569  1.00  0.00    -0.085 C  
HETATM    6  C   UNL     1      -7.944   8.916  65.682  1.00  0.00    -0.098 C  
ENDBRANCH   2   3
BRANCH   2   7
HETATM    7  N   UNL     1      -9.571   8.141  68.476  1.00  0.00    -0.147 NA 
HETATM    8  H   UNL     1      -9.336   7.558  69.279  1.00  0.00     0.000 HD 
HETATM    9  C   UNL     1      -9.862   9.469  68.691  1.00  0.00    -0.162 C  
HETATM   10  N   UNL     1     -10.494  10.150  67.779  1.00  0.00    -0.214 NA 
HETATM   11  N   UNL     1      -9.315  10.002  69.825  1.00  0.00    -0.304 NA 
HETATM   12  N   UNL     1      -8.684   8.568  71.891  1.00  0.00    -0.193 NA 
HETATM   13  H   UNL     1      -9.165  11.010  69.875  1.00  0.00     0.000 HD 
HETATM   14  C   UNL     1      -8.946   9.187  70.948  1.00  0.00    -0.237 C  
HETATM   15  H   UNL     1     -10.756   9.657  66.925  1.00  0.00     0.000 HD 
BRANCH  10  16
HETATM   16  C   UNL     1     -10.846  11.512  67.875  1.00  0.00    -0.210 A  
HETATM   17  C   UNL     1     -10.288  12.357  66.919  1.00  0.00    -0.240 A  
HETATM   18  C   UNL     1     -10.624  13.700  66.923  1.00  0.00    -0.271 A  
HETATM   19  N   UNL     1     -11.474  14.253  67.811  1.00  0.00    -0.310 NA 
HETATM   20  C   UNL     1     -12.034  13.415  68.709  1.00  0.00    -0.324 A  
HETATM   21  C   UNL     1     -11.768  12.055  68.768  1.00  0.00    -0.377 A  
ENDBRANCH  10  16
ENDBRANCH   2   7
TORSDOF 3
ENDMDL
MODEL      123
REMARK 921   NORMALIZED FREE ENERGY PREDICTED BY IDOCK:   -3.18 KCAL/MOL
REMARK 922        TOTAL FREE ENERGY PREDICTED BY IDOCK:   -4.16 KCAL/MOL
REMARK 923 INTER-LIGAND FREE ENERGY PREDICTED BY IDOCK:   -4.32 KCAL/MOL
REMARK 924 INTRA-LIGAND FREE ENERGY PREDICTED BY IDOCK:    0.15 KCAL/MOL
REMARK 927      BINDING AFFINITY PREDICTED BY RF-SCORE:    0.00 PKD
ROOT
HETATM    1  C   UNL     1     -10.939  14.059  64.205  1.00  0.00    -0.011 C  
HETATM    2  C   UNL     1     -10.207  14.531  65.464  1.00  0.00    -0.370 C  
ENDROOT
BRANCH   2   3
HETATM    3  C   UNL     1     -10.827  13.995  66.807  1.00  0.00    -0.294 C  
HETATM    4  C   UNL     1      -9.702  13.560  67.774  1.00  0.00    -0.226 C  
HETATM    5  C   UNL     1     -11.700  12.751  66.531  1.00  0.00    -0.463 C  
HETATM    6  C   UNL     1     -11.705  15.038  67.527  1.00  0.00    -0.270 C  
ENDBRANCH   2   3
BRANCH   2   7
HETATM    7  N   UNL     1     -10.129  15.998  65.484  1.00  0.00    -0.461 NA 
HETATM    8  H   UNL     1     -10.770  16.528  64.894  1.00  0.00     0.000 HD 
HETATM    9  C   UNL     1      -9.231  16.688  66.265  1.00  0.00    -0.294 C  
HETATM   10  N   UNL     1      -8.189  16.076  66.750  1.00  0.00    -0.244 NA 
HETATM   11  N   UNL     1      -9.606  17.963  66.584  1.00  0.00    -0.298 NA 
HETATM   12  N   UNL     1     -11.240  19.355  65.128  1.00  0.00    -0.000 NA 
HETATM   13  H   UNL     1      -9.215  18.400  67.418  1.00  0.00     0.000 HD 
HETATM   14  C   UNL     1     -10.535  18.707  65.780  1.00  0.00    -0.256 C  
HETATM   15  H   UNL     1      -8.079  15.088  66.522  1.00  0.00     0.000 HD 
BRANCH  10  16
HETATM   16  C   UNL     1      -7.201  16.667  67.565  1.00  0.00    -0.145 A  
HETATM   17  C   UNL     1      -6.136  17.266  66.896  1.00  0.00    -0.221 A  
HETATM   18  C   UNL     1      -5.150  17.906  67.629  1.00  0.00    -0.129 A  
HETATM   19  N   UNL     1      -5.157  17.988  68.974  1.00  0.00    -0.175 NA 
HETATM   20  C   UNL     1      -6.213  17.435  69.605  1.00  0.00    -0.233 A  
HETATM   21  C   UNL     1      -7.253  16.788  68.952  1.00  0.00    -0.225 A  
ENDBRANCH  10  16
ENDBRANCH   2   7
TORSDOF 3
ENDMDL
MODEL      124
REMARK 921   NORMALIZED FREE ENERGY PREDICTED BY IDOCK:   -3.14 KCAL/MOL
REMARK 922        TOTAL FREE ENERGY PREDICTED BY IDOCK:   -4.12 KCAL/MOL
REMARK 923 INTER-LIGAND FREE ENERGY PREDICTED BY IDOCK:   -4.92 KCAL/MOL
REMARK 924 INTRA-LIGAND FREE ENERGY PREDICTED BY IDOCK:    0.80 KCAL/MOL
REMARK 927      BINDING AFFINITY PREDICTED BY RF-SCORE:    0.00 PKD
ROOT
HETATM    1  C   UNL     1     -11.389  12.872  66.855  1.00  0.00    -0.358 C  
HETATM    2  C   UNL     1     -11.909  13.440  68.178  1.00  0.00    -0.361 C  
ENDROOT
BRANCH   2   3
HETATM    3  C   UNL     1     -11.063  14.641  68.740  1.00  0.00    -0.274 C  
HETATM    4  C   UNL     1      -9.554  14.316  68.645  1.00  0.00    -0.192 C  
HETATM    5  C   UNL     1     -11.389  14.870  70.232  1.00  0.00    -0.296 C  
HETATM    6  C   UNL     1     -11.319  15.964  67.991  1.00  0.00    -0.284 C  
ENDBRANCH   2   3
BRANCH   2   7
HETATM    7  N   UNL     1     -12.012  12.372  69.182  1.00  0.00    -0.274 NA 
HETATM    8  H   UNL     1     -12.507  12.567  70.052  1.00  0.00     0.000 HD 
HETATM    9  C   UNL     1     -11.471  11.120  69.000  1.00  0.00    -0.296 C  
HETATM   10  N   UNL     1     -10.555  10.935  68.093  1.00  0.00    -0.185 NA 
HETATM   11  N   UNL     1     -12.070  10.124  69.720  1.00  0.00    -0.492 NA 
HETATM   12  N   UNL     1     -13.352  10.562  71.931  1.00  0.00    -0.403 NA 
HETATM   13  H   UNL     1     -11.996   9.162  69.389  1.00  0.00     0.000 HD 
HETATM   14  C   UNL     1     -12.801  10.391  70.927  1.00  0.00    -0.392 C  
HETATM   15  H   UNL     1     -10.268  11.747  67.546  1.00  0.00     0.000 HD 
BRANCH  10  16
HETATM   16  C   UNL     1      -9.927   9.705  67.807  1.00  0.00    -0.171 A  
HETATM   17  C   UNL     1      -8.811   9.394  68.579  1.00  0.00    -0.128 A  
HETATM   18  C   UNL     1      -8.170   8.182  68.385  1.00  0.00    -0.129 A  
HETATM   19  N   UNL     1      -8.565   7.267  67.478  1.00  0.00    -0.122 NA 
HETATM   20  C   UNL     1      -9.668   7.568  66.762  1.00  0.00    -0.216 A  
HETATM   21  C   UNL     1     -10.383   8.749  66.901  1.00  0.00    -0.344 A  
ENDBRANCH  10  16
ENDBRANCH   2   7
TORSDOF 3
ENDMDL
MODEL      125
REMARK 921   NORMALIZED FREE ENERGY PREDICTED BY IDOCK:   -3.13 KCAL/MOL
REMARK 922        TOTAL FREE ENERGY PREDICTED BY IDOCK:   -4.11 KCAL/MOL
REMARK 923 INTER-LIGAND FREE ENERGY PREDICTED BY IDOCK:   -5.05 KCAL/MOL
REMARK 924 INTRA-LIGAND FREE ENERGY PREDICTED BY IDOCK:    0.94 KCAL/MOL
REMARK 927      BINDING AFFINITY PREDICTED BY RF-SCORE:    0.00 PKD
ROOT
HETATM    1  C   UNL     1     -10.717  16.851  69.458  1.00  0.00    -0.205 C  
HETATM    2  C   UNL     1     -11.551  15.832  68.678  1.00  0.00    -0.386 C  
ENDROOT
BRANCH   2   3
HETATM    3  C   UNL     1     -11.342  14.342  69.138  1.00  0.00    -0.308 C  
HETATM    4  C   UNL     1      -9.848  13.960  69.034  1.00  0.00     0.047 C  
HETATM    5  C   UNL     1     -12.125  13.385  68.212  1.00  0.00    -0.271 C  
HETATM    6  C   UNL     1     -11.807  14.085  70.585  1.00  0.00    -0.310 C  
ENDBRANCH   2   3
BRANCH   2   7
HETATM    7  N   UNL     1     -11.294  15.965  67.237  1.00  0.00    -0.094 NA 
HETATM    8  H   UNL     1     -11.827  15.383  66.591  1.00  0.00     0.000 HD 
HETATM    9  C   UNL     1     -10.366  16.839  66.721  1.00  0.00    -0.293 C  
HETATM   10  N   UNL     1      -9.439  17.330  67.492  1.00  0.00    -0.243 NA 
HETATM   11  N   UNL     1     -10.599  17.232  65.432  1.00  0.00    -0.631 NA 
HETATM   12  N   UNL     1     -11.959  15.802  63.750  1.00  0.00    -0.578 NA 
HETATM   13  H   UNL     1     -10.207  18.115  65.106  1.00  0.00     0.000 HD 
HETATM   14  C   UNL     1     -11.380  16.439  64.524  1.00  0.00    -0.114 C  
HETATM   15  H   UNL     1      -9.438  17.036  68.468  1.00  0.00     0.000 HD 
BRANCH  10  16
HETATM   16  C   UNL     1      -8.435  18.236  67.087  1.00  0.00    -0.250 A  
HETATM   17  C   UNL     1      -8.545  19.532  67.584  1.00  0.00    -0.355 A  
HETATM   18  C   UNL     1      -7.571  20.464  67.266  1.00  0.00    -0.331 A  
HETATM   19  N   UNL     1      -6.503  20.190  66.491  1.00  0.00    -0.197 NA 
HETATM   20  C   UNL     1      -6.392  18.921  66.046  1.00  0.00    -0.204 A  
HETATM   21  C   UNL     1      -7.310  17.919  66.328  1.00  0.00    -0.327 A  
ENDBRANCH  10  16
ENDBRANCH   2   7
TORSDOF 3
ENDMDL
MODEL      126
REMARK 921   NORMALIZED FREE ENERGY PREDICTED BY IDOCK:   -3.08 KCAL/MOL
REMARK 922        TOTAL FREE ENERGY PREDICTED BY IDOCK:   -4.05 KCAL/MOL
REMARK 923 INTER-LIGAND FREE ENERGY PREDICTED BY IDOCK:   -4.20 KCAL/MOL
REMARK 924 INTRA-LIGAND FREE ENERGY PREDICTED BY IDOCK:    0.15 KCAL/MOL
REMARK 927      BINDING AFFINITY PREDICTED BY RF-SCORE:    0.00 PKD
ROOT
HETATM    1  C   UNL     1      -9.123   8.754  66.823  1.00  0.00    -0.180 C  
HETATM    2  C   UNL     1      -8.971   9.852  67.879  1.00  0.00    -0.128 C  
ENDROOT
BRANCH   2   3
HETATM    3  C   UNL     1      -7.561   9.882  68.576  1.00  0.00    -0.080 C  
HETATM    4  C   UNL     1      -7.678   9.374  70.032  1.00  0.00    -0.124 C  
HETATM    5  C   UNL     1      -7.030  11.332  68.639  1.00  0.00    -0.084 C  
HETATM    6  C   UNL     1      -6.507   9.023  67.849  1.00  0.00    -0.057 C  
ENDBRANCH   2   3
BRANCH   2   7
HETATM    7  N   UNL     1     -10.037   9.739  68.883  1.00  0.00    -0.175 NA 
HETATM    8  H   UNL     1     -10.318   8.809  69.193  1.00  0.00     0.000 HD 
HETATM    9  C   UNL     1     -10.673  10.832  69.424  1.00  0.00    -0.233 C  
HETATM   10  N   UNL     1     -10.604  11.985  68.823  1.00  0.00    -0.286 NA 
HETATM   11  N   UNL     1     -11.221  10.626  70.659  1.00  0.00    -0.416 NA 
HETATM   12  N   UNL     1     -11.942   8.284  71.506  1.00  0.00    -0.286 NA 
HETATM   13  H   UNL     1     -11.375  11.427  71.272  1.00  0.00     0.000 HD 
HETATM   14  C   UNL     1     -11.588   9.317  71.122  1.00  0.00    -0.327 C  
HETATM   15  H   UNL     1     -10.071  12.029  67.955  1.00  0.00     0.000 HD 
BRANCH  10  16
HETATM   16  C   UNL     1     -11.206  13.178  69.275  1.00  0.00    -0.206 A  
HETATM   17  C   UNL     1     -10.770  14.352  68.666  1.00  0.00    -0.258 A  
HETATM   18  C   UNL     1     -11.348  15.558  69.027  1.00  0.00    -0.326 A  
HETATM   19  N   UNL     1     -12.326  15.669  69.948  1.00  0.00    -0.311 NA 
HETATM   20  C   UNL     1     -12.762  14.519  70.503  1.00  0.00    -0.345 A  
HETATM   21  C   UNL     1     -12.253  13.267  70.191  1.00  0.00    -0.376 A  
ENDBRANCH  10  16
ENDBRANCH   2   7
TORSDOF 3
ENDMDL
MODEL      127
REMARK 921   NORMALIZED FREE ENERGY PREDICTED BY IDOCK:   -3.08 KCAL/MOL
REMARK 922        TOTAL FREE ENERGY PREDICTED BY IDOCK:   -4.04 KCAL/MOL
REMARK 923 INTER-LIGAND FREE ENERGY PREDICTED BY IDOCK:   -4.77 KCAL/MOL
REMARK 924 INTRA-LIGAND FREE ENERGY PREDICTED BY IDOCK:    0.72 KCAL/MOL
REMARK 927      BINDING AFFINITY PREDICTED BY RF-SCORE:    0.00 PKD
ROOT
HETATM    1  C   UNL     1     -10.428   7.571  66.879  1.00  0.00    -0.385 C  
HETATM    2  C   UNL     1     -10.043   8.991  66.454  1.00  0.00    -0.281 C  
ENDROOT
BRANCH   2   3
HETATM    3  C   UNL     1      -8.515   9.172  66.125  1.00  0.00    -0.136 C  
HETATM    4  C   UNL     1      -8.169  10.675  66.021  1.00  0.00    -0.158 C  
HETATM    5  C   UNL     1      -8.185   8.530  64.759  1.00  0.00    -0.164 C  
HETATM    6  C   UNL     1      -7.590   8.536  67.182  1.00  0.00    -0.096 C  
ENDBRANCH   2   3
BRANCH   2   7
HETATM    7  N   UNL     1     -10.466   9.957  67.476  1.00  0.00    -0.237 NA 
HETATM    8  H   UNL     1     -10.567  10.936  67.209  1.00  0.00     0.000 HD 
HETATM    9  C   UNL     1     -10.731   9.600  68.778  1.00  0.00    -0.206 C  
HETATM   10  N   UNL     1     -10.288   8.468  69.243  1.00  0.00    -0.219 NA 
HETATM   11  N   UNL     1     -11.584  10.437  69.442  1.00  0.00    -0.406 NA 
HETATM   12  N   UNL     1     -11.893  12.930  68.799  1.00  0.00    -0.319 NA 
HETATM   13  H   UNL     1     -12.110  10.077  70.238  1.00  0.00     0.000 HD 
HETATM   14  C   UNL     1     -11.763  11.808  69.052  1.00  0.00    -0.328 C  
HETATM   15  H   UNL     1      -9.748   7.881  68.608  1.00  0.00     0.000 HD 
BRANCH  10  16
HETATM   16  C   UNL     1     -10.495   7.986  70.553  1.00  0.00    -0.214 A  
HETATM   17  C   UNL     1     -11.238   6.814  70.663  1.00  0.00    -0.361 A  
HETATM   18  C   UNL     1     -11.443   6.257  71.914  1.00  0.00    -0.309 A  
HETATM   19  N   UNL     1     -10.960   6.788  73.054  1.00  0.00    -0.272 NA 
HETATM   20  C   UNL     1     -10.212   7.904  72.927  1.00  0.00    -0.330 A  
HETATM   21  C   UNL     1      -9.942   8.521  71.714  1.00  0.00    -0.345 A  
ENDBRANCH  10  16
ENDBRANCH   2   7
TORSDOF 3
ENDMDL
MODEL      128
REMARK 921   NORMALIZED FREE ENERGY PREDICTED BY IDOCK:   -3.05 KCAL/MOL
REMARK 922        TOTAL FREE ENERGY PREDICTED BY IDOCK:   -4.02 KCAL/MOL
REMARK 923 INTER-LIGAND FREE ENERGY PREDICTED BY IDOCK:   -4.07 KCAL/MOL
REMARK 924 INTRA-LIGAND FREE ENERGY PREDICTED BY IDOCK:    0.05 KCAL/MOL
REMARK 927      BINDING AFFINITY PREDICTED BY RF-SCORE:    0.00 PKD
ROOT
HETATM    1  C   UNL     1      -8.972  10.735  65.712  1.00  0.00    -0.203 C  
HETATM    2  C   UNL     1      -8.951  10.552  67.232  1.00  0.00    -0.139 C  
ENDROOT
BRANCH   2   3
HETATM    3  C   UNL     1      -9.299   9.095  67.709  1.00  0.00    -0.152 C  
HETATM    4  C   UNL     1     -10.419   9.139  68.774  1.00  0.00    -0.236 C  
HETATM    5  C   UNL     1      -8.065   8.442  68.371  1.00  0.00    -0.123 C  
HETATM    6  C   UNL     1      -9.762   8.176  66.561  1.00  0.00    -0.309 C  
ENDBRANCH   2   3
BRANCH   2   7
HETATM    7  N   UNL     1      -9.843  11.529  67.871  1.00  0.00    -0.180 NA 
HETATM    8  H   UNL     1     -10.682  11.187  68.341  1.00  0.00     0.000 HD 
HETATM    9  C   UNL     1      -9.599  12.882  67.862  1.00  0.00    -0.215 C  
HETATM   10  N   UNL     1      -8.763  13.385  67.001  1.00  0.00    -0.309 NA 
HETATM   11  N   UNL     1     -10.174  13.577  68.890  1.00  0.00    -0.420 NA 
HETATM   12  N   UNL     1     -12.296  12.754  70.132  1.00  0.00    -0.220 NA 
HETATM   13  H   UNL     1      -9.768  14.469  69.172  1.00  0.00     0.000 HD 
HETATM   14  C   UNL     1     -11.333  13.090  69.584  1.00  0.00    -0.106 C  
HETATM   15  H   UNL     1      -8.316  12.739  66.351  1.00  0.00     0.000 HD 
BRANCH  10  16
HETATM   16  C   UNL     1      -8.424  14.750  66.893  1.00  0.00    -0.198 A  
HETATM   17  C   UNL     1      -7.165  15.107  67.369  1.00  0.00    -0.231 A  
HETATM   18  C   UNL     1      -6.745  16.422  67.255  1.00  0.00    -0.186 A  
HETATM   19  N   UNL     1      -7.493  17.397  66.701  1.00  0.00    -0.227 NA 
HETATM   20  C   UNL     1      -8.695  17.028  66.212  1.00  0.00    -0.250 A  
HETATM   21  C   UNL     1      -9.190  15.733  66.269  1.00  0.00    -0.368 A  
ENDBRANCH  10  16
ENDBRANCH   2   7
TORSDOF 3
ENDMDL
MODEL      129
REMARK 921   NORMALIZED FREE ENERGY PREDICTED BY IDOCK:   -3.05 KCAL/MOL
REMARK 922        TOTAL FREE ENERGY PREDICTED BY IDOCK:   -4.01 KCAL/MOL
REMARK 923 INTER-LIGAND FREE ENERGY PREDICTED BY IDOCK:   -3.59 KCAL/MOL
REMARK 924 INTRA-LIGAND FREE ENERGY PREDICTED BY IDOCK:   -0.42 KCAL/MOL
REMARK 927      BINDING AFFINITY PREDICTED BY RF-SCORE:    0.00 PKD
ROOT
HETATM    1  C   UNL     1     -10.390   5.021  66.698  1.00  0.00    -0.312 C  
HETATM    2  C   UNL     1      -9.281   5.747  65.932  1.00  0.00    -0.113 C  
ENDROOT
BRANCH   2   3
HETATM    3  C   UNL     1      -8.137   4.803  65.407  1.00  0.00    -0.112 C  
HETATM    4  C   UNL     1      -8.591   3.327  65.483  1.00  0.00    -0.114 C  
HETATM    5  C   UNL     1      -6.882   4.942  66.296  1.00  0.00    -0.065 C  
HETATM    6  C   UNL     1      -7.723   5.106  63.953  1.00  0.00    -0.078 C  
ENDBRANCH   2   3
BRANCH   2   7
HETATM    7  N   UNL     1      -8.717   6.824  66.758  1.00  0.00    -0.118 NA 
HETATM    8  H   UNL     1      -8.268   6.578  67.640  1.00  0.00     0.000 HD 
HETATM    9  C   UNL     1      -8.769   8.150  66.394  1.00  0.00    -0.149 C  
HETATM   10  N   UNL     1      -9.616   8.540  65.485  1.00  0.00    -0.415 NA 
HETATM   11  N   UNL     1      -7.794   8.936  66.943  1.00  0.00    -0.101 NA 
HETATM   12  N   UNL     1      -6.608   8.354  69.174  1.00  0.00    -0.046 NA 
HETATM   13  H   UNL     1      -7.532   9.800  66.470  1.00  0.00     0.000 HD 
HETATM   14  C   UNL     1      -7.129   8.581  68.165  1.00  0.00    -0.085 C  
HETATM   15  H   UNL     1     -10.221   7.830  65.074  1.00  0.00     0.000 HD 
BRANCH  10  16
HETATM   16  C   UNL     1      -9.764   9.865  65.023  1.00  0.00    -0.288 A  
HETATM   17  C   UNL     1      -9.487  10.076  63.675  1.00  0.00    -0.253 A  
HETATM   18  C   UNL     1      -9.655  11.343  63.140  1.00  0.00    -0.380 A  
HETATM   19  N   UNL     1     -10.077  12.404  63.855  1.00  0.00    -0.367 NA 
HETATM   20  C   UNL     1     -10.375  12.175  65.151  1.00  0.00    -0.279 A  
HETATM   21  C   UNL     1     -10.253  10.937  65.766  1.00  0.00    -0.318 A  
ENDBRANCH  10  16
ENDBRANCH   2   7
TORSDOF 3
ENDMDL
MODEL      130
REMARK 921   NORMALIZED FREE ENERGY PREDICTED BY IDOCK:   -3.00 KCAL/MOL
REMARK 922        TOTAL FREE ENERGY PREDICTED BY IDOCK:   -3.95 KCAL/MOL
REMARK 923 INTER-LIGAND FREE ENERGY PREDICTED BY IDOCK:   -3.77 KCAL/MOL
REMARK 924 INTRA-LIGAND FREE ENERGY PREDICTED BY IDOCK:   -0.18 KCAL/MOL
REMARK 927      BINDING AFFINITY PREDICTED BY RF-SCORE:    0.00 PKD
ROOT
HETATM    1  C   UNL     1     -10.821  13.861  67.499  1.00  0.00    -0.274 C  
HETATM    2  C   UNL     1      -9.524  13.959  68.307  1.00  0.00    -0.217 C  
ENDROOT
BRANCH   2   3
HETATM    3  C   UNL     1      -8.901  15.403  68.351  1.00  0.00    -0.177 C  
HETATM    4  C   UNL     1      -9.915  16.399  68.958  1.00  0.00    -0.267 C  
HETATM    5  C   UNL     1      -8.582  15.888  66.919  1.00  0.00    -0.274 C  
HETATM    6  C   UNL     1      -7.601  15.476  69.176  1.00  0.00    -0.204 C  
ENDBRANCH   2   3
BRANCH   2   7
HETATM    7  N   UNL     1      -8.540  12.991  67.804  1.00  0.00    -0.175 NA 
HETATM    8  H   UNL     1      -7.830  13.314  67.147  1.00  0.00     0.000 HD 
HETATM    9  C   UNL     1      -8.534  11.667  68.180  1.00  0.00    -0.156 C  
HETATM   10  N   UNL     1      -9.596  11.141  68.719  1.00  0.00    -0.257 NA 
HETATM   11  N   UNL     1      -7.321  11.045  68.076  1.00  0.00    -0.086 NA 
HETATM   12  N   UNL     1      -5.473  11.830  66.435  1.00  0.00    -0.299 NA 
HETATM   13  H   UNL     1      -7.136  10.224  68.652  1.00  0.00     0.000 HD 
HETATM   14  C   UNL     1      -6.299  11.513  67.182  1.00  0.00    -0.124 C  
HETATM   15  H   UNL     1     -10.408  11.746  68.839  1.00  0.00     0.000 HD 
BRANCH  10  16
HETATM   16  C   UNL     1      -9.715   9.803  69.150  1.00  0.00    -0.184 A  
HETATM   17  C   UNL     1      -9.460   9.571  70.499  1.00  0.00    -0.306 A  
HETATM   18  C   UNL     1      -9.602   8.289  71.004  1.00  0.00    -0.160 A  
HETATM   19  N   UNL     1      -9.979   7.232  70.257  1.00  0.00    -0.187 NA 
HETATM   20  C   UNL     1     -10.257   7.480  68.961  1.00  0.00    -0.205 A  
HETATM   21  C   UNL     1     -10.158   8.734  68.374  1.00  0.00    -0.217 A  
ENDBRANCH  10  16
ENDBRANCH   2   7
TORSDOF 3
ENDMDL
MODEL      131
REMARK 921   NORMALIZED FREE ENERGY PREDICTED BY IDOCK:   -2.99 KCAL/MOL
REMARK 922        TOTAL FREE ENERGY PREDICTED BY IDOCK:   -3.94 KCAL/MOL
REMARK 923 INTER-LIGAND FREE ENERGY PREDICTED BY IDOCK:   -4.69 KCAL/MOL
REMARK 924 INTRA-LIGAND FREE ENERGY PREDICTED BY IDOCK:    0.76 KCAL/MOL
REMARK 927      BINDING AFFINITY PREDICTED BY RF-SCORE:    0.00 PKD
ROOT
HETATM    1  C   UNL     1      -7.549  17.501  67.205  1.00  0.00    -0.217 C  
HETATM    2  C   UNL     1      -9.068  17.693  67.226  1.00  0.00    -0.237 C  
ENDROOT
BRANCH   2   3
HETATM    3  C   UNL     1      -9.526  19.197  67.219  1.00  0.00    -0.367 C  
HETATM    4  C   UNL     1      -8.311  20.120  66.969  1.00  0.00    -0.382 C  
HETATM    5  C   UNL     1     -10.117  19.581  68.594  1.00  0.00    -0.535 C  
HETATM    6  C   UNL     1     -10.590  19.500  66.146  1.00  0.00    -0.585 C  
ENDBRANCH   2   3
BRANCH   2   7
HETATM    7  N   UNL     1      -9.651  16.985  68.373  1.00  0.00    -0.267 NA 
HETATM    8  H   UNL     1     -10.434  17.415  68.865  1.00  0.00     0.000 HD 
HETATM    9  C   UNL     1      -9.189  15.766  68.814  1.00  0.00    -0.216 C  
HETATM   10  N   UNL     1      -8.006  15.354  68.458  1.00  0.00    -0.134 NA 
HETATM   11  N   UNL     1     -10.106  15.014  69.494  1.00  0.00    -0.362 NA 
HETATM   12  N   UNL     1     -12.122  16.052  70.751  1.00  0.00    -0.339 NA 
HETATM   13  H   UNL     1      -9.986  14.002  69.530  1.00  0.00     0.000 HD 
HETATM   14  C   UNL     1     -11.232  15.605  70.160  1.00  0.00    -0.336 C  
HETATM   15  H   UNL     1      -7.458  15.969  67.857  1.00  0.00     0.000 HD 
BRANCH  10  16
HETATM   16  C   UNL     1      -7.420  14.128  68.837  1.00  0.00    -0.112 A  
HETATM   17  C   UNL     1      -6.524  14.182  69.900  1.00  0.00    -0.119 A  
HETATM   18  C   UNL     1      -5.944  13.010  70.357  1.00  0.00    -0.111 A  
HETATM   19  N   UNL     1      -6.198  11.797  69.827  1.00  0.00    -0.129 NA 
HETATM   20  C   UNL     1      -7.095  11.757  68.821  1.00  0.00    -0.111 A  
HETATM   21  C   UNL     1      -7.737  12.877  68.310  1.00  0.00    -0.137 A  
ENDBRANCH  10  16
ENDBRANCH   2   7
TORSDOF 3
ENDMDL
MODEL      132
REMARK 921   NORMALIZED FREE ENERGY PREDICTED BY IDOCK:   -2.94 KCAL/MOL
REMARK 922        TOTAL FREE ENERGY PREDICTED BY IDOCK:   -3.89 KCAL/MOL
REMARK 923 INTER-LIGAND FREE ENERGY PREDICTED BY IDOCK:   -5.47 KCAL/MOL
REMARK 924 INTRA-LIGAND FREE ENERGY PREDICTED BY IDOCK:    1.59 KCAL/MOL
REMARK 927      BINDING AFFINITY PREDICTED BY RF-SCORE:    0.00 PKD
ROOT
HETATM    1  C   UNL     1      -8.812   9.309  68.023  1.00  0.00    -0.128 C  
HETATM    2  C   UNL     1      -9.569   8.488  69.071  1.00  0.00    -0.167 C  
ENDROOT
BRANCH   2   3
HETATM    3  C   UNL     1      -9.998   7.057  68.579  1.00  0.00    -0.158 C  
HETATM    4  C   UNL     1     -10.426   7.113  67.095  1.00  0.00    -0.389 C  
HETATM    5  C   UNL     1     -11.217   6.560  69.388  1.00  0.00    -0.418 C  
HETATM    6  C   UNL     1      -8.878   6.008  68.719  1.00  0.00    -0.116 C  
ENDBRANCH   2   3
BRANCH   2   7
HETATM    7  N   UNL     1     -10.738   9.237  69.552  1.00  0.00    -0.229 NA 
HETATM    8  H   UNL     1     -11.225   8.899  70.382  1.00  0.00     0.000 HD 
HETATM    9  C   UNL     1     -11.204  10.374  68.934  1.00  0.00    -0.235 C  
HETATM   10  N   UNL     1     -10.849  10.638  67.709  1.00  0.00    -0.263 NA 
HETATM   11  N   UNL     1     -11.910  11.221  69.742  1.00  0.00    -0.332 NA 
HETATM   12  N   UNL     1     -13.157  10.422  71.870  1.00  0.00    -0.466 NA 
HETATM   13  H   UNL     1     -11.969  12.208  69.492  1.00  0.00     0.000 HD 
HETATM   14  C   UNL     1     -12.570  10.764  70.933  1.00  0.00    -0.401 C  
HETATM   15  H   UNL     1     -10.228   9.973  67.248  1.00  0.00     0.000 HD 
BRANCH  10  16
HETATM   16  C   UNL     1     -11.253  11.768  66.968  1.00  0.00    -0.322 A  
HETATM   17  C   UNL     1     -11.531  12.916  67.706  1.00  0.00    -0.369 A  
HETATM   18  C   UNL     1     -11.889  14.077  67.042  1.00  0.00    -0.428 A  
HETATM   19  N   UNL     1     -11.987  14.169  65.701  1.00  0.00    -0.380 NA 
HETATM   20  C   UNL     1     -11.680  13.059  64.999  1.00  0.00    -0.339 A  
HETATM   21  C   UNL     1     -11.296  11.858  65.578  1.00  0.00    -0.334 A  
ENDBRANCH  10  16
ENDBRANCH   2   7
TORSDOF 3
ENDMDL
MODEL      133
REMARK 921   NORMALIZED FREE ENERGY PREDICTED BY IDOCK:   -2.92 KCAL/MOL
REMARK 922        TOTAL FREE ENERGY PREDICTED BY IDOCK:   -3.86 KCAL/MOL
REMARK 923 INTER-LIGAND FREE ENERGY PREDICTED BY IDOCK:   -3.68 KCAL/MOL
REMARK 924 INTRA-LIGAND FREE ENERGY PREDICTED BY IDOCK:   -0.18 KCAL/MOL
REMARK 927      BINDING AFFINITY PREDICTED BY RF-SCORE:    0.00 PKD
ROOT
HETATM    1  C   UNL     1      -7.019   5.682  69.687  1.00  0.00    -0.063 C  
HETATM    2  C   UNL     1      -8.464   6.187  69.687  1.00  0.00    -0.127 C  
ENDROOT
BRANCH   2   3
HETATM    3  C   UNL     1      -9.399   5.463  70.724  1.00  0.00    -0.200 C  
HETATM    4  C   UNL     1     -10.881   5.653  70.325  1.00  0.00    -0.336 C  
HETATM    5  C   UNL     1      -9.219   6.083  72.127  1.00  0.00    -0.148 C  
HETATM    6  C   UNL     1      -9.120   3.951  70.836  1.00  0.00    -0.179 C  
ENDBRANCH   2   3
BRANCH   2   7
HETATM    7  N   UNL     1      -9.032   6.098  68.335  1.00  0.00    -0.116 NA 
HETATM    8  H   UNL     1      -8.981   5.206  67.843  1.00  0.00     0.000 HD 
HETATM    9  C   UNL     1      -9.628   7.164  67.703  1.00  0.00    -0.130 C  
HETATM   10  N   UNL     1      -9.409   8.376  68.127  1.00  0.00    -0.134 NA 
HETATM   11  N   UNL     1     -10.539   6.827  66.740  1.00  0.00    -0.473 NA 
HETATM   12  N   UNL     1     -10.469   4.569  65.467  1.00  0.00    -0.260 NA 
HETATM   13  H   UNL     1     -11.268   7.496  66.493  1.00  0.00     0.000 HD 
HETATM   14  C   UNL     1     -10.501   5.559  66.066  1.00  0.00     0.002 C  
HETATM   15  H   UNL     1      -8.786   8.485  68.927  1.00  0.00     0.000 HD 
BRANCH  10  16
HETATM   16  C   UNL     1      -9.961   9.548  67.570  1.00  0.00    -0.186 A  
HETATM   17  C   UNL     1      -9.403   9.976  66.369  1.00  0.00    -0.211 A  
HETATM   18  C   UNL     1      -9.925  11.095  65.740  1.00  0.00    -0.245 A  
HETATM   19  N   UNL     1     -10.958  11.809  66.228  1.00  0.00    -0.290 NA 
HETATM   20  C   UNL     1     -11.511  11.361  67.374  1.00  0.00    -0.251 A  
HETATM   21  C   UNL     1     -11.065  10.242  68.063  1.00  0.00    -0.336 A  
ENDBRANCH  10  16
ENDBRANCH   2   7
TORSDOF 3
ENDMDL
MODEL      134
REMARK 921   NORMALIZED FREE ENERGY PREDICTED BY IDOCK:   -2.92 KCAL/MOL
REMARK 922        TOTAL FREE ENERGY PREDICTED BY IDOCK:   -3.86 KCAL/MOL
REMARK 923 INTER-LIGAND FREE ENERGY PREDICTED BY IDOCK:   -3.48 KCAL/MOL
REMARK 924 INTRA-LIGAND FREE ENERGY PREDICTED BY IDOCK:   -0.39 KCAL/MOL
REMARK 927      BINDING AFFINITY PREDICTED BY RF-SCORE:    0.00 PKD
ROOT
HETATM    1  C   UNL     1     -10.061   9.767  65.811  1.00  0.00    -0.308 C  
HETATM    2  C   UNL     1      -8.985   9.102  66.674  1.00  0.00    -0.137 C  
ENDROOT
BRANCH   2   3
HETATM    3  C   UNL     1      -7.566   9.041  65.999  1.00  0.00    -0.094 C  
HETATM    4  C   UNL     1      -7.558   7.977  64.876  1.00  0.00    -0.106 C  
HETATM    5  C   UNL     1      -6.501   8.619  67.035  1.00  0.00    -0.057 C  
HETATM    6  C   UNL     1      -7.127  10.387  65.390  1.00  0.00    -0.117 C  
ENDBRANCH   2   3
BRANCH   2   7
HETATM    7  N   UNL     1      -9.419   7.758  67.078  1.00  0.00    -0.153 NA 
HETATM    8  H   UNL     1      -9.515   7.040  66.359  1.00  0.00     0.000 HD 
HETATM    9  C   UNL     1      -9.702   7.424  68.382  1.00  0.00    -0.153 C  
HETATM   10  N   UNL     1      -9.933   8.361  69.256  1.00  0.00    -0.190 NA 
HETATM   11  N   UNL     1      -9.572   6.096  68.677  1.00  0.00    -0.126 NA 
HETATM   12  N   UNL     1      -9.792   4.229  66.892  1.00  0.00    -0.213 NA 
HETATM   13  H   UNL     1      -9.400   5.819  69.644  1.00  0.00     0.000 HD 
HETATM   14  C   UNL     1      -9.668   5.078  67.669  1.00  0.00    -0.154 C  
HETATM   15  H   UNL     1      -9.896   9.326  68.928  1.00  0.00     0.000 HD 
BRANCH  10  16
HETATM   16  C   UNL     1     -10.229   8.151  70.619  1.00  0.00    -0.196 A  
HETATM   17  C   UNL     1     -11.530   7.750  70.907  1.00  0.00    -0.294 A  
HETATM   18  C   UNL     1     -11.882   7.481  72.220  1.00  0.00    -0.289 A  
HETATM   19  N   UNL     1     -11.026   7.586  73.256  1.00  0.00    -0.375 NA 
HETATM   20  C   UNL     1      -9.760   7.941  72.957  1.00  0.00    -0.283 A  
HETATM   21  C   UNL     1      -9.316   8.214  71.670  1.00  0.00    -0.228 A  
ENDBRANCH  10  16
ENDBRANCH   2   7
TORSDOF 3
ENDMDL
MODEL      135
REMARK 921   NORMALIZED FREE ENERGY PREDICTED BY IDOCK:   -2.83 KCAL/MOL
REMARK 922        TOTAL FREE ENERGY PREDICTED BY IDOCK:   -3.75 KCAL/MOL
REMARK 923 INTER-LIGAND FREE ENERGY PREDICTED BY IDOCK:   -3.62 KCAL/MOL
REMARK 924 INTRA-LIGAND FREE ENERGY PREDICTED BY IDOCK:   -0.13 KCAL/MOL
REMARK 927      BINDING AFFINITY PREDICTED BY RF-SCORE:    0.00 PKD
ROOT
HETATM    1  C   UNL     1     -10.916  10.104  70.217  1.00  0.00    -0.380 C  
HETATM    2  C   UNL     1     -11.069   8.610  70.519  1.00  0.00    -0.242 C  
ENDROOT
BRANCH   2   3
HETATM    3  C   UNL     1     -11.985   8.295  71.758  1.00  0.00    -0.364 C  
HETATM    4  C   UNL     1     -11.125   7.791  72.940  1.00  0.00    -0.457 C  
HETATM    5  C   UNL     1     -12.986   7.172  71.408  1.00  0.00    -0.419 C  
HETATM    6  C   UNL     1     -12.794   9.516  72.238  1.00  0.00    -0.426 C  
ENDBRANCH   2   3
BRANCH   2   7
HETATM    7  N   UNL     1      -9.747   7.991  70.688  1.00  0.00    -0.173 NA 
HETATM    8  H   UNL     1      -9.423   7.784  71.633  1.00  0.00     0.000 HD 
HETATM    9  C   UNL     1      -8.928   7.677  69.628  1.00  0.00    -0.140 C  
HETATM   10  N   UNL     1      -9.132   8.226  68.466  1.00  0.00    -0.137 NA 
HETATM   11  N   UNL     1      -8.030   6.675  69.872  1.00  0.00    -0.115 NA 
HETATM   12  N   UNL     1      -7.180   6.095  72.252  1.00  0.00    -0.087 NA 
HETATM   13  H   UNL     1      -7.659   6.142  69.085  1.00  0.00     0.000 HD 
HETATM   14  C   UNL     1      -7.594   6.350  71.201  1.00  0.00    -0.090 C  
HETATM   15  H   UNL     1      -9.908   8.884  68.389  1.00  0.00     0.000 HD 
BRANCH  10  16
HETATM   16  C   UNL     1      -8.369   7.986  67.304  1.00  0.00    -0.122 A  
HETATM   17  C   UNL     1      -8.880   7.037  66.422  1.00  0.00    -0.158 A  
HETATM   18  C   UNL     1      -8.208   6.782  65.238  1.00  0.00    -0.127 A  
HETATM   19  N   UNL     1      -7.069   7.406  64.879  1.00  0.00    -0.058 NA 
HETATM   20  C   UNL     1      -6.607   8.348  65.726  1.00  0.00    -0.053 A  
HETATM   21  C   UNL     1      -7.222   8.681  66.925  1.00  0.00    -0.075 A  
ENDBRANCH  10  16
ENDBRANCH   2   7
TORSDOF 3
ENDMDL
MODEL      136
REMARK 921   NORMALIZED FREE ENERGY PREDICTED BY IDOCK:   -2.82 KCAL/MOL
REMARK 922        TOTAL FREE ENERGY PREDICTED BY IDOCK:   -3.74 KCAL/MOL
REMARK 923 INTER-LIGAND FREE ENERGY PREDICTED BY IDOCK:   -4.67 KCAL/MOL
REMARK 924 INTRA-LIGAND FREE ENERGY PREDICTED BY IDOCK:    0.93 KCAL/MOL
REMARK 927      BINDING AFFINITY PREDICTED BY RF-SCORE:    0.00 PKD
ROOT
HETATM    1  C   UNL     1     -11.540  12.809  67.604  1.00  0.00    -0.412 C  
HETATM    2  C   UNL     1     -11.781  13.332  66.185  1.00  0.00    -0.374 C  
ENDROOT
BRANCH   2   3
HETATM    3  C   UNL     1     -11.341  12.336  65.050  1.00  0.00    -0.376 C  
HETATM    4  C   UNL     1     -12.572  11.889  64.230  1.00  0.00    -0.245 C  
HETATM    5  C   UNL     1     -10.717  11.065  65.669  1.00  0.00    -0.217 C  
HETATM    6  C   UNL     1     -10.309  12.944  64.079  1.00  0.00    -0.346 C  
ENDBRANCH   2   3
BRANCH   2   7
HETATM    7  N   UNL     1     -11.126  14.634  66.008  1.00  0.00    -0.327 NA 
HETATM    8  H   UNL     1     -11.537  15.302  65.355  1.00  0.00     0.000 HD 
HETATM    9  C   UNL     1      -9.982  14.994  66.683  1.00  0.00    -0.256 C  
HETATM   10  N   UNL     1      -9.242  14.078  67.239  1.00  0.00    -0.220 NA 
HETATM   11  N   UNL     1      -9.800  16.341  66.829  1.00  0.00    -0.236 NA 
HETATM   12  N   UNL     1     -10.830  18.085  65.211  1.00  0.00    -0.546 NA 
HETATM   13  H   UNL     1      -9.218  16.681  67.595  1.00  0.00     0.000 HD 
HETATM   14  C   UNL     1     -10.403  17.293  65.939  1.00  0.00    -0.278 C  
HETATM   15  H   UNL     1      -9.548  13.110  67.145  1.00  0.00     0.000 HD 
BRANCH  10  16
HETATM   16  C   UNL     1      -8.053  14.316  67.960  1.00  0.00    -0.145 A  
HETATM   17  C   UNL     1      -6.942  13.575  67.568  1.00  0.00    -0.157 A  
HETATM   18  C   UNL     1      -5.728  13.787  68.200  1.00  0.00    -0.118 A  
HETATM   19  N   UNL     1      -5.552  14.684  69.191  1.00  0.00    -0.091 NA 
HETATM   20  C   UNL     1      -6.629  15.419  69.535  1.00  0.00    -0.166 A  
HETATM   21  C   UNL     1      -7.878  15.286  68.945  1.00  0.00    -0.165 A  
ENDBRANCH  10  16
ENDBRANCH   2   7
TORSDOF 3
ENDMDL
MODEL      137
REMARK 921   NORMALIZED FREE ENERGY PREDICTED BY IDOCK:   -2.82 KCAL/MOL
REMARK 922        TOTAL FREE ENERGY PREDICTED BY IDOCK:   -3.74 KCAL/MOL
REMARK 923 INTER-LIGAND FREE ENERGY PREDICTED BY IDOCK:   -3.38 KCAL/MOL
REMARK 924 INTRA-LIGAND FREE ENERGY PREDICTED BY IDOCK:   -0.36 KCAL/MOL
REMARK 927      BINDING AFFINITY PREDICTED BY RF-SCORE:    0.00 PKD
ROOT
HETATM    1  C   UNL     1      -8.476   7.032  65.996  1.00  0.00    -0.141 C  
HETATM    2  C   UNL     1      -8.256   8.506  65.647  1.00  0.00    -0.130 C  
ENDROOT
BRANCH   2   3
HETATM    3  C   UNL     1      -6.922   8.790  64.863  1.00  0.00    -0.073 C  
HETATM    4  C   UNL     1      -6.441   7.504  64.153  1.00  0.00    -0.048 C  
HETATM    5  C   UNL     1      -5.808   9.214  65.846  1.00  0.00    -0.050 C  
HETATM    6  C   UNL     1      -7.067   9.901  63.804  1.00  0.00    -0.126 C  
ENDBRANCH   2   3
BRANCH   2   7
HETATM    7  N   UNL     1      -8.322   9.329  66.862  1.00  0.00    -0.122 NA 
HETATM    8  H   UNL     1      -7.840   9.002  67.699  1.00  0.00     0.000 HD 
HETATM    9  C   UNL     1      -9.006  10.522  66.921  1.00  0.00    -0.140 C  
HETATM   10  N   UNL     1      -9.904  10.800  66.020  1.00  0.00    -0.225 NA 
HETATM   11  N   UNL     1      -8.561  11.393  67.876  1.00  0.00    -0.135 NA 
HETATM   12  N   UNL     1      -7.318  10.621  70.016  1.00  0.00    -0.128 NA 
HETATM   13  H   UNL     1      -8.741  12.390  67.757  1.00  0.00     0.000 HD 
HETATM   14  C   UNL     1      -7.849  10.948  69.041  1.00  0.00    -0.138 C  
HETATM   15  H   UNL     1     -10.069  10.104  65.294  1.00  0.00     0.000 HD 
BRANCH  10  16
HETATM   16  C   UNL     1     -10.667  11.985  65.967  1.00  0.00    -0.279 A  
HETATM   17  C   UNL     1     -11.580  12.171  67.002  1.00  0.00    -0.406 A  
HETATM   18  C   UNL     1     -12.332  13.333  67.041  1.00  0.00    -0.132 A  
HETATM   19  N   UNL     1     -12.235  14.314  66.123  1.00  0.00    -0.430 NA 
HETATM   20  C   UNL     1     -11.322  14.135  65.146  1.00  0.00    -0.336 A  
HETATM   21  C   UNL     1     -10.514  13.012  65.038  1.00  0.00    -0.345 A  
ENDBRANCH  10  16
ENDBRANCH   2   7
TORSDOF 3
ENDMDL
MODEL      138
REMARK 921   NORMALIZED FREE ENERGY PREDICTED BY IDOCK:   -2.82 KCAL/MOL
REMARK 922        TOTAL FREE ENERGY PREDICTED BY IDOCK:   -3.74 KCAL/MOL
REMARK 923 INTER-LIGAND FREE ENERGY PREDICTED BY IDOCK:   -3.67 KCAL/MOL
REMARK 924 INTRA-LIGAND FREE ENERGY PREDICTED BY IDOCK:   -0.07 KCAL/MOL
REMARK 927      BINDING AFFINITY PREDICTED BY RF-SCORE:    0.00 PKD
ROOT
HETATM    1  C   UNL     1      -5.805  14.703  68.819  1.00  0.00    -0.085 C  
HETATM    2  C   UNL     1      -6.851  15.353  67.909  1.00  0.00    -0.149 C  
ENDROOT
BRANCH   2   3
HETATM    3  C   UNL     1      -6.715  16.915  67.785  1.00  0.00    -0.161 C  
HETATM    4  C   UNL     1      -5.640  17.433  68.769  1.00  0.00    -0.158 C  
HETATM    5  C   UNL     1      -8.048  17.597  68.164  1.00  0.00    -0.252 C  
HETATM    6  C   UNL     1      -6.333  17.378  66.366  1.00  0.00    -0.268 C  
ENDBRANCH   2   3
BRANCH   2   7
HETATM    7  N   UNL     1      -8.203  14.990  68.353  1.00  0.00    -0.144 NA 
HETATM    8  H   UNL     1      -8.597  15.472  69.160  1.00  0.00     0.000 HD 
HETATM    9  C   UNL     1      -8.962  14.027  67.728  1.00  0.00    -0.186 C  
HETATM   10  N   UNL     1      -8.391  13.160  66.942  1.00  0.00    -0.394 NA 
HETATM   11  N   UNL     1     -10.313  14.164  67.889  1.00  0.00    -0.232 NA 
HETATM   12  N   UNL     1     -11.371  15.393  69.912  1.00  0.00    -0.278 NA 
HETATM   13  H   UNL     1     -10.937  13.751  67.197  1.00  0.00     0.000 HD 
HETATM   14  C   UNL     1     -10.879  14.874  69.002  1.00  0.00    -0.245 C  
HETATM   15  H   UNL     1      -7.380  13.231  66.823  1.00  0.00     0.000 HD 
BRANCH  10  16
HETATM   16  C   UNL     1      -9.055  12.131  66.242  1.00  0.00    -0.141 A  
HETATM   17  C   UNL     1      -8.538  10.848  66.406  1.00  0.00    -0.160 A  
HETATM   18  C   UNL     1      -9.165   9.781  65.785  1.00  0.00    -0.191 A  
HETATM   19  N   UNL     1     -10.266   9.907  65.018  1.00  0.00    -0.082 NA 
HETATM   20  C   UNL     1     -10.775  11.151  64.898  1.00  0.00    -0.248 A  
HETATM   21  C   UNL     1     -10.223  12.275  65.497  1.00  0.00    -0.296 A  
ENDBRANCH  10  16
ENDBRANCH   2   7
TORSDOF 3
ENDMDL
MODEL      139
REMARK 921   NORMALIZED FREE ENERGY PREDICTED BY IDOCK:   -2.79 KCAL/MOL
REMARK 922        TOTAL FREE ENERGY PREDICTED BY IDOCK:   -3.70 KCAL/MOL
REMARK 923 INTER-LIGAND FREE ENERGY PREDICTED BY IDOCK:   -4.03 KCAL/MOL
REMARK 924 INTRA-LIGAND FREE ENERGY PREDICTED BY IDOCK:    0.32 KCAL/MOL
REMARK 927      BINDING AFFINITY PREDICTED BY RF-SCORE:    0.00 PKD
ROOT
HETATM    1  C   UNL     1      -7.237   8.649  66.690  1.00  0.00    -0.081 C  
HETATM    2  C   UNL     1      -7.506  10.111  67.059  1.00  0.00    -0.092 C  
ENDROOT
BRANCH   2   3
HETATM    3  C   UNL     1      -6.350  10.790  67.882  1.00  0.00    -0.061 C  
HETATM    4  C   UNL     1      -6.945  11.734  68.951  1.00  0.00    -0.109 C  
HETATM    5  C   UNL     1      -5.469  11.651  66.950  1.00  0.00    -0.129 C  
HETATM    6  C   UNL     1      -5.435   9.773  68.592  1.00  0.00    -0.036 C  
ENDBRANCH   2   3
BRANCH   2   7
HETATM    7  N   UNL     1      -8.782  10.225  67.777  1.00  0.00    -0.122 NA 
HETATM    8  H   UNL     1      -8.924   9.656  68.612  1.00  0.00     0.000 HD 
HETATM    9  C   UNL     1      -9.795  11.065  67.374  1.00  0.00    -0.173 C  
HETATM   10  N   UNL     1      -9.806  11.530  66.158  1.00  0.00    -0.213 NA 
HETATM   11  N   UNL     1     -10.649  11.455  68.367  1.00  0.00    -0.193 NA 
HETATM   12  N   UNL     1     -11.039  10.059  70.517  1.00  0.00    -0.311 NA 
HETATM   13  H   UNL     1     -11.173  12.323  68.256  1.00  0.00     0.000 HD 
HETATM   14  C   UNL     1     -10.830  10.682  69.564  1.00  0.00    -0.259 C  
HETATM   15  H   UNL     1      -9.047  11.243  65.540  1.00  0.00     0.000 HD 
BRANCH  10  16
HETATM   16  C   UNL     1     -10.781  12.399  65.625  1.00  0.00    -0.264 A  
HETATM   17  C   UNL     1     -10.539  12.875  64.339  1.00  0.00    -0.418 A  
HETATM   18  C   UNL     1     -11.475  13.696  63.733  1.00  0.00    -0.069 A  
HETATM   19  N   UNL     1     -12.628  14.072  64.321  1.00  0.00    -0.685 NA 
HETATM   20  C   UNL     1     -12.864  13.574  65.553  1.00  0.00    -0.350 A  
HETATM   21  C   UNL     1     -11.992  12.733  66.229  1.00  0.00    -0.460 A  
ENDBRANCH  10  16
ENDBRANCH   2   7
TORSDOF 3
ENDMDL
MODEL      140
REMARK 921   NORMALIZED FREE ENERGY PREDICTED BY IDOCK:   -2.75 KCAL/MOL
REMARK 922        TOTAL FREE ENERGY PREDICTED BY IDOCK:   -3.66 KCAL/MOL
REMARK 923 INTER-LIGAND FREE ENERGY PREDICTED BY IDOCK:   -4.52 KCAL/MOL
REMARK 924 INTRA-LIGAND FREE ENERGY PREDICTED BY IDOCK:    0.86 KCAL/MOL
REMARK 927      BINDING AFFINITY PREDICTED BY RF-SCORE:    0.00 PKD
ROOT
HETATM    1  C   UNL     1     -11.651  16.559  71.179  1.00  0.00    -0.067 C  
HETATM    2  C   UNL     1     -12.451  15.541  70.362  1.00  0.00    -0.402 C  
ENDROOT
BRANCH   2   3
HETATM    3  C   UNL     1     -12.631  14.148  71.068  1.00  0.00    -0.439 C  
HETATM    4  C   UNL     1     -14.084  13.994  71.575  1.00  0.00    -0.270 C  
HETATM    5  C   UNL     1     -11.704  14.052  72.301  1.00  0.00     1.039 C  
HETATM    6  C   UNL     1     -12.314  12.955  70.145  1.00  0.00    -0.249 C  
ENDBRANCH   2   3
BRANCH   2   7
HETATM    7  N   UNL     1     -11.844  15.369  69.035  1.00  0.00    -0.451 NA 
HETATM    8  H   UNL     1     -11.921  14.460  68.578  1.00  0.00     0.000 HD 
HETATM    9  C   UNL     1     -11.176  16.378  68.381  1.00  0.00    -0.324 C  
HETATM   10  N   UNL     1     -10.754  17.414  69.048  1.00  0.00    -0.335 NA 
HETATM   11  N   UNL     1     -11.141  16.258  67.020  1.00  0.00    -0.077 NA 
HETATM   12  N   UNL     1     -11.346  13.978  65.803  1.00  0.00    -0.307 NA 
HETATM   13  H   UNL     1     -11.009  17.096  66.453  1.00  0.00     0.000 HD 
HETATM   14  C   UNL     1     -11.285  14.989  66.363  1.00  0.00    -0.310 C  
HETATM   15  H   UNL     1     -10.938  17.432  70.051  1.00  0.00     0.000 HD 
BRANCH  10  16
HETATM   16  C   UNL     1     -10.064  18.514  68.497  1.00  0.00    -0.378 A  
HETATM   17  C   UNL     1      -8.674  18.464  68.574  1.00  0.00    -0.336 A  
HETATM   18  C   UNL     1      -7.928  19.487  68.013  1.00  0.00    -0.307 A  
HETATM   19  N   UNL     1      -8.472  20.548  67.385  1.00  0.00    -0.324 NA 
HETATM   20  C   UNL     1      -9.817  20.564  67.288  1.00  0.00    -0.441 A  
HETATM   21  C   UNL     1     -10.643  19.576  67.805  1.00  0.00    -0.542 A  
ENDBRANCH  10  16
ENDBRANCH   2   7
TORSDOF 3
ENDMDL
MODEL      141
REMARK 921   NORMALIZED FREE ENERGY PREDICTED BY IDOCK:   -2.67 KCAL/MOL
REMARK 922        TOTAL FREE ENERGY PREDICTED BY IDOCK:   -3.57 KCAL/MOL
REMARK 923 INTER-LIGAND FREE ENERGY PREDICTED BY IDOCK:   -4.13 KCAL/MOL
REMARK 924 INTRA-LIGAND FREE ENERGY PREDICTED BY IDOCK:    0.56 KCAL/MOL
REMARK 927      BINDING AFFINITY PREDICTED BY RF-SCORE:    0.00 PKD
ROOT
HETATM    1  C   UNL     1      -8.614   7.196  66.107  1.00  0.00    -0.151 C  
HETATM    2  C   UNL     1      -8.670   6.529  67.485  1.00  0.00    -0.114 C  
ENDROOT
BRANCH   2   3
HETATM    3  C   UNL     1      -9.913   5.589  67.694  1.00  0.00    -0.187 C  
HETATM    4  C   UNL     1      -9.492   4.110  67.534  1.00  0.00    -0.225 C  
HETATM    5  C   UNL     1     -10.986   5.877  66.621  1.00  0.00    -0.228 C  
HETATM    6  C   UNL     1     -10.572   5.755  69.078  1.00  0.00    -0.351 C  
ENDBRANCH   2   3
BRANCH   2   7
HETATM    7  N   UNL     1      -8.614   7.548  68.542  1.00  0.00    -0.129 NA 
HETATM    8  H   UNL     1      -8.237   7.285  69.452  1.00  0.00     0.000 HD 
HETATM    9  C   UNL     1      -9.049   8.840  68.359  1.00  0.00    -0.141 C  
HETATM   10  N   UNL     1      -9.841   9.124  67.365  1.00  0.00    -0.173 NA 
HETATM   11  N   UNL     1      -8.474   9.764  69.187  1.00  0.00    -0.133 NA 
HETATM   12  N   UNL     1      -7.485   9.153  71.505  1.00  0.00    -0.333 NA 
HETATM   13  H   UNL     1      -8.447  10.741  68.895  1.00  0.00     0.000 HD 
HETATM   14  C   UNL     1      -7.906   9.400  70.455  1.00  0.00    -0.164 C  
HETATM   15  H   UNL     1     -10.115   8.356  66.752  1.00  0.00     0.000 HD 
BRANCH  10  16
HETATM   16  C   UNL     1     -10.351  10.405  67.067  1.00  0.00    -0.240 A  
HETATM   17  C   UNL     1      -9.938  10.961  65.859  1.00  0.00    -0.294 A  
HETATM   18  C   UNL     1     -10.433  12.197  65.479  1.00  0.00    -0.265 A  
HETATM   19  N   UNL     1     -11.307  12.909  66.217  1.00  0.00    -0.309 NA 
HETATM   20  C   UNL     1     -11.725  12.341  67.367  1.00  0.00    -0.335 A  
HETATM   21  C   UNL     1     -11.295  11.101  67.819  1.00  0.00    -0.364 A  
ENDBRANCH  10  16
ENDBRANCH   2   7
TORSDOF 3
ENDMDL
MODEL      142
REMARK 921   NORMALIZED FREE ENERGY PREDICTED BY IDOCK:   -2.65 KCAL/MOL
REMARK 922        TOTAL FREE ENERGY PREDICTED BY IDOCK:   -3.54 KCAL/MOL
REMARK 923 INTER-LIGAND FREE ENERGY PREDICTED BY IDOCK:   -4.12 KCAL/MOL
REMARK 924 INTRA-LIGAND FREE ENERGY PREDICTED BY IDOCK:    0.58 KCAL/MOL
REMARK 927      BINDING AFFINITY PREDICTED BY RF-SCORE:    0.00 PKD
ROOT
HETATM    1  C   UNL     1     -10.101   5.511  67.993  1.00  0.00    -0.221 C  
HETATM    2  C   UNL     1     -10.778   6.882  68.063  1.00  0.00    -0.218 C  
ENDROOT
BRANCH   2   3
HETATM    3  C   UNL     1      -9.804   8.093  67.816  1.00  0.00    -0.209 C  
HETATM    4  C   UNL     1      -8.353   7.684  68.156  1.00  0.00    -0.124 C  
HETATM    5  C   UNL     1     -10.176   9.273  68.741  1.00  0.00    -0.223 C  
HETATM    6  C   UNL     1      -9.833   8.605  66.362  1.00  0.00    -0.341 C  
ENDBRANCH   2   3
BRANCH   2   7
HETATM    7  N   UNL     1     -11.474   7.038  69.347  1.00  0.00    -0.536 NA 
HETATM    8  H   UNL     1     -12.305   7.628  69.382  1.00  0.00     0.000 HD 
HETATM    9  C   UNL     1     -11.054   6.424  70.504  1.00  0.00    -0.328 C  
HETATM   10  N   UNL     1      -9.839   5.965  70.591  1.00  0.00    -0.178 NA 
HETATM   11  N   UNL     1     -12.034   6.223  71.437  1.00  0.00    -0.233 NA 
HETATM   12  N   UNL     1     -14.174   7.681  71.566  1.00  0.00    -0.442 NA 
HETATM   13  H   UNL     1     -11.914   5.482  72.128  1.00  0.00     0.000 HD 
HETATM   14  C   UNL     1     -13.226   7.023  71.474  1.00  0.00    -0.317 C  
HETATM   15  H   UNL     1      -9.235   6.086  69.779  1.00  0.00     0.000 HD 
BRANCH  10  16
HETATM   16  C   UNL     1      -9.291   5.314  71.716  1.00  0.00    -0.146 A  
HETATM   17  C   UNL     1      -9.441   3.930  71.755  1.00  0.00    -0.210 A  
HETATM   18  C   UNL     1      -8.888   3.218  72.806  1.00  0.00    -0.085 A  
HETATM   19  N   UNL     1      -8.201   3.791  73.814  1.00  0.00    -0.086 NA 
HETATM   20  C   UNL     1      -8.033   5.128  73.743  1.00  0.00    -0.105 A  
HETATM   21  C   UNL     1      -8.537   5.918  72.720  1.00  0.00    -0.122 A  
ENDBRANCH  10  16
ENDBRANCH   2   7
TORSDOF 3
ENDMDL
MODEL      143
REMARK 921   NORMALIZED FREE ENERGY PREDICTED BY IDOCK:   -2.65 KCAL/MOL
REMARK 922        TOTAL FREE ENERGY PREDICTED BY IDOCK:   -3.54 KCAL/MOL
REMARK 923 INTER-LIGAND FREE ENERGY PREDICTED BY IDOCK:   -3.51 KCAL/MOL
REMARK 924 INTRA-LIGAND FREE ENERGY PREDICTED BY IDOCK:   -0.04 KCAL/MOL
REMARK 927      BINDING AFFINITY PREDICTED BY RF-SCORE:    0.00 PKD
ROOT
HETATM    1  C   UNL     1     -11.619  15.531  64.335  1.00  0.00    -0.258 C  
HETATM    2  C   UNL     1     -10.872  15.267  65.646  1.00  0.00    -0.363 C  
ENDROOT
BRANCH   2   3
HETATM    3  C   UNL     1     -11.580  14.228  66.591  1.00  0.00    -0.397 C  
HETATM    4  C   UNL     1     -12.812  13.620  65.882  1.00  0.00    -0.328 C  
HETATM    5  C   UNL     1     -12.089  14.932  67.869  1.00  0.00    -0.089 C  
HETATM    6  C   UNL     1     -10.654  13.074  67.023  1.00  0.00    -0.262 C  
ENDBRANCH   2   3
BRANCH   2   7
HETATM    7  N   UNL     1     -10.636  16.530  66.357  1.00  0.00    -0.266 NA 
HETATM    8  H   UNL     1     -11.242  17.325  66.154  1.00  0.00     0.000 HD 
HETATM    9  C   UNL     1      -9.634  16.689  67.286  1.00  0.00    -0.243 C  
HETATM   10  N   UNL     1      -8.643  15.846  67.322  1.00  0.00    -0.175 NA 
HETATM   11  N   UNL     1      -9.855  17.673  68.209  1.00  0.00    -0.306 NA 
HETATM   12  N   UNL     1     -11.395  19.709  67.753  1.00  0.00     0.257 NA 
HETATM   13  H   UNL     1      -9.380  17.622  69.110  1.00  0.00     0.000 HD 
HETATM   14  C   UNL     1     -10.735  18.778  67.948  1.00  0.00    -0.285 C  
HETATM   15  H   UNL     1      -8.650  15.087  66.640  1.00  0.00     0.000 HD 
BRANCH  10  16
HETATM   16  C   UNL     1      -7.560  15.895  68.224  1.00  0.00    -0.135 A  
HETATM   17  C   UNL     1      -7.693  15.133  69.382  1.00  0.00    -0.213 A  
HETATM   18  C   UNL     1      -6.651  15.097  70.293  1.00  0.00    -0.038 A  
HETATM   19  N   UNL     1      -5.493  15.767  70.127  1.00  0.00    -0.144 NA 
HETATM   20  C   UNL     1      -5.365  16.472  68.985  1.00  0.00    -0.119 A  
HETATM   21  C   UNL     1      -6.350  16.552  68.010  1.00  0.00    -0.141 A  
ENDBRANCH  10  16
ENDBRANCH   2   7
TORSDOF 3
ENDMDL
MODEL      144
REMARK 921   NORMALIZED FREE ENERGY PREDICTED BY IDOCK:   -2.65 KCAL/MOL
REMARK 922        TOTAL FREE ENERGY PREDICTED BY IDOCK:   -3.54 KCAL/MOL
REMARK 923 INTER-LIGAND FREE ENERGY PREDICTED BY IDOCK:   -4.38 KCAL/MOL
REMARK 924 INTRA-LIGAND FREE ENERGY PREDICTED BY IDOCK:    0.84 KCAL/MOL
REMARK 927      BINDING AFFINITY PREDICTED BY RF-SCORE:    0.00 PKD
ROOT
HETATM    1  C   UNL     1      -9.492  12.483  66.414  1.00  0.00    -0.233 C  
HETATM    2  C   UNL     1      -9.155  11.846  67.765  1.00  0.00    -0.180 C  
ENDROOT
BRANCH   2   3
HETATM    3  C   UNL     1     -10.401  11.267  68.532  1.00  0.00    -0.217 C  
HETATM    4  C   UNL     1      -9.935  10.374  69.704  1.00  0.00    -0.209 C  
HETATM    5  C   UNL     1     -11.243  10.381  67.587  1.00  0.00    -0.287 C  
HETATM    6  C   UNL     1     -11.325  12.364  69.100  1.00  0.00    -0.327 C  
ENDBRANCH   2   3
BRANCH   2   7
HETATM    7  N   UNL     1      -8.433  12.805  68.611  1.00  0.00    -0.351 NA 
HETATM    8  H   UNL     1      -7.870  12.447  69.383  1.00  0.00     0.000 HD 
HETATM    9  C   UNL     1      -8.480  14.165  68.408  1.00  0.00    -0.170 C  
HETATM   10  N   UNL     1      -9.433  14.679  67.686  1.00  0.00    -0.202 NA 
HETATM   11  N   UNL     1      -7.403  14.856  68.889  1.00  0.00    -0.126 NA 
HETATM   12  N   UNL     1      -5.930  13.990  70.838  1.00  0.00    -0.205 NA 
HETATM   13  H   UNL     1      -7.176  15.763  68.480  1.00  0.00     0.000 HD 
HETATM   14  C   UNL     1      -6.582  14.346  69.950  1.00  0.00    -0.133 C  
HETATM   15  H   UNL     1     -10.122  14.037  67.293  1.00  0.00     0.000 HD 
BRANCH  10  16
HETATM   16  C   UNL     1      -9.591  16.052  67.400  1.00  0.00    -0.225 A  
HETATM   17  C   UNL     1     -10.362  16.779  68.303  1.00  0.00    -0.319 A  
HETATM   18  C   UNL     1     -10.523  18.141  68.112  1.00  0.00    -0.349 A  
HETATM   19  N   UNL     1      -9.970  18.821  67.088  1.00  0.00    -0.321 NA 
HETATM   20  C   UNL     1      -9.196  18.109  66.243  1.00  0.00    -0.199 A  
HETATM   21  C   UNL     1      -8.966  16.746  66.366  1.00  0.00    -0.325 A  
ENDBRANCH  10  16
ENDBRANCH   2   7
TORSDOF 3
ENDMDL
MODEL      145
REMARK 921   NORMALIZED FREE ENERGY PREDICTED BY IDOCK:   -2.64 KCAL/MOL
REMARK 922        TOTAL FREE ENERGY PREDICTED BY IDOCK:   -3.53 KCAL/MOL
REMARK 923 INTER-LIGAND FREE ENERGY PREDICTED BY IDOCK:   -3.08 KCAL/MOL
REMARK 924 INTRA-LIGAND FREE ENERGY PREDICTED BY IDOCK:   -0.46 KCAL/MOL
REMARK 927      BINDING AFFINITY PREDICTED BY RF-SCORE:    0.00 PKD
ROOT
HETATM    1  C   UNL     1      -9.316   7.996  73.145  1.00  0.00    -0.346 C  
HETATM    2  C   UNL     1      -9.696   7.180  71.906  1.00  0.00    -0.156 C  
ENDROOT
BRANCH   2   3
HETATM    3  C   UNL     1     -11.025   7.651  71.208  1.00  0.00    -0.260 C  
HETATM    4  C   UNL     1     -10.844   7.657  69.673  1.00  0.00    -0.195 C  
HETATM    5  C   UNL     1     -11.367   9.096  71.635  1.00  0.00    -0.446 C  
HETATM    6  C   UNL     1     -12.236   6.759  71.547  1.00  0.00    -0.413 C  
ENDBRANCH   2   3
BRANCH   2   7
HETATM    7  N   UNL     1      -9.773   5.752  72.244  1.00  0.00    -0.154 NA 
HETATM    8  H   UNL     1     -10.182   5.485  73.140  1.00  0.00     0.000 HD 
HETATM    9  C   UNL     1      -9.318   4.760  71.407  1.00  0.00    -0.147 C  
HETATM   10  N   UNL     1      -8.492   5.052  70.444  1.00  0.00    -0.099 NA 
HETATM   11  N   UNL     1      -9.907   3.540  71.588  1.00  0.00    -0.172 NA 
HETATM   12  N   UNL     1     -10.975   2.810  73.835  1.00  0.00    -0.197 NA 
HETATM   13  H   UNL     1      -9.913   2.874  70.814  1.00  0.00     0.000 HD 
HETATM   14  C   UNL     1     -10.519   3.165  72.832  1.00  0.00    -0.150 C  
HETATM   15  H   UNL     1      -8.208   6.027  70.351  1.00  0.00     0.000 HD 
BRANCH  10  16
HETATM   16  C   UNL     1      -7.958   4.131  69.519  1.00  0.00    -0.056 A  
HETATM   17  C   UNL     1      -6.760   3.522  69.885  1.00  0.00    -0.034 A  
HETATM   18  C   UNL     1      -6.200   2.572  69.048  1.00  0.00    -0.028 A  
HETATM   19  N   UNL     1      -6.750   2.193  67.878  1.00  0.00    -0.035 NA 
HETATM   20  C   UNL     1      -7.928   2.766  67.554  1.00  0.00    -0.068 A  
HETATM   21  C   UNL     1      -8.570   3.713  68.339  1.00  0.00    -0.120 A  
ENDBRANCH  10  16
ENDBRANCH   2   7
TORSDOF 3
ENDMDL
MODEL      146
REMARK 921   NORMALIZED FREE ENERGY PREDICTED BY IDOCK:   -2.54 KCAL/MOL
REMARK 922        TOTAL FREE ENERGY PREDICTED BY IDOCK:   -3.41 KCAL/MOL
REMARK 923 INTER-LIGAND FREE ENERGY PREDICTED BY IDOCK:   -3.00 KCAL/MOL
REMARK 924 INTRA-LIGAND FREE ENERGY PREDICTED BY IDOCK:   -0.41 KCAL/MOL
REMARK 927      BINDING AFFINITY PREDICTED BY RF-SCORE:    0.00 PKD
ROOT
HETATM    1  C   UNL     1      -9.252  13.220  67.913  1.00  0.00    -0.213 C  
HETATM    2  C   UNL     1      -8.016  12.318  67.955  1.00  0.00    -0.150 C  
ENDROOT
BRANCH   2   3
HETATM    3  C   UNL     1      -6.662  13.091  68.165  1.00  0.00    -0.103 C  
HETATM    4  C   UNL     1      -6.361  13.232  69.675  1.00  0.00    -0.089 C  
HETATM    5  C   UNL     1      -6.769  14.518  67.585  1.00  0.00    -0.194 C  
HETATM    6  C   UNL     1      -5.460  12.397  67.496  1.00  0.00    -0.124 C  
ENDBRANCH   2   3
BRANCH   2   7
HETATM    7  N   UNL     1      -7.952  11.491  66.743  1.00  0.00    -0.165 NA 
HETATM    8  H   UNL     1      -7.609  11.915  65.881  1.00  0.00     0.000 HD 
HETATM    9  C   UNL     1      -8.333  10.169  66.719  1.00  0.00    -0.122 C  
HETATM   10  N   UNL     1      -9.087   9.694  67.668  1.00  0.00    -0.131 NA 
HETATM   11  N   UNL     1      -7.747   9.419  65.737  1.00  0.00    -0.098 NA 
HETATM   12  N   UNL     1      -6.846  10.443  63.532  1.00  0.00    -0.074 NA 
HETATM   13  H   UNL     1      -7.677   8.409  65.862  1.00  0.00     0.000 HD 
HETATM   14  C   UNL     1      -7.228  10.009  64.535  1.00  0.00    -0.139 C  
HETATM   15  H   UNL     1      -9.372  10.338  68.406  1.00  0.00     0.000 HD 
BRANCH  10  16
HETATM   16  C   UNL     1      -9.541   8.361  67.761  1.00  0.00    -0.156 A  
HETATM   17  C   UNL     1      -8.901   7.561  68.703  1.00  0.00    -0.127 A  
HETATM   18  C   UNL     1      -9.324   6.255  68.882  1.00  0.00    -0.128 A  
HETATM   19  N   UNL     1     -10.336   5.698  68.187  1.00  0.00    -0.195 NA 
HETATM   20  C   UNL     1     -10.969   6.496  67.303  1.00  0.00    -0.400 A  
HETATM   21  C   UNL     1     -10.624   7.820  67.071  1.00  0.00    -0.396 A  
ENDBRANCH  10  16
ENDBRANCH   2   7
TORSDOF 3
ENDMDL
MODEL      147
REMARK 921   NORMALIZED FREE ENERGY PREDICTED BY IDOCK:   -2.51 KCAL/MOL
REMARK 922        TOTAL FREE ENERGY PREDICTED BY IDOCK:   -3.38 KCAL/MOL
REMARK 923 INTER-LIGAND FREE ENERGY PREDICTED BY IDOCK:   -3.06 KCAL/MOL
REMARK 924 INTRA-LIGAND FREE ENERGY PREDICTED BY IDOCK:   -0.32 KCAL/MOL
REMARK 927      BINDING AFFINITY PREDICTED BY RF-SCORE:    0.00 PKD
ROOT
HETATM    1  C   UNL     1     -10.139  11.302  68.776  1.00  0.00    -0.204 C  
HETATM    2  C   UNL     1      -9.191  10.250  68.194  1.00  0.00    -0.136 C  
ENDROOT
BRANCH   2   3
HETATM    3  C   UNL     1      -9.031  10.323  66.630  1.00  0.00    -0.156 C  
HETATM    4  C   UNL     1      -9.163   8.909  66.017  1.00  0.00    -0.287 C  
HETATM    5  C   UNL     1      -7.627  10.852  66.263  1.00  0.00    -0.136 C  
HETATM    6  C   UNL     1     -10.073  11.239  65.958  1.00  0.00    -0.283 C  
ENDBRANCH   2   3
BRANCH   2   7
HETATM    7  N   UNL     1      -9.615   8.904  68.603  1.00  0.00    -0.152 NA 
HETATM    8  H   UNL     1     -10.281   8.403  68.016  1.00  0.00     0.000 HD 
HETATM    9  C   UNL     1      -9.154   8.290  69.745  1.00  0.00    -0.147 C  
HETATM   10  N   UNL     1      -8.599   9.001  70.684  1.00  0.00    -0.190 NA 
HETATM   11  N   UNL     1      -9.200   6.924  69.722  1.00  0.00    -0.147 NA 
HETATM   12  N   UNL     1     -10.861   5.596  68.239  1.00  0.00    -0.162 NA 
HETATM   13  H   UNL     1      -8.570   6.398  70.328  1.00  0.00     0.000 HD 
HETATM   14  C   UNL     1     -10.108   6.206  68.872  1.00  0.00    -0.173 C  
HETATM   15  H   UNL     1      -8.530  10.006  70.531  1.00  0.00     0.000 HD 
BRANCH  10  16
HETATM   16  C   UNL     1      -8.084   8.493  71.895  1.00  0.00    -0.130 A  
HETATM   17  C   UNL     1      -8.990   8.384  72.947  1.00  0.00    -0.266 A  
HETATM   18  C   UNL     1      -8.567   7.852  74.153  1.00  0.00    -0.239 A  
HETATM   19  N   UNL     1      -7.309   7.423  74.378  1.00  0.00    -0.115 NA 
HETATM   20  C   UNL     1      -6.452   7.502  73.339  1.00  0.00    -0.066 A  
HETATM   21  C   UNL     1      -6.793   8.006  72.091  1.00  0.00    -0.073 A  
ENDBRANCH  10  16
ENDBRANCH   2   7
TORSDOF 3
ENDMDL
MODEL      148
REMARK 921   NORMALIZED FREE ENERGY PREDICTED BY IDOCK:   -2.49 KCAL/MOL
REMARK 922        TOTAL FREE ENERGY PREDICTED BY IDOCK:   -3.36 KCAL/MOL
REMARK 923 INTER-LIGAND FREE ENERGY PREDICTED BY IDOCK:   -2.86 KCAL/MOL
REMARK 924 INTRA-LIGAND FREE ENERGY PREDICTED BY IDOCK:   -0.49 KCAL/MOL
REMARK 927      BINDING AFFINITY PREDICTED BY RF-SCORE:    0.00 PKD
ROOT
HETATM    1  C   UNL     1      -5.754   6.547  69.015  1.00  0.00    -0.017 C  
HETATM    2  C   UNL     1      -7.095   7.287  69.035  1.00  0.00    -0.080 C  
ENDROOT
BRANCH   2   3
HETATM    3  C   UNL     1      -7.863   7.188  70.404  1.00  0.00    -0.100 C  
HETATM    4  C   UNL     1      -6.859   6.980  71.561  1.00  0.00    -0.064 C  
HETATM    5  C   UNL     1      -8.811   5.968  70.396  1.00  0.00    -0.148 C  
HETATM    6  C   UNL     1      -8.706   8.440  70.716  1.00  0.00    -0.167 C  
ENDBRANCH   2   3
BRANCH   2   7
HETATM    7  N   UNL     1      -7.948   6.820  67.934  1.00  0.00    -0.112 NA 
HETATM    8  H   UNL     1      -8.019   5.816  67.765  1.00  0.00     0.000 HD 
HETATM    9  C   UNL     1      -8.654   7.675  67.120  1.00  0.00    -0.121 C  
HETATM   10  N   UNL     1      -8.329   8.935  67.067  1.00  0.00    -0.106 NA 
HETATM   11  N   UNL     1      -9.759   7.127  66.530  1.00  0.00    -0.331 NA 
HETATM   12  N   UNL     1     -10.003   4.584  66.087  1.00  0.00    -0.227 NA 
HETATM   13  H   UNL     1     -10.515   7.743  66.230  1.00  0.00     0.000 HD 
HETATM   14  C   UNL     1      -9.887   5.713  66.320  1.00  0.00    -0.123 C  
HETATM   15  H   UNL     1      -7.544   9.241  67.642  1.00  0.00     0.000 HD 
BRANCH  10  16
HETATM   16  C   UNL     1      -8.974   9.912  66.279  1.00  0.00    -0.145 A  
HETATM   17  C   UNL     1      -8.535  10.023  64.963  1.00  0.00    -0.167 A  
HETATM   18  C   UNL     1      -9.152  10.930  64.117  1.00  0.00    -0.151 A  
HETATM   19  N   UNL     1     -10.172  11.726  64.495  1.00  0.00    -0.270 NA 
HETATM   20  C   UNL     1     -10.610  11.580  65.763  1.00  0.00    -0.263 A  
HETATM   21  C   UNL     1     -10.062  10.688  66.674  1.00  0.00    -0.270 A  
ENDBRANCH  10  16
ENDBRANCH   2   7
TORSDOF 3
ENDMDL
MODEL      149
REMARK 921   NORMALIZED FREE ENERGY PREDICTED BY IDOCK:   -2.45 KCAL/MOL
REMARK 922        TOTAL FREE ENERGY PREDICTED BY IDOCK:   -3.31 KCAL/MOL
REMARK 923 INTER-LIGAND FREE ENERGY PREDICTED BY IDOCK:   -3.87 KCAL/MOL
REMARK 924 INTRA-LIGAND FREE ENERGY PREDICTED BY IDOCK:    0.57 KCAL/MOL
REMARK 927      BINDING AFFINITY PREDICTED BY RF-SCORE:    0.00 PKD
ROOT
HETATM    1  C   UNL     1      -9.628   7.773  66.797  1.00  0.00    -0.274 C  
HETATM    2  C   UNL     1      -9.196   9.060  66.091  1.00  0.00    -0.216 C  
ENDROOT
BRANCH   2   3
HETATM    3  C   UNL     1      -8.118   8.845  64.965  1.00  0.00    -0.137 C  
HETATM    4  C   UNL     1      -6.697   8.961  65.562  1.00  0.00    -0.072 C  
HETATM    5  C   UNL     1      -8.251   9.941  63.884  1.00  0.00    -0.156 C  
HETATM    6  C   UNL     1      -8.238   7.476  64.267  1.00  0.00     0.002 C  
ENDBRANCH   2   3
BRANCH   2   7
HETATM    7  N   UNL     1      -8.720  10.042  67.074  1.00  0.00    -0.132 NA 
HETATM    8  H   UNL     1      -7.781  10.426  66.966  1.00  0.00     0.000 HD 
HETATM    9  C   UNL     1      -9.485  10.468  68.136  1.00  0.00    -0.151 C  
HETATM   10  N   UNL     1     -10.518   9.769  68.512  1.00  0.00    -0.203 NA 
HETATM   11  N   UNL     1      -9.157  11.702  68.624  1.00  0.00    -0.336 NA 
HETATM   12  N   UNL     1      -6.792  12.734  68.366  1.00  0.00    -0.083 NA 
HETATM   13  H   UNL     1      -9.862  12.237  69.131  1.00  0.00     0.000 HD 
HETATM   14  C   UNL     1      -7.849  12.268  68.446  1.00  0.00    -0.151 C  
HETATM   15  H   UNL     1     -10.719   8.915  67.993  1.00  0.00     0.000 HD 
BRANCH  10  16
HETATM   16  C   UNL     1     -11.381  10.098  69.578  1.00  0.00    -0.206 A  
HETATM   17  C   UNL     1     -11.464   9.165  70.608  1.00  0.00    -0.310 A  
HETATM   18  C   UNL     1     -12.257   9.440  71.709  1.00  0.00    -0.390 A  
HETATM   19  N   UNL     1     -12.968  10.576  71.850  1.00  0.00    -0.466 NA 
HETATM   20  C   UNL     1     -12.849  11.486  70.861  1.00  0.00    -0.201 A  
HETATM   21  C   UNL     1     -12.066  11.302  69.730  1.00  0.00    -0.394 A  
ENDBRANCH  10  16
ENDBRANCH   2   7
TORSDOF 3
ENDMDL
MODEL      150
REMARK 921   NORMALIZED FREE ENERGY PREDICTED BY IDOCK:   -2.44 KCAL/MOL
REMARK 922        TOTAL FREE ENERGY PREDICTED BY IDOCK:   -3.30 KCAL/MOL
REMARK 923 INTER-LIGAND FREE ENERGY PREDICTED BY IDOCK:   -2.95 KCAL/MOL
REMARK 924 INTRA-LIGAND FREE ENERGY PREDICTED BY IDOCK:   -0.34 KCAL/MOL
REMARK 927      BINDING AFFINITY PREDICTED BY RF-SCORE:    0.00 PKD
ROOT
HETATM    1  C   UNL     1      -7.916   6.204  66.788  1.00  0.00    -0.105 C  
HETATM    2  C   UNL     1      -8.620   7.311  67.578  1.00  0.00    -0.122 C  
ENDROOT
BRANCH   2   3
HETATM    3  C   UNL     1      -9.989   6.873  68.218  1.00  0.00    -0.162 C  
HETATM    4  C   UNL     1     -11.045   6.650  67.112  1.00  0.00    -0.427 C  
HETATM    5  C   UNL     1     -10.524   7.989  69.143  1.00  0.00    -0.217 C  
HETATM    6  C   UNL     1      -9.881   5.580  69.050  1.00  0.00    -0.220 C  
ENDBRANCH   2   3
BRANCH   2   7
HETATM    7  N   UNL     1      -8.806   8.497  66.731  1.00  0.00    -0.135 NA 
HETATM    8  H   UNL     1      -9.384   8.412  65.894  1.00  0.00     0.000 HD 
HETATM    9  C   UNL     1      -8.236   9.716  67.015  1.00  0.00    -0.117 C  
HETATM   10  N   UNL     1      -7.235   9.785  67.845  1.00  0.00    -0.084 NA 
HETATM   11  N   UNL     1      -8.889  10.794  66.486  1.00  0.00    -0.150 NA 
HETATM   12  N   UNL     1     -10.382  10.638  64.372  1.00  0.00    -0.344 NA 
HETATM   13  H   UNL     1      -8.772  11.707  66.926  1.00  0.00     0.000 HD 
HETATM   14  C   UNL     1      -9.735  10.682  65.331  1.00  0.00    -0.252 C  
HETATM   15  H   UNL     1      -6.906   8.912  68.256  1.00  0.00     0.000 HD 
BRANCH  10  16
HETATM   16  C   UNL     1      -6.568  10.970  68.221  1.00  0.00    -0.058 A  
HETATM   17  C   UNL     1      -6.606  11.289  69.576  1.00  0.00    -0.129 A  
HETATM   18  C   UNL     1      -5.935  12.413  70.027  1.00  0.00    -0.149 A  
HETATM   19  N   UNL     1      -5.233  13.234  69.221  1.00  0.00    -0.074 NA 
HETATM   20  C   UNL     1      -5.176  12.893  67.917  1.00  0.00    -0.107 A  
HETATM   21  C   UNL     1      -5.803  11.777  67.381  1.00  0.00    -0.104 A  
ENDBRANCH  10  16
ENDBRANCH   2   7
TORSDOF 3
ENDMDL
MODEL      151
REMARK 921   NORMALIZED FREE ENERGY PREDICTED BY IDOCK:   -2.44 KCAL/MOL
REMARK 922        TOTAL FREE ENERGY PREDICTED BY IDOCK:   -3.29 KCAL/MOL
REMARK 923 INTER-LIGAND FREE ENERGY PREDICTED BY IDOCK:   -3.84 KCAL/MOL
REMARK 924 INTRA-LIGAND FREE ENERGY PREDICTED BY IDOCK:    0.55 KCAL/MOL
REMARK 927      BINDING AFFINITY PREDICTED BY RF-SCORE:    0.00 PKD
ROOT
HETATM    1  C   UNL     1      -7.030  16.761  66.319  1.00  0.00    -0.028 C  
HETATM    2  C   UNL     1      -7.601  18.179  66.238  1.00  0.00    -0.264 C  
ENDROOT
BRANCH   2   3
HETATM    3  C   UNL     1      -6.511  19.306  66.119  1.00  0.00    -0.217 C  
HETATM    4  C   UNL     1      -6.368  19.752  64.645  1.00  0.00    -0.261 C  
HETATM    5  C   UNL     1      -5.135  18.766  66.568  1.00  0.00    -0.148 C  
HETATM    6  C   UNL     1      -6.831  20.551  66.970  1.00  0.00    -0.336 C  
ENDBRANCH   2   3
BRANCH   2   7
HETATM    7  N   UNL     1      -8.481  18.437  67.386  1.00  0.00    -0.251 NA 
HETATM    8  H   UNL     1      -8.398  19.329  67.873  1.00  0.00     0.000 HD 
HETATM    9  C   UNL     1      -9.412  17.528  67.833  1.00  0.00    -0.277 C  
HETATM   10  N   UNL     1      -9.317  16.277  67.484  1.00  0.00    -0.217 NA 
HETATM   11  N   UNL     1     -10.466  18.071  68.513  1.00  0.00    -0.337 NA 
HETATM   12  N   UNL     1     -10.318  20.340  69.758  1.00  0.00     0.124 NA 
HETATM   13  H   UNL     1     -11.346  17.557  68.554  1.00  0.00     0.000 HD 
HETATM   14  C   UNL     1     -10.373  19.344  69.172  1.00  0.00     0.017 C  
HETATM   15  H   UNL     1      -8.536  16.018  66.881  1.00  0.00     0.000 HD 
BRANCH  10  16
HETATM   16  C   UNL     1     -10.206  15.252  67.869  1.00  0.00    -0.235 A  
HETATM   17  C   UNL     1     -11.194  14.920  66.946  1.00  0.00    -0.343 A  
HETATM   18  C   UNL     1     -12.075  13.892  67.237  1.00  0.00    -0.368 A  
HETATM   19  N   UNL     1     -12.036  13.178  68.379  1.00  0.00    -0.333 NA 
HETATM   20  C   UNL     1     -11.051  13.488  69.248  1.00  0.00    -0.179 A  
HETATM   21  C   UNL     1     -10.116  14.491  69.033  1.00  0.00    -0.187 A  
ENDBRANCH  10  16
ENDBRANCH   2   7
TORSDOF 3
ENDMDL
MODEL      152
REMARK 921   NORMALIZED FREE ENERGY PREDICTED BY IDOCK:   -2.44 KCAL/MOL
REMARK 922        TOTAL FREE ENERGY PREDICTED BY IDOCK:   -3.29 KCAL/MOL
REMARK 923 INTER-LIGAND FREE ENERGY PREDICTED BY IDOCK:   -2.91 KCAL/MOL
REMARK 924 INTRA-LIGAND FREE ENERGY PREDICTED BY IDOCK:   -0.38 KCAL/MOL
REMARK 927      BINDING AFFINITY PREDICTED BY RF-SCORE:    0.00 PKD
ROOT
HETATM    1  C   UNL     1     -10.037   5.012  65.796  1.00  0.00    -0.150 C  
HETATM    2  C   UNL     1      -9.370   6.024  66.732  1.00  0.00    -0.138 C  
ENDROOT
BRANCH   2   3
HETATM    3  C   UNL     1      -8.472   7.086  65.995  1.00  0.00    -0.141 C  
HETATM    4  C   UNL     1      -9.228   8.429  65.878  1.00  0.00    -0.217 C  
HETATM    5  C   UNL     1      -8.156   6.611  64.560  1.00  0.00    -0.073 C  
HETATM    6  C   UNL     1      -7.133   7.347  66.712  1.00  0.00    -0.079 C  
ENDBRANCH   2   3
BRANCH   2   7
HETATM    7  N   UNL     1      -8.594   5.324  67.764  1.00  0.00    -0.105 NA 
HETATM    8  H   UNL     1      -7.893   4.644  67.469  1.00  0.00     0.000 HD 
HETATM    9  C   UNL     1      -8.771   5.544  69.110  1.00  0.00    -0.103 C  
HETATM   10  N   UNL     1      -9.860   6.117  69.536  1.00  0.00    -0.155 NA 
HETATM   11  N   UNL     1      -7.684   5.256  69.888  1.00  0.00    -0.068 NA 
HETATM   12  N   UNL     1      -5.864   3.549  69.187  1.00  0.00    -0.022 NA 
HETATM   13  H   UNL     1      -7.590   5.714  70.795  1.00  0.00     0.000 HD 
HETATM   14  C   UNL     1      -6.672   4.329  69.469  1.00  0.00    -0.044 C  
HETATM   15  H   UNL     1     -10.554   6.381  68.837  1.00  0.00     0.000 HD 
BRANCH  10  16
HETATM   16  C   UNL     1     -10.159   6.402  70.885  1.00  0.00    -0.187 A  
HETATM   17  C   UNL     1      -9.959   7.718  71.291  1.00  0.00    -0.199 A  
HETATM   18  C   UNL     1     -10.274   8.082  72.589  1.00  0.00    -0.316 A  
HETATM   19  N   UNL     1     -10.772   7.226  73.503  1.00  0.00    -0.374 NA 
HETATM   20  C   UNL     1     -10.994   5.963  73.084  1.00  0.00    -0.253 A  
HETATM   21  C   UNL     1     -10.723   5.514  71.799  1.00  0.00    -0.289 A  
ENDBRANCH  10  16
ENDBRANCH   2   7
TORSDOF 3
ENDMDL
MODEL      153
REMARK 921   NORMALIZED FREE ENERGY PREDICTED BY IDOCK:   -2.42 KCAL/MOL
REMARK 922        TOTAL FREE ENERGY PREDICTED BY IDOCK:   -3.27 KCAL/MOL
REMARK 923 INTER-LIGAND FREE ENERGY PREDICTED BY IDOCK:   -3.02 KCAL/MOL
REMARK 924 INTRA-LIGAND FREE ENERGY PREDICTED BY IDOCK:   -0.26 KCAL/MOL
REMARK 927      BINDING AFFINITY PREDICTED BY RF-SCORE:    0.00 PKD
ROOT
HETATM    1  C   UNL     1      -9.099   7.107  66.204  1.00  0.00    -0.155 C  
HETATM    2  C   UNL     1      -8.224   6.873  67.438  1.00  0.00    -0.119 C  
ENDROOT
BRANCH   2   3
HETATM    3  C   UNL     1      -6.716   6.569  67.109  1.00  0.00    -0.060 C  
HETATM    4  C   UNL     1      -6.065   7.793  66.426  1.00  0.00    -0.045 C  
HETATM    5  C   UNL     1      -6.616   5.386  66.120  1.00  0.00    -0.048 C  
HETATM    6  C   UNL     1      -5.884   6.214  68.357  1.00  0.00    -0.013 C  
ENDBRANCH   2   3
BRANCH   2   7
HETATM    7  N   UNL     1      -8.794   5.802  68.267  1.00  0.00    -0.110 NA 
HETATM    8  H   UNL     1      -8.530   4.837  68.066  1.00  0.00     0.000 HD 
HETATM    9  C   UNL     1      -9.668   6.043  69.302  1.00  0.00    -0.142 C  
HETATM   10  N   UNL     1     -10.294   7.182  69.370  1.00  0.00    -0.193 NA 
HETATM   11  N   UNL     1      -9.691   5.079  70.271  1.00  0.00    -0.196 NA 
HETATM   12  N   UNL     1      -9.019   2.616  69.824  1.00  0.00    -0.092 NA 
HETATM   13  H   UNL     1     -10.005   5.330  71.209  1.00  0.00     0.000 HD 
HETATM   14  C   UNL     1      -9.287   3.726  70.011  1.00  0.00    -0.180 C  
HETATM   15  H   UNL     1     -10.108   7.863  68.634  1.00  0.00     0.000 HD 
BRANCH  10  16
HETATM   16  C   UNL     1     -11.209   7.552  70.378  1.00  0.00    -0.253 A  
HETATM   17  C   UNL     1     -10.815   8.600  71.206  1.00  0.00    -0.327 A  
HETATM   18  C   UNL     1     -11.681   9.048  72.190  1.00  0.00    -0.296 A  
HETATM   19  N   UNL     1     -12.904   8.524  72.401  1.00  0.00    -0.349 NA 
HETATM   20  C   UNL     1     -13.285   7.533  71.568  1.00  0.00    -0.354 A  
HETATM   21  C   UNL     1     -12.491   7.032  70.546  1.00  0.00    -0.085 A  
ENDBRANCH  10  16
ENDBRANCH   2   7
TORSDOF 3
ENDMDL
MODEL      154
REMARK 921   NORMALIZED FREE ENERGY PREDICTED BY IDOCK:   -2.39 KCAL/MOL
REMARK 922        TOTAL FREE ENERGY PREDICTED BY IDOCK:   -3.23 KCAL/MOL
REMARK 923 INTER-LIGAND FREE ENERGY PREDICTED BY IDOCK:   -2.98 KCAL/MOL
REMARK 924 INTRA-LIGAND FREE ENERGY PREDICTED BY IDOCK:   -0.25 KCAL/MOL
REMARK 927      BINDING AFFINITY PREDICTED BY RF-SCORE:    0.00 PKD
ROOT
HETATM    1  C   UNL     1      -9.976   4.689  66.215  1.00  0.00    -0.268 C  
HETATM    2  C   UNL     1      -9.563   5.599  67.375  1.00  0.00    -0.118 C  
ENDROOT
BRANCH   2   3
HETATM    3  C   UNL     1      -9.134   7.047  66.935  1.00  0.00    -0.156 C  
HETATM    4  C   UNL     1      -8.235   7.686  68.018  1.00  0.00    -0.124 C  
HETATM    5  C   UNL     1     -10.380   7.948  66.784  1.00  0.00    -0.357 C  
HETATM    6  C   UNL     1      -8.368   7.070  65.598  1.00  0.00    -0.137 C  
ENDBRANCH   2   3
BRANCH   2   7
HETATM    7  N   UNL     1      -8.496   4.964  68.161  1.00  0.00    -0.102 NA 
HETATM    8  H   UNL     1      -7.620   4.730  67.693  1.00  0.00     0.000 HD 
HETATM    9  C   UNL     1      -8.625   4.673  69.499  1.00  0.00    -0.081 C  
HETATM   10  N   UNL     1      -9.808   4.626  70.041  1.00  0.00    -0.211 NA 
HETATM   11  N   UNL     1      -7.446   4.594  70.187  1.00  0.00    -0.053 NA 
HETATM   12  N   UNL     1      -5.189   4.016  69.051  1.00  0.00    -0.010 NA 
HETATM   13  H   UNL     1      -7.452   4.749  71.195  1.00  0.00     0.000 HD 
HETATM   14  C   UNL     1      -6.201   4.301  69.535  1.00  0.00    -0.027 C  
HETATM   15  H   UNL     1     -10.608   4.809  69.435  1.00  0.00     0.000 HD 
BRANCH  10  16
HETATM   16  C   UNL     1     -10.073   4.343  71.398  1.00  0.00    -0.140 A  
HETATM   17  C   UNL     1     -10.691   5.358  72.124  1.00  0.00    -0.286 A  
HETATM   18  C   UNL     1     -11.023   5.137  73.450  1.00  0.00    -0.320 A  
HETATM   19  N   UNL     1     -10.783   3.978  74.094  1.00  0.00    -0.226 NA 
HETATM   20  C   UNL     1     -10.217   2.992  73.367  1.00  0.00    -0.126 A  
HETATM   21  C   UNL     1      -9.865   3.120  72.031  1.00  0.00    -0.241 A  
ENDBRANCH  10  16
ENDBRANCH   2   7
TORSDOF 3
ENDMDL
MODEL      155
REMARK 921   NORMALIZED FREE ENERGY PREDICTED BY IDOCK:   -2.35 KCAL/MOL
REMARK 922        TOTAL FREE ENERGY PREDICTED BY IDOCK:   -3.19 KCAL/MOL
REMARK 923 INTER-LIGAND FREE ENERGY PREDICTED BY IDOCK:   -2.79 KCAL/MOL
REMARK 924 INTRA-LIGAND FREE ENERGY PREDICTED BY IDOCK:   -0.40 KCAL/MOL
REMARK 927      BINDING AFFINITY PREDICTED BY RF-SCORE:    0.00 PKD
ROOT
HETATM    1  C   UNL     1     -12.035  10.862  70.485  1.00  0.00    -0.466 C  
HETATM    2  C   UNL     1     -11.850   9.357  70.698  1.00  0.00    -0.207 C  
ENDROOT
BRANCH   2   3
HETATM    3  C   UNL     1     -13.041   8.664  71.457  1.00  0.00    -0.339 C  
HETATM    4  C   UNL     1     -13.125   9.194  72.907  1.00  0.00     0.060 C  
HETATM    5  C   UNL     1     -12.804   7.140  71.540  1.00  0.00    -0.434 C  
HETATM    6  C   UNL     1     -14.406   8.895  70.780  1.00  0.00     0.352 C  
ENDBRANCH   2   3
BRANCH   2   7
HETATM    7  N   UNL     1     -10.581   9.096  71.389  1.00  0.00    -0.317 NA 
HETATM    8  H   UNL     1     -10.486   9.388  72.361  1.00  0.00     0.000 HD 
HETATM    9  C   UNL     1      -9.513   8.475  70.782  1.00  0.00    -0.178 C  
HETATM   10  N   UNL     1      -9.456   8.406  69.483  1.00  0.00    -0.165 NA 
HETATM   11  N   UNL     1      -8.652   7.845  71.637  1.00  0.00    -0.114 NA 
HETATM   12  N   UNL     1      -8.379   8.534  74.121  1.00  0.00    -0.282 NA 
HETATM   13  H   UNL     1      -8.075   7.082  71.283  1.00  0.00     0.000 HD 
HETATM   14  C   UNL     1      -8.536   8.222  73.017  1.00  0.00    -0.206 C  
HETATM   15  H   UNL     1     -10.222   8.828  68.958  1.00  0.00     0.000 HD 
BRANCH  10  16
HETATM   16  C   UNL     1      -8.422   7.795  68.743  1.00  0.00    -0.129 A  
HETATM   17  C   UNL     1      -7.336   8.607  68.425  1.00  0.00    -0.086 A  
HETATM   18  C   UNL     1      -6.263   8.064  67.739  1.00  0.00    -0.051 A  
HETATM   19  N   UNL     1      -6.202   6.774  67.352  1.00  0.00    -0.038 NA 
HETATM   20  C   UNL     1      -7.245   5.993  67.698  1.00  0.00    -0.076 A  
HETATM   21  C   UNL     1      -8.354   6.447  68.398  1.00  0.00    -0.116 A  
ENDBRANCH  10  16
ENDBRANCH   2   7
TORSDOF 3
ENDMDL
MODEL      156
REMARK 921   NORMALIZED FREE ENERGY PREDICTED BY IDOCK:   -2.34 KCAL/MOL
REMARK 922        TOTAL FREE ENERGY PREDICTED BY IDOCK:   -3.18 KCAL/MOL
REMARK 923 INTER-LIGAND FREE ENERGY PREDICTED BY IDOCK:   -2.69 KCAL/MOL
REMARK 924 INTRA-LIGAND FREE ENERGY PREDICTED BY IDOCK:   -0.49 KCAL/MOL
REMARK 927      BINDING AFFINITY PREDICTED BY RF-SCORE:    0.00 PKD
ROOT
HETATM    1  C   UNL     1     -10.403   5.014  66.598  1.00  0.00    -0.312 C  
HETATM    2  C   UNL     1      -9.164   5.089  67.495  1.00  0.00    -0.120 C  
ENDROOT
BRANCH   2   3
HETATM    3  C   UNL     1      -7.854   4.526  66.831  1.00  0.00    -0.098 C  
HETATM    4  C   UNL     1      -6.631   5.353  67.287  1.00  0.00    -0.053 C  
HETATM    5  C   UNL     1      -7.942   4.647  65.294  1.00  0.00    -0.095 C  
HETATM    6  C   UNL     1      -7.590   3.046  67.174  1.00  0.00    -0.074 C  
ENDBRANCH   2   3
BRANCH   2   7
HETATM    7  N   UNL     1      -9.424   4.412  68.773  1.00  0.00    -0.152 NA 
HETATM    8  H   UNL     1      -9.804   3.465  68.754  1.00  0.00     0.000 HD 
HETATM    9  C   UNL     1      -9.178   4.997  69.993  1.00  0.00    -0.131 C  
HETATM   10  N   UNL     1      -9.035   6.289  70.075  1.00  0.00    -0.147 NA 
HETATM   11  N   UNL     1      -8.960   4.120  71.019  1.00  0.00    -0.104 NA 
HETATM   12  N   UNL     1      -9.887   1.699  71.022  1.00  0.00    -0.097 NA 
HETATM   13  H   UNL     1      -8.427   4.432  71.831  1.00  0.00     0.000 HD 
HETATM   14  C   UNL     1      -9.458   2.774  70.989  1.00  0.00    -0.156 C  
HETATM   15  H   UNL     1      -9.117   6.825  69.211  1.00  0.00     0.000 HD 
BRANCH  10  16
HETATM   16  C   UNL     1      -8.776   7.008  71.261  1.00  0.00    -0.130 A  
HETATM   17  C   UNL     1      -9.884   7.303  72.051  1.00  0.00    -0.183 A  
HETATM   18  C   UNL     1      -9.702   7.966  73.253  1.00  0.00    -0.285 A  
HETATM   19  N   UNL     1      -8.496   8.353  73.715  1.00  0.00    -0.339 NA 
HETATM   20  C   UNL     1      -7.429   8.029  72.955  1.00  0.00    -0.127 A  
HETATM   21  C   UNL     1      -7.516   7.351  71.747  1.00  0.00    -0.083 A  
ENDBRANCH  10  16
ENDBRANCH   2   7
TORSDOF 3
ENDMDL
MODEL      157
REMARK 921   NORMALIZED FREE ENERGY PREDICTED BY IDOCK:   -2.30 KCAL/MOL
REMARK 922        TOTAL FREE ENERGY PREDICTED BY IDOCK:   -3.14 KCAL/MOL
REMARK 923 INTER-LIGAND FREE ENERGY PREDICTED BY IDOCK:   -2.60 KCAL/MOL
REMARK 924 INTRA-LIGAND FREE ENERGY PREDICTED BY IDOCK:   -0.53 KCAL/MOL
REMARK 927      BINDING AFFINITY PREDICTED BY RF-SCORE:    0.00 PKD
ROOT
HETATM    1  C   UNL     1      -8.481   8.633  64.342  1.00  0.00    -0.113 C  
HETATM    2  C   UNL     1      -7.983   8.070  65.676  1.00  0.00    -0.114 C  
ENDROOT
BRANCH   2   3
HETATM    3  C   UNL     1      -6.416   8.010  65.803  1.00  0.00    -0.042 C  
HETATM    4  C   UNL     1      -5.766   9.019  64.829  1.00  0.00    -0.063 C  
HETATM    5  C   UNL     1      -5.905   6.604  65.416  1.00  0.00    -0.030 C  
HETATM    6  C   UNL     1      -5.912   8.320  67.226  1.00  0.00    -0.050 C  
ENDBRANCH   2   3
BRANCH   2   7
HETATM    7  N   UNL     1      -8.568   6.744  65.916  1.00  0.00    -0.147 NA 
HETATM    8  H   UNL     1      -8.568   6.066  65.154  1.00  0.00     0.000 HD 
HETATM    9  C   UNL     1      -9.118   6.377  67.123  1.00  0.00    -0.120 C  
HETATM   10  N   UNL     1      -9.455   7.291  67.987  1.00  0.00    -0.136 NA 
HETATM   11  N   UNL     1      -9.128   5.031  67.364  1.00  0.00    -0.113 NA 
HETATM   12  N   UNL     1      -9.114   3.261  65.470  1.00  0.00    -0.146 NA 
HETATM   13  H   UNL     1      -9.164   4.703  68.329  1.00  0.00     0.000 HD 
HETATM   14  C   UNL     1      -9.091   4.066  66.301  1.00  0.00    -0.139 C  
HETATM   15  H   UNL     1      -9.297   8.263  67.725  1.00  0.00     0.000 HD 
BRANCH  10  16
HETATM   16  C   UNL     1     -10.021   7.045  69.255  1.00  0.00    -0.162 A  
HETATM   17  C   UNL     1      -9.164   7.183  70.344  1.00  0.00    -0.156 A  
HETATM   18  C   UNL     1      -9.660   7.002  71.624  1.00  0.00    -0.156 A  
HETATM   19  N   UNL     1     -10.946   6.695  71.888  1.00  0.00    -0.236 NA 
HETATM   20  C   UNL     1     -11.772   6.601  70.825  1.00  0.00    -0.388 A  
HETATM   21  C   UNL     1     -11.365   6.782  69.510  1.00  0.00    -0.292 A  
ENDBRANCH  10  16
ENDBRANCH   2   7
TORSDOF 3
ENDMDL
MODEL      158
REMARK 921   NORMALIZED FREE ENERGY PREDICTED BY IDOCK:   -2.25 KCAL/MOL
REMARK 922        TOTAL FREE ENERGY PREDICTED BY IDOCK:   -3.07 KCAL/MOL
REMARK 923 INTER-LIGAND FREE ENERGY PREDICTED BY IDOCK:   -2.70 KCAL/MOL
REMARK 924 INTRA-LIGAND FREE ENERGY PREDICTED BY IDOCK:   -0.37 KCAL/MOL
REMARK 927      BINDING AFFINITY PREDICTED BY RF-SCORE:    0.00 PKD
ROOT
HETATM    1  C   UNL     1      -7.800   4.155  70.369  1.00  0.00    -0.051 C  
HETATM    2  C   UNL     1      -8.507   5.470  70.027  1.00  0.00    -0.120 C  
ENDROOT
BRANCH   2   3
HETATM    3  C   UNL     1      -9.792   5.752  70.889  1.00  0.00    -0.229 C  
HETATM    4  C   UNL     1      -9.569   6.992  71.784  1.00  0.00    -0.161 C  
HETATM    5  C   UNL     1     -10.078   4.557  71.826  1.00  0.00    -0.254 C  
HETATM    6  C   UNL     1     -11.052   5.995  70.034  1.00  0.00    -0.451 C  
ENDBRANCH   2   3
BRANCH   2   7
HETATM    7  N   UNL     1      -8.830   5.512  68.595  1.00  0.00    -0.108 NA 
HETATM    8  H   UNL     1      -9.279   4.699  68.172  1.00  0.00     0.000 HD 
HETATM    9  C   UNL     1      -8.555   6.599  67.798  1.00  0.00    -0.121 C  
HETATM   10  N   UNL     1      -7.691   7.490  68.193  1.00  0.00    -0.117 NA 
HETATM   11  N   UNL     1      -9.347   6.717  66.690  1.00  0.00    -0.159 NA 
HETATM   12  N   UNL     1     -10.523   4.690  65.581  1.00  0.00    -0.267 NA 
HETATM   13  H   UNL     1      -9.468   7.636  66.264  1.00  0.00     0.000 HD 
HETATM   14  C   UNL     1     -10.013   5.586  66.107  1.00  0.00    -0.096 C  
HETATM   15  H   UNL     1      -7.242   7.339  69.096  1.00  0.00     0.000 HD 
BRANCH  10  16
HETATM   16  C   UNL     1      -7.325   8.647  67.474  1.00  0.00    -0.089 A  
HETATM   17  C   UNL     1      -6.279   8.498  66.567  1.00  0.00    -0.057 A  
HETATM   18  C   UNL     1      -5.894   9.580  65.793  1.00  0.00    -0.054 A  
HETATM   19  N   UNL     1      -6.481  10.792  65.862  1.00  0.00    -0.120 NA 
HETATM   20  C   UNL     1      -7.516  10.910  66.719  1.00  0.00    -0.134 A  
HETATM   21  C   UNL     1      -7.979   9.877  67.521  1.00  0.00    -0.106 A  
ENDBRANCH  10  16
ENDBRANCH   2   7
TORSDOF 3
ENDMDL
MODEL      159
REMARK 921   NORMALIZED FREE ENERGY PREDICTED BY IDOCK:   -2.20 KCAL/MOL
REMARK 922        TOTAL FREE ENERGY PREDICTED BY IDOCK:   -3.01 KCAL/MOL
REMARK 923 INTER-LIGAND FREE ENERGY PREDICTED BY IDOCK:   -3.87 KCAL/MOL
REMARK 924 INTRA-LIGAND FREE ENERGY PREDICTED BY IDOCK:    0.86 KCAL/MOL
REMARK 927      BINDING AFFINITY PREDICTED BY RF-SCORE:    0.00 PKD
ROOT
HETATM    1  C   UNL     1      -8.189   7.710  65.674  1.00  0.00    -0.136 C  
HETATM    2  C   UNL     1      -9.265   8.592  65.035  1.00  0.00     0.201 C  
ENDROOT
BRANCH   2   3
HETATM    3  C   UNL     1      -8.757   9.442  63.812  1.00  0.00    -0.223 C  
HETATM    4  C   UNL     1      -9.887  10.367  63.305  1.00  0.00    -0.231 C  
HETATM    5  C   UNL     1      -8.368   8.511  62.643  1.00  0.00    -0.167 C  
HETATM    6  C   UNL     1      -7.533  10.315  64.149  1.00  0.00    -0.069 C  
ENDBRANCH   2   3
BRANCH   2   7
HETATM    7  N   UNL     1      -9.871   9.465  66.050  1.00  0.00    -0.288 NA 
HETATM    8  H   UNL     1      -9.988  10.455  65.833  1.00  0.00     0.000 HD 
HETATM    9  C   UNL     1     -10.287   9.006  67.278  1.00  0.00    -0.273 C  
HETATM   10  N   UNL     1      -9.849   7.865  67.727  1.00  0.00    -0.155 NA 
HETATM   11  N   UNL     1     -11.264   9.756  67.871  1.00  0.00    -0.505 NA 
HETATM   12  N   UNL     1     -11.620  12.271  67.352  1.00  0.00    -0.385 NA 
HETATM   13  H   UNL     1     -11.871   9.317  68.564  1.00  0.00     0.000 HD 
HETATM   14  C   UNL     1     -11.464  11.141  67.549  1.00  0.00    -0.216 C  
HETATM   15  H   UNL     1      -9.199   7.349  67.135  1.00  0.00     0.000 HD 
BRANCH  10  16
HETATM   16  C   UNL     1     -10.201   7.284  68.963  1.00  0.00    -0.197 A  
HETATM   17  C   UNL     1     -10.294   5.895  68.982  1.00  0.00    -0.297 A  
HETATM   18  C   UNL     1     -10.591   5.252  70.172  1.00  0.00    -0.227 A  
HETATM   19  N   UNL     1     -10.800   5.899  71.336  1.00  0.00    -0.266 NA 
HETATM   20  C   UNL     1     -10.672   7.241  71.309  1.00  0.00    -0.225 A  
HETATM   21  C   UNL     1     -10.361   7.967  70.167  1.00  0.00    -0.215 A  
ENDBRANCH  10  16
ENDBRANCH   2   7
TORSDOF 3
ENDMDL
MODEL      160
REMARK 921   NORMALIZED FREE ENERGY PREDICTED BY IDOCK:   -2.12 KCAL/MOL
REMARK 922        TOTAL FREE ENERGY PREDICTED BY IDOCK:   -2.93 KCAL/MOL
REMARK 923 INTER-LIGAND FREE ENERGY PREDICTED BY IDOCK:   -2.86 KCAL/MOL
REMARK 924 INTRA-LIGAND FREE ENERGY PREDICTED BY IDOCK:   -0.07 KCAL/MOL
REMARK 927      BINDING AFFINITY PREDICTED BY RF-SCORE:    0.00 PKD
ROOT
HETATM    1  C   UNL     1      -8.906   4.153  69.441  1.00  0.00    -0.142 C  
HETATM    2  C   UNL     1      -8.988   5.371  68.517  1.00  0.00    -0.107 C  
ENDROOT
BRANCH   2   3
HETATM    3  C   UNL     1     -10.167   6.356  68.856  1.00  0.00    -0.215 C  
HETATM    4  C   UNL     1     -11.145   6.442  67.662  1.00  0.00    -0.388 C  
HETATM    5  C   UNL     1      -9.617   7.779  69.100  1.00  0.00    -0.155 C  
HETATM    6  C   UNL     1     -10.966   5.937  70.106  1.00  0.00    -0.412 C  
ENDBRANCH   2   3
BRANCH   2   7
HETATM    7  N   UNL     1      -9.068   4.939  67.116  1.00  0.00    -0.117 NA 
HETATM    8  H   UNL     1      -9.523   4.050  66.905  1.00  0.00     0.000 HD 
HETATM    9  C   UNL     1      -8.557   5.678  66.075  1.00  0.00    -0.137 C  
HETATM   10  N   UNL     1      -7.682   6.613  66.312  1.00  0.00    -0.096 NA 
HETATM   11  N   UNL     1      -9.142   5.446  64.861  1.00  0.00    -0.356 NA 
HETATM   12  N   UNL     1     -10.324   3.215  64.273  1.00  0.00    -0.113 NA 
HETATM   13  H   UNL     1      -9.098   6.170  64.144  1.00  0.00     0.000 HD 
HETATM   14  C   UNL     1      -9.818   4.214  64.565  1.00  0.00    -0.162 C  
HETATM   15  H   UNL     1      -7.404   6.758  67.282  1.00  0.00     0.000 HD 
BRANCH  10  16
HETATM   16  C   UNL     1      -7.087   7.441  65.337  1.00  0.00    -0.061 A  
HETATM   17  C   UNL     1      -7.870   8.492  64.868  1.00  0.00    -0.119 A  
HETATM   18  C   UNL     1      -7.336   9.374  63.942  1.00  0.00    -0.105 A  
HETATM   19  N   UNL     1      -6.082   9.276  63.458  1.00  0.00    -0.088 NA 
HETATM   20  C   UNL     1      -5.325   8.274  63.948  1.00  0.00    -0.048 A  
HETATM   21  C   UNL     1      -5.770   7.355  64.888  1.00  0.00    -0.037 A  
ENDBRANCH  10  16
ENDBRANCH   2   7
TORSDOF 3
ENDMDL
MODEL      161
REMARK 921   NORMALIZED FREE ENERGY PREDICTED BY IDOCK:   -1.71 KCAL/MOL
REMARK 922        TOTAL FREE ENERGY PREDICTED BY IDOCK:   -2.44 KCAL/MOL
REMARK 923 INTER-LIGAND FREE ENERGY PREDICTED BY IDOCK:   -3.18 KCAL/MOL
REMARK 924 INTRA-LIGAND FREE ENERGY PREDICTED BY IDOCK:    0.74 KCAL/MOL
REMARK 927      BINDING AFFINITY PREDICTED BY RF-SCORE:    0.00 PKD
ROOT
HETATM    1  C   UNL     1      -6.953  18.063  64.996  1.00  0.00     1.168 C  
HETATM    2  C   UNL     1      -7.352  19.417  65.588  1.00  0.00    -0.190 C  
ENDROOT
BRANCH   2   3
HETATM    3  C   UNL     1      -6.141  20.267  66.122  1.00  0.00    -0.206 C  
HETATM    4  C   UNL     1      -5.166  19.363  66.911  1.00  0.00    -0.161 C  
HETATM    5  C   UNL     1      -6.643  21.357  67.094  1.00  0.00    -0.327 C  
HETATM    6  C   UNL     1      -5.349  20.964  64.998  1.00  0.00    -0.242 C  
ENDBRANCH   2   3
BRANCH   2   7
HETATM    7  N   UNL     1      -8.354  19.231  66.646  1.00  0.00    -0.291 NA 
HETATM    8  H   UNL     1      -8.332  19.855  67.453  1.00  0.00     0.000 HD 
HETATM    9  C   UNL     1      -9.321  18.254  66.597  1.00  0.00    -0.303 C  
HETATM   10  N   UNL     1      -9.178  17.240  65.792  1.00  0.00    -0.508 NA 
HETATM   11  N   UNL     1     -10.447  18.521  67.323  1.00  0.00    -0.404 NA 
HETATM   12  N   UNL     1     -10.455  20.107  69.375  1.00  0.00     0.019 NA 
HETATM   13  H   UNL     1     -11.322  18.065  67.065  1.00  0.00     0.000 HD 
HETATM   14  C   UNL     1     -10.437  19.426  68.439  1.00  0.00    -0.251 C  
HETATM   15  H   UNL     1      -8.333  17.212  65.221  1.00  0.00     0.000 HD 
BRANCH  10  16
HETATM   16  C   UNL     1     -10.095  16.179  65.645  1.00  0.00    -0.337 A  
HETATM   17  C   UNL     1     -10.907  16.225  64.515  1.00  0.00     0.058 A  
HETATM   18  C   UNL     1     -11.800  15.193  64.280  1.00  0.00    -0.251 A  
HETATM   19  N   UNL     1     -11.936  14.126  65.093  1.00  0.00    -0.370 NA 
HETATM   20  C   UNL     1     -11.118  14.079  66.165  1.00  0.00    -0.302 A  
HETATM   21  C   UNL     1     -10.183  15.058  66.469  1.00  0.00    -0.281 A  
ENDBRANCH  10  16
ENDBRANCH   2   7
TORSDOF 3
ENDMDL
MODEL      162
REMARK 921   NORMALIZED FREE ENERGY PREDICTED BY IDOCK:   -1.56 KCAL/MOL
REMARK 922        TOTAL FREE ENERGY PREDICTED BY IDOCK:   -2.27 KCAL/MOL
REMARK 923 INTER-LIGAND FREE ENERGY PREDICTED BY IDOCK:   -3.18 KCAL/MOL
REMARK 924 INTRA-LIGAND FREE ENERGY PREDICTED BY IDOCK:    0.92 KCAL/MOL
REMARK 927      BINDING AFFINITY PREDICTED BY RF-SCORE:    0.00 PKD
ROOT
HETATM    1  C   UNL     1      -9.552   7.922  68.016  1.00  0.00    -0.168 C  
HETATM    2  C   UNL     1     -10.446   7.943  69.259  1.00  0.00    -0.216 C  
ENDROOT
BRANCH   2   3
HETATM    3  C   UNL     1     -10.334   9.262  70.109  1.00  0.00    -0.258 C  
HETATM    4  C   UNL     1     -11.503  10.214  69.764  1.00  0.00    -0.288 C  
HETATM    5  C   UNL     1      -9.023  10.004  69.769  1.00  0.00    -0.209 C  
HETATM    6  C   UNL     1     -10.353   9.006  71.629  1.00  0.00    -0.420 C  
ENDBRANCH   2   3
BRANCH   2   7
HETATM    7  N   UNL     1     -10.173   6.768  70.098  1.00  0.00    -0.192 NA 
HETATM    8  H   UNL     1     -10.335   6.838  71.103  1.00  0.00     0.000 HD 
HETATM    9  C   UNL     1      -9.708   5.577  69.589  1.00  0.00    -0.172 C  
HETATM   10  N   UNL     1      -9.163   5.546  68.407  1.00  0.00    -0.111 NA 
HETATM   11  N   UNL     1      -9.999   4.476  70.344  1.00  0.00    -0.228 NA 
HETATM   12  N   UNL     1     -10.434   4.594  72.897  1.00  0.00    -0.185 NA 
HETATM   13  H   UNL     1     -10.028   3.561  69.893  1.00  0.00     0.000 HD 
HETATM   14  C   UNL     1     -10.265   4.566  71.752  1.00  0.00    -0.156 C  
HETATM   15  H   UNL     1      -9.100   6.427  67.897  1.00  0.00     0.000 HD 
BRANCH  10  16
HETATM   16  C   UNL     1      -8.654   4.394  67.772  1.00  0.00    -0.103 A  
HETATM   17  C   UNL     1      -9.563   3.661  67.014  1.00  0.00    -0.187 A  
HETATM   18  C   UNL     1      -9.125   2.543  66.325  1.00  0.00    -0.096 A  
HETATM   19  N   UNL     1      -7.849   2.109  66.344  1.00  0.00    -0.074 NA 
HETATM   20  C   UNL     1      -6.973   2.849  67.055  1.00  0.00    -0.049 A  
HETATM   21  C   UNL     1      -7.320   3.992  67.761  1.00  0.00    -0.067 A  
ENDBRANCH  10  16
ENDBRANCH   2   7
TORSDOF 3
ENDMDL
MODEL      163
REMARK 921   NORMALIZED FREE ENERGY PREDICTED BY IDOCK:   -1.50 KCAL/MOL
REMARK 922        TOTAL FREE ENERGY PREDICTED BY IDOCK:   -2.19 KCAL/MOL
REMARK 923 INTER-LIGAND FREE ENERGY PREDICTED BY IDOCK:   -1.67 KCAL/MOL
REMARK 924 INTRA-LIGAND FREE ENERGY PREDICTED BY IDOCK:   -0.52 KCAL/MOL
REMARK 927      BINDING AFFINITY PREDICTED BY RF-SCORE:    0.00 PKD
ROOT
HETATM    1  C   UNL     1      -8.936   8.683  73.029  1.00  0.00     0.043 C  
HETATM    2  C   UNL     1      -8.869   7.603  71.945  1.00  0.00    -0.116 C  
ENDROOT
BRANCH   2   3
HETATM    3  C   UNL     1      -9.537   8.017  70.583  1.00  0.00    -0.172 C  
HETATM    4  C   UNL     1      -9.542   9.556  70.441  1.00  0.00    -0.326 C  
HETATM    5  C   UNL     1     -11.009   7.549  70.548  1.00  0.00    -0.266 C  
HETATM    6  C   UNL     1      -8.822   7.422  69.353  1.00  0.00    -0.137 C  
ENDBRANCH   2   3
BRANCH   2   7
HETATM    7  N   UNL     1      -9.452   6.350  72.443  1.00  0.00    -0.144 NA 
HETATM    8  H   UNL     1     -10.309   6.396  72.994  1.00  0.00     0.000 HD 
HETATM    9  C   UNL     1      -8.894   5.116  72.197  1.00  0.00    -0.129 C  
HETATM   10  N   UNL     1      -7.652   5.031  71.816  1.00  0.00    -0.101 NA 
HETATM   11  N   UNL     1      -9.771   4.068  72.245  1.00  0.00    -0.148 NA 
HETATM   12  N   UNL     1     -11.969   4.134  73.618  1.00  0.00     0.089 NA 
HETATM   13  H   UNL     1      -9.546   3.213  71.736  1.00  0.00     0.000 HD 
HETATM   14  C   UNL     1     -10.998   4.135  72.988  1.00  0.00    -0.141 C  
HETATM   15  H   UNL     1      -7.132   5.902  71.717  1.00  0.00     0.000 HD 
BRANCH  10  16
HETATM   16  C   UNL     1      -6.967   3.831  71.530  1.00  0.00    -0.031 A  
HETATM   17  C   UNL     1      -6.770   3.546  70.182  1.00  0.00    -0.033 A  
HETATM   18  C   UNL     1      -6.065   2.409  69.826  1.00  0.00    -0.024 A  
HETATM   19  N   UNL     1      -5.548   1.543  70.719  1.00  0.00    -0.011 NA 
HETATM   20  C   UNL     1      -5.716   1.851  72.022  1.00  0.00    -0.008 A  
HETATM   21  C   UNL     1      -6.393   2.977  72.470  1.00  0.00    -0.014 A  
ENDBRANCH  10  16
ENDBRANCH   2   7
TORSDOF 3
ENDMDL
MODEL      164
REMARK 921   NORMALIZED FREE ENERGY PREDICTED BY IDOCK:    1.08 KCAL/MOL
REMARK 922        TOTAL FREE ENERGY PREDICTED BY IDOCK:    0.84 KCAL/MOL
REMARK 923 INTER-LIGAND FREE ENERGY PREDICTED BY IDOCK:   -0.32 KCAL/MOL
REMARK 924 INTRA-LIGAND FREE ENERGY PREDICTED BY IDOCK:    1.16 KCAL/MOL
REMARK 927      BINDING AFFINITY PREDICTED BY RF-SCORE:    0.00 PKD
ROOT
HETATM    1  C   UNL     1      -8.952  13.289  69.983  1.00  0.00     3.177 C  
HETATM    2  C   UNL     1      -9.363  12.281  68.906  1.00  0.00     0.243 C  
ENDROOT
BRANCH   2   3
HETATM    3  C   UNL     1      -8.180  11.392  68.372  1.00  0.00    -0.151 C  
HETATM    4  C   UNL     1      -8.211  11.339  66.828  1.00  0.00    -0.158 C  
HETATM    5  C   UNL     1      -8.333   9.942  68.883  1.00  0.00    -0.124 C  
HETATM    6  C   UNL     1      -6.793  11.903  68.809  1.00  0.00    -0.093 C  
ENDBRANCH   2   3
BRANCH   2   7
HETATM    7  N   UNL     1     -10.026  12.973  67.792  1.00  0.00    -0.221 NA 
HETATM    8  H   UNL     1     -10.565  12.420  67.126  1.00  0.00     0.000 HD 
HETATM    9  C   UNL     1      -9.953  14.335  67.609  1.00  0.00    -0.225 C  
HETATM   10  N   UNL     1      -9.018  15.020  68.203  1.00  0.00    -0.169 NA 
HETATM   11  N   UNL     1     -10.992  14.877  66.905  1.00  0.00    -0.321 NA 
HETATM   12  N   UNL     1     -12.404  13.517  65.209  1.00  0.00    -0.439 NA 
HETATM   13  H   UNL     1     -11.213  15.865  67.033  1.00  0.00     0.000 HD 
HETATM   14  C   UNL     1     -11.781  14.100  65.991  1.00  0.00    -0.382 C  
HETATM   15  H   UNL     1      -8.363  14.506  68.790  1.00  0.00     0.000 HD 
BRANCH  10  16
HETATM   16  C   UNL     1      -8.839  16.416  68.100  1.00  0.00    -0.192 A  
HETATM   17  C   UNL     1      -7.530  16.851  67.909  1.00  0.00    -0.178 A  
HETATM   18  C   UNL     1      -7.283  18.205  67.754  1.00  0.00    -0.213 A  
HETATM   19  N   UNL     1      -8.247  19.146  67.777  1.00  0.00    -0.280 NA 
HETATM   20  C   UNL     1      -9.513  18.705  67.927  1.00  0.00    -0.303 A  
HETATM   21  C   UNL     1      -9.856  17.368  68.073  1.00  0.00    -0.288 A  
ENDBRANCH  10  16
ENDBRANCH   2   7
TORSDOF 3
ENDMDL
