MODEL        1
REMARK 921   NORMALIZED FREE ENERGY PREDICTED BY IDOCK:   -5.92 KCAL/MOL
REMARK 922        TOTAL FREE ENERGY PREDICTED BY IDOCK:   -8.38 KCAL/MOL
REMARK 923 INTER-LIGAND FREE ENERGY PREDICTED BY IDOCK:   -8.00 KCAL/MOL
REMARK 924 INTRA-LIGAND FREE ENERGY PREDICTED BY IDOCK:   -0.38 KCAL/MOL
REMARK 927      BINDING AFFINITY PREDICTED BY RF-SCORE:    0.00 PKD
ROOT
HETATM    1  C   UNL     1      -9.979  10.894  64.439  1.00  0.00    -0.381 C  
HETATM    2  C   UNL     1     -10.530  12.069  63.628  1.00  0.00    -0.454 C  
HETATM    3  C   UNL     1     -12.060  12.006  63.613  1.00  0.00    -0.627 C  
ENDROOT
BRANCH   2   4
HETATM    4  N   UNL     1     -10.037  13.312  64.229  1.00  0.00    -0.699 NA 
HETATM    5  H   UNL     1      -9.571  13.890  63.529  1.00  0.00     0.000 HD 
BRANCH   4   6
HETATM    6  C   UNL     1     -11.074  14.076  64.926  1.00  0.00    -0.375 C  
BRANCH   6   7
HETATM    7  C   UNL     1     -10.646  14.408  66.370  1.00  0.00    -0.297 C  
HETATM    8  H   UNL     1     -10.211  16.034  67.376  1.00  0.00     0.000 HD 
HETATM    9  O   UNL     1     -10.475  15.829  66.487  1.00  0.00    -0.293 OA 
BRANCH   7  10
HETATM   10  C   UNL     1     -11.712  13.867  67.340  1.00  0.00    -0.389 C  
BRANCH  10  11
HETATM   11  O   UNL     1     -11.365  14.186  68.688  1.00  0.00    -0.247 OA 
BRANCH  11  12
HETATM   12  C   UNL     1     -11.899  13.365  69.653  1.00  0.00    -0.331 A  
HETATM   13  C   UNL     1     -11.745  11.968  69.680  1.00  0.00    -0.405 A  
HETATM   14  C   UNL     1     -12.287  11.196  70.709  1.00  0.00    -0.504 A  
HETATM   15  C   UNL     1     -12.997  11.787  71.755  1.00  0.00    -0.466 A  
HETATM   16  C   UNL     1     -13.139  13.175  71.731  1.00  0.00    -0.383 A  
HETATM   17  C   UNL     1     -12.610  13.973  70.714  1.00  0.00    -0.431 A  
HETATM   18  C   UNL     1     -12.955  15.321  71.030  1.00  0.00    -0.526 A  
HETATM   19  C   UNL     1     -13.664  15.314  72.209  1.00  0.00    -0.510 A  
HETATM   20  N   UNL     1     -13.769  14.014  72.624  1.00  0.00    -0.683 NA 
HETATM   21  H   UNL     1     -14.246  13.711  73.473  1.00  0.00     0.000 HD 
ENDBRANCH  11  12
ENDBRANCH  10  11
ENDBRANCH   7  10
ENDBRANCH   6   7
ENDBRANCH   4   6
ENDBRANCH   2   4
TORSDOF 6
ENDMDL
MODEL        2
REMARK 921   NORMALIZED FREE ENERGY PREDICTED BY IDOCK:   -5.89 KCAL/MOL
REMARK 922        TOTAL FREE ENERGY PREDICTED BY IDOCK:   -8.33 KCAL/MOL
REMARK 923 INTER-LIGAND FREE ENERGY PREDICTED BY IDOCK:   -7.91 KCAL/MOL
REMARK 924 INTRA-LIGAND FREE ENERGY PREDICTED BY IDOCK:   -0.42 KCAL/MOL
REMARK 927      BINDING AFFINITY PREDICTED BY RF-SCORE:    0.00 PKD
ROOT
HETATM    1  C   UNL     1     -14.108  14.070  72.202  1.00  0.00    -0.641 C  
HETATM    2  C   UNL     1     -13.615  15.461  71.795  1.00  0.00    -0.498 C  
HETATM    3  C   UNL     1     -12.408  15.846  72.655  1.00  0.00    -0.581 C  
ENDROOT
BRANCH   2   4
HETATM    4  N   UNL     1     -13.284  15.430  70.367  1.00  0.00    -0.715 NA 
HETATM    5  H   UNL     1     -13.396  16.355  69.951  1.00  0.00     0.000 HD 
BRANCH   4   6
HETATM    6  C   UNL     1     -11.950  14.894  70.087  1.00  0.00    -0.317 C  
BRANCH   6   7
HETATM    7  C   UNL     1     -11.850  14.375  68.638  1.00  0.00    -0.331 C  
HETATM    8  H   UNL     1     -10.867  14.885  67.020  1.00  0.00     0.000 HD 
HETATM    9  O   UNL     1     -10.929  15.203  67.912  1.00  0.00    -0.281 OA 
BRANCH   7  10
HETATM   10  C   UNL     1     -11.412  12.900  68.668  1.00  0.00    -0.308 C  
BRANCH  10  11
HETATM   11  O   UNL     1     -12.133  12.147  67.692  1.00  0.00    -0.522 OA 
BRANCH  11  12
HETATM   12  C   UNL     1     -11.379  11.599  66.681  1.00  0.00    -0.270 A  
HETATM   13  C   UNL     1     -10.508  10.508  66.844  1.00  0.00    -0.303 A  
HETATM   14  C   UNL     1      -9.795   9.979  65.766  1.00  0.00    -0.345 A  
HETATM   15  C   UNL     1      -9.927  10.514  64.484  1.00  0.00    -0.413 A  
HETATM   16  C   UNL     1     -10.800  11.591  64.324  1.00  0.00    -0.359 A  
HETATM   17  C   UNL     1     -11.526  12.142  65.384  1.00  0.00    -0.387 A  
HETATM   18  C   UNL     1     -12.297  13.210  64.838  1.00  0.00    -0.494 A  
HETATM   19  C   UNL     1     -12.036  13.280  63.490  1.00  0.00    -0.474 A  
HETATM   20  N   UNL     1     -11.132  12.298  63.189  1.00  0.00    -0.671 NA 
HETATM   21  H   UNL     1     -10.757  12.116  62.258  1.00  0.00     0.000 HD 
ENDBRANCH  11  12
ENDBRANCH  10  11
ENDBRANCH   7  10
ENDBRANCH   6   7
ENDBRANCH   4   6
ENDBRANCH   2   4
TORSDOF 6
ENDMDL
MODEL        3
REMARK 921   NORMALIZED FREE ENERGY PREDICTED BY IDOCK:   -5.88 KCAL/MOL
REMARK 922        TOTAL FREE ENERGY PREDICTED BY IDOCK:   -8.32 KCAL/MOL
REMARK 923 INTER-LIGAND FREE ENERGY PREDICTED BY IDOCK:   -7.71 KCAL/MOL
REMARK 924 INTRA-LIGAND FREE ENERGY PREDICTED BY IDOCK:   -0.61 KCAL/MOL
REMARK 927      BINDING AFFINITY PREDICTED BY RF-SCORE:    0.00 PKD
ROOT
HETATM    1  C   UNL     1     -12.593  11.742  63.418  1.00  0.00    -0.458 C  
HETATM    2  C   UNL     1     -11.403  11.985  64.350  1.00  0.00    -0.345 C  
HETATM    3  C   UNL     1     -10.363  10.878  64.148  1.00  0.00    -0.432 C  
ENDROOT
BRANCH   2   4
HETATM    4  N   UNL     1     -10.855  13.313  64.057  1.00  0.00    -0.540 NA 
HETATM    5  H   UNL     1     -10.699  13.425  63.055  1.00  0.00     0.000 HD 
BRANCH   4   6
HETATM    6  C   UNL     1     -11.671  14.411  64.581  1.00  0.00    -0.430 C  
BRANCH   6   7
HETATM    7  C   UNL     1     -10.798  15.625  64.957  1.00  0.00    -0.450 C  
HETATM    8  H   UNL     1     -10.782  17.539  64.533  1.00  0.00     0.000 HD 
HETATM    9  O   UNL     1     -11.320  16.792  64.302  1.00  0.00    -1.170 OA 
BRANCH   7  10
HETATM   10  C   UNL     1     -10.785  15.771  66.489  1.00  0.00    -0.283 C  
BRANCH  10  11
HETATM   11  O   UNL     1     -10.864  14.488  67.112  1.00  0.00    -0.285 OA 
BRANCH  11  12
HETATM   12  C   UNL     1     -11.342  14.478  68.401  1.00  0.00    -0.289 A  
HETATM   13  C   UNL     1     -11.706  15.628  69.122  1.00  0.00    -0.402 A  
HETATM   14  C   UNL     1     -12.216  15.543  70.419  1.00  0.00    -0.443 A  
HETATM   15  C   UNL     1     -12.389  14.307  71.044  1.00  0.00    -0.431 A  
HETATM   16  C   UNL     1     -12.037  13.166  70.321  1.00  0.00    -0.328 A  
HETATM   17  C   UNL     1     -11.523  13.221  69.024  1.00  0.00    -0.350 A  
HETATM   18  C   UNL     1     -11.287  11.872  68.622  1.00  0.00    -0.331 A  
HETATM   19  C   UNL     1     -11.660  11.047  69.656  1.00  0.00    -0.318 A  
HETATM   20  N   UNL     1     -12.112  11.838  70.677  1.00  0.00    -0.424 NA 
HETATM   21  H   UNL     1     -12.457  11.492  71.573  1.00  0.00     0.000 HD 
ENDBRANCH  11  12
ENDBRANCH  10  11
ENDBRANCH   7  10
ENDBRANCH   6   7
ENDBRANCH   4   6
ENDBRANCH   2   4
TORSDOF 6
ENDMDL
MODEL        4
REMARK 921   NORMALIZED FREE ENERGY PREDICTED BY IDOCK:   -5.86 KCAL/MOL
REMARK 922        TOTAL FREE ENERGY PREDICTED BY IDOCK:   -8.30 KCAL/MOL
REMARK 923 INTER-LIGAND FREE ENERGY PREDICTED BY IDOCK:   -7.93 KCAL/MOL
REMARK 924 INTRA-LIGAND FREE ENERGY PREDICTED BY IDOCK:   -0.37 KCAL/MOL
REMARK 927      BINDING AFFINITY PREDICTED BY RF-SCORE:    0.00 PKD
ROOT
HETATM    1  C   UNL     1     -10.167  10.940  63.970  1.00  0.00    -0.422 C  
HETATM    2  C   UNL     1     -10.808  12.213  63.413  1.00  0.00    -0.414 C  
HETATM    3  C   UNL     1     -12.327  12.143  63.599  1.00  0.00    -0.673 C  
ENDROOT
BRANCH   2   4
HETATM    4  N   UNL     1     -10.223  13.364  64.108  1.00  0.00    -0.757 NA 
HETATM    5  H   UNL     1      -9.542  13.836  63.513  1.00  0.00     0.000 HD 
BRANCH   4   6
HETATM    6  C   UNL     1     -11.219  14.312  64.612  1.00  0.00    -0.366 C  
BRANCH   6   7
HETATM    7  C   UNL     1     -10.575  15.673  64.944  1.00  0.00    -0.316 C  
HETATM    8  H   UNL     1     -10.988  17.557  64.589  1.00  0.00     0.000 HD 
HETATM    9  O   UNL     1     -11.385  16.719  64.384  1.00  0.00    -1.089 OA 
BRANCH   7  10
HETATM   10  C   UNL     1     -10.437  15.797  66.473  1.00  0.00    -0.303 C  
BRANCH  10  11
HETATM   11  O   UNL     1      -9.241  16.502  66.809  1.00  0.00    -0.213 OA 
BRANCH  11  12
HETATM   12  C   UNL     1      -9.374  17.861  66.972  1.00  0.00    -0.267 A  
HETATM   13  C   UNL     1     -10.478  18.483  67.579  1.00  0.00    -0.453 A  
HETATM   14  C   UNL     1     -10.534  19.868  67.743  1.00  0.00    -0.511 A  
HETATM   15  C   UNL     1      -9.489  20.686  67.311  1.00  0.00    -0.520 A  
HETATM   16  C   UNL     1      -8.389  20.064  66.717  1.00  0.00    -0.323 A  
HETATM   17  C   UNL     1      -8.306  18.682  66.540  1.00  0.00    -0.304 A  
HETATM   18  C   UNL     1      -7.053  18.426  65.907  1.00  0.00    -0.290 A  
HETATM   19  C   UNL     1      -6.414  19.629  65.725  1.00  0.00    -0.226 A  
HETATM   20  N   UNL     1      -7.228  20.612  66.218  1.00  0.00    -0.480 NA 
HETATM   21  H   UNL     1      -7.007  21.608  66.216  1.00  0.00     0.000 HD 
ENDBRANCH  11  12
ENDBRANCH  10  11
ENDBRANCH   7  10
ENDBRANCH   6   7
ENDBRANCH   4   6
ENDBRANCH   2   4
TORSDOF 6
ENDMDL
MODEL        5
REMARK 921   NORMALIZED FREE ENERGY PREDICTED BY IDOCK:   -5.83 KCAL/MOL
REMARK 922        TOTAL FREE ENERGY PREDICTED BY IDOCK:   -8.25 KCAL/MOL
REMARK 923 INTER-LIGAND FREE ENERGY PREDICTED BY IDOCK:   -7.47 KCAL/MOL
REMARK 924 INTRA-LIGAND FREE ENERGY PREDICTED BY IDOCK:   -0.78 KCAL/MOL
REMARK 927      BINDING AFFINITY PREDICTED BY RF-SCORE:    0.00 PKD
ROOT
HETATM    1  C   UNL     1     -13.902  13.732  72.126  1.00  0.00    -0.649 C  
HETATM    2  C   UNL     1     -14.014  15.256  72.041  1.00  0.00    -0.543 C  
HETATM    3  C   UNL     1     -13.393  15.883  73.293  1.00  0.00    -0.660 C  
ENDROOT
BRANCH   2   4
HETATM    4  N   UNL     1     -13.343  15.697  70.815  1.00  0.00    -0.771 NA 
HETATM    5  H   UNL     1     -13.549  16.678  70.624  1.00  0.00     0.000 HD 
BRANCH   4   6
HETATM    6  C   UNL     1     -11.897  15.464  70.823  1.00  0.00    -0.353 C  
BRANCH   6   7
HETATM    7  C   UNL     1     -11.238  15.997  69.534  1.00  0.00    -0.348 C  
HETATM    8  H   UNL     1      -9.406  16.284  68.899  1.00  0.00     0.000 HD 
HETATM    9  O   UNL     1      -9.811  15.956  69.692  1.00  0.00    -0.268 OA 
BRANCH   7  10
HETATM   10  C   UNL     1     -11.719  15.148  68.344  1.00  0.00    -0.316 C  
BRANCH  10  11
HETATM   11  O   UNL     1     -12.253  13.905  68.803  1.00  0.00    -0.348 OA 
BRANCH  11  12
HETATM   12  C   UNL     1     -11.774  12.779  68.175  1.00  0.00    -0.345 A  
HETATM   13  C   UNL     1     -11.337  12.740  66.840  1.00  0.00    -0.371 A  
HETATM   14  C   UNL     1     -10.830  11.569  66.274  1.00  0.00    -0.333 A  
HETATM   15  C   UNL     1     -10.734  10.393  67.019  1.00  0.00    -0.298 A  
HETATM   16  C   UNL     1     -11.159  10.438  68.348  1.00  0.00    -0.268 A  
HETATM   17  C   UNL     1     -11.671  11.594  68.940  1.00  0.00    -0.397 A  
HETATM   18  C   UNL     1     -11.993  11.254  70.288  1.00  0.00    -0.466 A  
HETATM   19  C   UNL     1     -11.671   9.931  70.483  1.00  0.00    -0.295 A  
HETATM   20  N   UNL     1     -11.167   9.448  69.306  1.00  0.00    -0.442 NA 
HETATM   21  H   UNL     1     -10.844   8.491  69.160  1.00  0.00     0.000 HD 
ENDBRANCH  11  12
ENDBRANCH  10  11
ENDBRANCH   7  10
ENDBRANCH   6   7
ENDBRANCH   4   6
ENDBRANCH   2   4
TORSDOF 6
ENDMDL
MODEL        6
REMARK 921   NORMALIZED FREE ENERGY PREDICTED BY IDOCK:   -5.83 KCAL/MOL
REMARK 922        TOTAL FREE ENERGY PREDICTED BY IDOCK:   -8.25 KCAL/MOL
REMARK 923 INTER-LIGAND FREE ENERGY PREDICTED BY IDOCK:   -7.69 KCAL/MOL
REMARK 924 INTRA-LIGAND FREE ENERGY PREDICTED BY IDOCK:   -0.57 KCAL/MOL
REMARK 927      BINDING AFFINITY PREDICTED BY RF-SCORE:    0.00 PKD
ROOT
HETATM    1  C   UNL     1     -10.148  10.350  64.809  1.00  0.00    -0.387 C  
HETATM    2  C   UNL     1     -10.165  11.354  63.654  1.00  0.00    -0.397 C  
HETATM    3  C   UNL     1      -9.239  10.861  62.538  1.00  0.00    -0.339 C  
ENDROOT
BRANCH   2   4
HETATM    4  N   UNL     1     -11.549  11.501  63.194  1.00  0.00    -0.882 NA 
HETATM    5  H   UNL     1     -11.918  10.606  62.870  1.00  0.00     0.000 HD 
BRANCH   4   6
HETATM    6  C   UNL     1     -12.438  12.097  64.194  1.00  0.00    -0.396 C  
BRANCH   6   7
HETATM    7  C   UNL     1     -12.068  13.569  64.462  1.00  0.00    -0.416 C  
HETATM    8  H   UNL     1     -12.303  15.278  63.529  1.00  0.00     0.000 HD 
HETATM    9  O   UNL     1     -12.531  14.371  63.364  1.00  0.00    -0.709 OA 
BRANCH   7  10
HETATM   10  C   UNL     1     -12.690  14.001  65.803  1.00  0.00    -0.450 C  
BRANCH  10  11
HETATM   11  O   UNL     1     -11.678  14.123  66.804  1.00  0.00    -0.370 OA 
BRANCH  11  12
HETATM   12  C   UNL     1     -11.830  13.318  67.909  1.00  0.00    -0.349 A  
HETATM   13  C   UNL     1     -11.772  11.914  67.882  1.00  0.00    -0.368 A  
HETATM   14  C   UNL     1     -11.902  11.158  69.048  1.00  0.00    -0.418 A  
HETATM   15  C   UNL     1     -12.090  11.772  70.287  1.00  0.00    -0.426 A  
HETATM   16  C   UNL     1     -12.136  13.167  70.312  1.00  0.00    -0.328 A  
HETATM   17  C   UNL     1     -12.010  13.949  69.162  1.00  0.00    -0.404 A  
HETATM   18  C   UNL     1     -12.108  15.310  69.580  1.00  0.00    -0.342 A  
HETATM   19  C   UNL     1     -12.279  15.325  70.944  1.00  0.00    -0.355 A  
HETATM   20  N   UNL     1     -12.294  14.026  71.377  1.00  0.00    -0.349 NA 
HETATM   21  H   UNL     1     -12.407  13.737  72.349  1.00  0.00     0.000 HD 
ENDBRANCH  11  12
ENDBRANCH  10  11
ENDBRANCH   7  10
ENDBRANCH   6   7
ENDBRANCH   4   6
ENDBRANCH   2   4
TORSDOF 6
ENDMDL
MODEL        7
REMARK 921   NORMALIZED FREE ENERGY PREDICTED BY IDOCK:   -5.82 KCAL/MOL
REMARK 922        TOTAL FREE ENERGY PREDICTED BY IDOCK:   -8.24 KCAL/MOL
REMARK 923 INTER-LIGAND FREE ENERGY PREDICTED BY IDOCK:   -7.73 KCAL/MOL
REMARK 924 INTRA-LIGAND FREE ENERGY PREDICTED BY IDOCK:   -0.51 KCAL/MOL
REMARK 927      BINDING AFFINITY PREDICTED BY RF-SCORE:    0.00 PKD
ROOT
HETATM    1  C   UNL     1     -10.051  11.047  64.362  1.00  0.00    -0.393 C  
HETATM    2  C   UNL     1     -10.636  12.256  63.629  1.00  0.00    -0.462 C  
HETATM    3  C   UNL     1     -12.165  12.161  63.627  1.00  0.00    -0.663 C  
ENDROOT
BRANCH   2   4
HETATM    4  N   UNL     1     -10.163  13.471  64.299  1.00  0.00    -0.747 NA 
HETATM    5  H   UNL     1      -9.703  14.094  63.633  1.00  0.00     0.000 HD 
BRANCH   4   6
HETATM    6  C   UNL     1     -11.212  14.182  65.033  1.00  0.00    -0.356 C  
BRANCH   6   7
HETATM    7  C   UNL     1     -10.890  14.250  66.540  1.00  0.00    -0.304 C  
HETATM    8  H   UNL     1     -10.795  15.658  67.901  1.00  0.00     0.000 HD 
HETATM    9  O   UNL     1     -10.994  15.615  66.974  1.00  0.00    -0.322 OA 
BRANCH   7  10
HETATM   10  C   UNL     1     -11.855  13.321  67.297  1.00  0.00    -0.372 C  
BRANCH  10  11
HETATM   11  O   UNL     1     -11.238  12.823  68.485  1.00  0.00    -0.243 OA 
BRANCH  11  12
HETATM   12  C   UNL     1     -11.932  13.031  69.653  1.00  0.00    -0.302 A  
HETATM   13  C   UNL     1     -12.363  14.290  70.106  1.00  0.00    -0.413 A  
HETATM   14  C   UNL     1     -13.094  14.427  71.288  1.00  0.00    -0.421 A  
HETATM   15  C   UNL     1     -13.429  13.313  72.060  1.00  0.00    -0.596 A  
HETATM   16  C   UNL     1     -13.008  12.064  71.601  1.00  0.00    -0.334 A  
HETATM   17  C   UNL     1     -12.275  11.897  70.425  1.00  0.00    -0.399 A  
HETATM   18  C   UNL     1     -12.033  10.497  70.290  1.00  0.00    -0.411 A  
HETATM   19  C   UNL     1     -12.617   9.859  71.358  1.00  0.00    -0.398 A  
HETATM   20  N   UNL     1     -13.204  10.813  72.144  1.00  0.00    -0.591 NA 
HETATM   21  H   UNL     1     -13.713  10.624  73.008  1.00  0.00     0.000 HD 
ENDBRANCH  11  12
ENDBRANCH  10  11
ENDBRANCH   7  10
ENDBRANCH   6   7
ENDBRANCH   4   6
ENDBRANCH   2   4
TORSDOF 6
ENDMDL
MODEL        8
REMARK 921   NORMALIZED FREE ENERGY PREDICTED BY IDOCK:   -5.79 KCAL/MOL
REMARK 922        TOTAL FREE ENERGY PREDICTED BY IDOCK:   -8.20 KCAL/MOL
REMARK 923 INTER-LIGAND FREE ENERGY PREDICTED BY IDOCK:   -7.43 KCAL/MOL
REMARK 924 INTRA-LIGAND FREE ENERGY PREDICTED BY IDOCK:   -0.77 KCAL/MOL
REMARK 927      BINDING AFFINITY PREDICTED BY RF-SCORE:    0.00 PKD
ROOT
HETATM    1  C   UNL     1     -12.443  12.767  65.190  1.00  0.00    -0.565 C  
HETATM    2  C   UNL     1     -11.669  12.648  66.505  1.00  0.00    -0.400 C  
HETATM    3  C   UNL     1     -11.083  11.238  66.625  1.00  0.00    -0.299 C  
ENDROOT
BRANCH   2   4
HETATM    4  N   UNL     1     -10.627  13.679  66.519  1.00  0.00    -0.280 NA 
HETATM    5  H   UNL     1      -9.911  13.478  65.820  1.00  0.00     0.000 HD 
BRANCH   4   6
HETATM    6  C   UNL     1     -11.146  15.038  66.354  1.00  0.00    -0.329 C  
BRANCH   6   7
HETATM    7  C   UNL     1     -10.518  16.004  67.380  1.00  0.00    -0.308 C  
HETATM    8  H   UNL     1     -10.043  17.906  67.423  1.00  0.00     0.000 HD 
HETATM    9  O   UNL     1     -10.430  17.311  66.792  1.00  0.00    -0.313 OA 
BRANCH   7  10
HETATM   10  C   UNL     1     -11.375  15.995  68.658  1.00  0.00    -0.383 C  
BRANCH  10  11
HETATM   11  O   UNL     1     -11.344  14.704  69.269  1.00  0.00    -0.257 OA 
BRANCH  11  12
HETATM   12  C   UNL     1     -12.167  14.537  70.358  1.00  0.00    -0.329 A  
HETATM   13  C   UNL     1     -12.814  15.587  71.031  1.00  0.00    -0.543 A  
HETATM   14  C   UNL     1     -13.665  15.343  72.112  1.00  0.00    -0.618 A  
HETATM   15  C   UNL     1     -13.906  14.044  72.559  1.00  0.00    -0.610 A  
HETATM   16  C   UNL     1     -13.270  13.003  71.881  1.00  0.00    -0.430 A  
HETATM   17  C   UNL     1     -12.414  13.216  70.798  1.00  0.00    -0.389 A  
HETATM   18  C   UNL     1     -11.962  11.930  70.376  1.00  0.00    -0.400 A  
HETATM   19  C   UNL     1     -12.545  10.985  71.187  1.00  0.00    -0.418 A  
HETATM   20  N   UNL     1     -13.334  11.643  72.092  1.00  0.00    -0.562 NA 
HETATM   21  H   UNL     1     -13.889  11.190  72.818  1.00  0.00     0.000 HD 
ENDBRANCH  11  12
ENDBRANCH  10  11
ENDBRANCH   7  10
ENDBRANCH   6   7
ENDBRANCH   4   6
ENDBRANCH   2   4
TORSDOF 6
ENDMDL
MODEL        9
REMARK 921   NORMALIZED FREE ENERGY PREDICTED BY IDOCK:   -5.77 KCAL/MOL
REMARK 922        TOTAL FREE ENERGY PREDICTED BY IDOCK:   -8.16 KCAL/MOL
REMARK 923 INTER-LIGAND FREE ENERGY PREDICTED BY IDOCK:   -7.68 KCAL/MOL
REMARK 924 INTRA-LIGAND FREE ENERGY PREDICTED BY IDOCK:   -0.48 KCAL/MOL
REMARK 927      BINDING AFFINITY PREDICTED BY RF-SCORE:    0.00 PKD
ROOT
HETATM    1  C   UNL     1     -13.940  13.565  72.104  1.00  0.00    -0.575 C  
HETATM    2  C   UNL     1     -13.998  15.092  72.009  1.00  0.00    -0.503 C  
HETATM    3  C   UNL     1     -13.348  15.704  73.254  1.00  0.00    -0.618 C  
ENDROOT
BRANCH   2   4
HETATM    4  N   UNL     1     -13.318  15.501  70.777  1.00  0.00    -0.769 NA 
HETATM    5  H   UNL     1     -13.525  16.476  70.558  1.00  0.00     0.000 HD 
BRANCH   4   6
HETATM    6  C   UNL     1     -11.872  15.270  70.802  1.00  0.00    -0.338 C  
BRANCH   6   7
HETATM    7  C   UNL     1     -11.278  15.300  69.379  1.00  0.00    -0.285 C  
HETATM    8  H   UNL     1      -9.570  15.824  68.572  1.00  0.00     0.000 HD 
HETATM    9  O   UNL     1      -9.936  15.805  69.448  1.00  0.00    -0.239 OA 
BRANCH   7  10
HETATM   10  C   UNL     1     -11.338  13.880  68.787  1.00  0.00    -0.277 C  
BRANCH  10  11
HETATM   11  O   UNL     1     -10.459  13.771  67.666  1.00  0.00    -0.239 OA 
BRANCH  11  12
HETATM   12  C   UNL     1     -11.066  13.704  66.434  1.00  0.00    -0.303 A  
HETATM   13  C   UNL     1     -11.717  12.565  65.931  1.00  0.00    -0.480 A  
HETATM   14  C   UNL     1     -12.342  12.575  64.683  1.00  0.00    -0.547 A  
HETATM   15  C   UNL     1     -12.347  13.724  63.890  1.00  0.00    -0.346 A  
HETATM   16  C   UNL     1     -11.708  14.856  64.397  1.00  0.00    -0.328 A  
HETATM   17  C   UNL     1     -11.074  14.875  65.641  1.00  0.00    -0.348 A  
HETATM   18  C   UNL     1     -10.544  16.189  65.809  1.00  0.00    -0.347 A  
HETATM   19  C   UNL     1     -10.866  16.925  64.693  1.00  0.00     0.331 A  
HETATM   20  N   UNL     1     -11.570  16.112  63.847  1.00  0.00    -1.469 NA 
HETATM   21  H   UNL     1     -11.939  16.396  62.939  1.00  0.00     0.000 HD 
ENDBRANCH  11  12
ENDBRANCH  10  11
ENDBRANCH   7  10
ENDBRANCH   6   7
ENDBRANCH   4   6
ENDBRANCH   2   4
TORSDOF 6
ENDMDL
MODEL       10
REMARK 921   NORMALIZED FREE ENERGY PREDICTED BY IDOCK:   -5.74 KCAL/MOL
REMARK 922        TOTAL FREE ENERGY PREDICTED BY IDOCK:   -8.13 KCAL/MOL
REMARK 923 INTER-LIGAND FREE ENERGY PREDICTED BY IDOCK:   -7.67 KCAL/MOL
REMARK 924 INTRA-LIGAND FREE ENERGY PREDICTED BY IDOCK:   -0.46 KCAL/MOL
REMARK 927      BINDING AFFINITY PREDICTED BY RF-SCORE:    0.00 PKD
ROOT
HETATM    1  C   UNL     1      -9.831  10.353  64.711  1.00  0.00    -0.406 C  
HETATM    2  C   UNL     1      -9.935  11.374  63.576  1.00  0.00    -0.388 C  
HETATM    3  C   UNL     1      -8.963  10.991  62.455  1.00  0.00    -0.366 C  
ENDROOT
BRANCH   2   4
HETATM    4  N   UNL     1     -11.325  11.403  63.111  1.00  0.00    -0.864 NA 
HETATM    5  H   UNL     1     -11.635  10.469  62.844  1.00  0.00     0.000 HD 
BRANCH   4   6
HETATM    6  C   UNL     1     -12.252  12.001  64.075  1.00  0.00    -0.403 C  
BRANCH   6   7
HETATM    7  C   UNL     1     -11.937  13.494  64.299  1.00  0.00    -0.432 C  
HETATM    8  H   UNL     1     -12.402  15.183  63.418  1.00  0.00     0.000 HD 
HETATM    9  O   UNL     1     -12.596  14.264  63.281  1.00  0.00    -0.716 OA 
BRANCH   7  10
HETATM   10  C   UNL     1     -12.391  13.889  65.715  1.00  0.00    -0.486 C  
BRANCH  10  11
HETATM   11  O   UNL     1     -11.262  14.014  66.582  1.00  0.00    -0.310 OA 
BRANCH  11  12
HETATM   12  C   UNL     1     -11.549  14.177  67.917  1.00  0.00    -0.338 A  
HETATM   13  C   UNL     1     -11.730  15.422  68.543  1.00  0.00    -0.355 A  
HETATM   14  C   UNL     1     -12.052  15.515  69.899  1.00  0.00    -0.378 A  
HETATM   15  C   UNL     1     -12.210  14.370  70.681  1.00  0.00    -0.414 A  
HETATM   16  C   UNL     1     -12.038  13.135  70.054  1.00  0.00    -0.305 A  
HETATM   17  C   UNL     1     -11.716  13.011  68.701  1.00  0.00    -0.359 A  
HETATM   18  C   UNL     1     -11.625  11.614  68.428  1.00  0.00    -0.376 A  
HETATM   19  C   UNL     1     -11.895  10.934  69.593  1.00  0.00    -0.344 A  
HETATM   20  N   UNL     1     -12.144  11.862  70.568  1.00  0.00    -0.430 NA 
HETATM   21  H   UNL     1     -12.376  11.641  71.537  1.00  0.00     0.000 HD 
ENDBRANCH  11  12
ENDBRANCH  10  11
ENDBRANCH   7  10
ENDBRANCH   6   7
ENDBRANCH   4   6
ENDBRANCH   2   4
TORSDOF 6
ENDMDL
MODEL       11
REMARK 921   NORMALIZED FREE ENERGY PREDICTED BY IDOCK:   -5.72 KCAL/MOL
REMARK 922        TOTAL FREE ENERGY PREDICTED BY IDOCK:   -8.10 KCAL/MOL
REMARK 923 INTER-LIGAND FREE ENERGY PREDICTED BY IDOCK:   -7.56 KCAL/MOL
REMARK 924 INTRA-LIGAND FREE ENERGY PREDICTED BY IDOCK:   -0.54 KCAL/MOL
REMARK 927      BINDING AFFINITY PREDICTED BY RF-SCORE:    0.00 PKD
ROOT
HETATM    1  C   UNL     1     -13.909  13.466  72.402  1.00  0.00    -0.665 C  
HETATM    2  C   UNL     1     -14.000  14.921  71.937  1.00  0.00    -0.488 C  
HETATM    3  C   UNL     1     -13.367  15.834  72.990  1.00  0.00    -0.679 C  
ENDROOT
BRANCH   2   4
HETATM    4  N   UNL     1     -13.327  15.031  70.639  1.00  0.00    -0.658 NA 
HETATM    5  H   UNL     1     -13.023  15.990  70.470  1.00  0.00     0.000 HD 
BRANCH   4   6
HETATM    6  C   UNL     1     -12.210  14.097  70.478  1.00  0.00    -0.361 C  
BRANCH   6   7
HETATM    7  C   UNL     1     -12.120  13.579  69.029  1.00  0.00    -0.291 C  
HETATM    8  H   UNL     1     -11.669  14.345  67.281  1.00  0.00     0.000 HD 
HETATM    9  O   UNL     1     -11.725  14.663  68.173  1.00  0.00    -0.317 OA 
BRANCH   7  10
HETATM   10  C   UNL     1     -11.124  12.406  68.982  1.00  0.00    -0.235 C  
BRANCH  10  11
HETATM   11  O   UNL     1     -11.812  11.164  69.141  1.00  0.00    -0.303 OA 
BRANCH  11  12
HETATM   12  C   UNL     1     -11.254  10.281  70.035  1.00  0.00    -0.311 A  
HETATM   13  C   UNL     1      -9.899   9.911  70.044  1.00  0.00    -0.291 A  
HETATM   14  C   UNL     1      -9.391   9.032  71.002  1.00  0.00    -0.339 A  
HETATM   15  C   UNL     1     -10.213   8.493  71.993  1.00  0.00    -0.391 A  
HETATM   16  C   UNL     1     -11.557   8.871  71.987  1.00  0.00    -0.364 A  
HETATM   17  C   UNL     1     -12.093   9.747  71.041  1.00  0.00    -0.434 A  
HETATM   18  C   UNL     1     -13.477   9.890  71.355  1.00  0.00    -0.379 A  
HETATM   19  C   UNL     1     -13.744   9.122  72.465  1.00  0.00    -0.435 A  
HETATM   20  N   UNL     1     -12.578   8.512  72.839  1.00  0.00    -0.621 NA 
HETATM   21  H   UNL     1     -12.480   7.882  73.635  1.00  0.00     0.000 HD 
ENDBRANCH  11  12
ENDBRANCH  10  11
ENDBRANCH   7  10
ENDBRANCH   6   7
ENDBRANCH   4   6
ENDBRANCH   2   4
TORSDOF 6
ENDMDL
MODEL       12
REMARK 921   NORMALIZED FREE ENERGY PREDICTED BY IDOCK:   -5.68 KCAL/MOL
REMARK 922        TOTAL FREE ENERGY PREDICTED BY IDOCK:   -8.05 KCAL/MOL
REMARK 923 INTER-LIGAND FREE ENERGY PREDICTED BY IDOCK:   -7.38 KCAL/MOL
REMARK 924 INTRA-LIGAND FREE ENERGY PREDICTED BY IDOCK:   -0.67 KCAL/MOL
REMARK 927      BINDING AFFINITY PREDICTED BY RF-SCORE:    0.00 PKD
ROOT
HETATM    1  C   UNL     1      -8.957  15.884  66.447  1.00  0.00    -0.361 C  
HETATM    2  C   UNL     1     -10.204  16.725  66.165  1.00  0.00    -0.351 C  
HETATM    3  C   UNL     1      -9.860  18.211  66.303  1.00  0.00    -0.311 C  
ENDROOT
BRANCH   2   4
HETATM    4  N   UNL     1     -10.685  16.395  64.820  1.00  0.00    -0.766 NA 
HETATM    5  H   UNL     1     -10.105  16.843  64.110  1.00  0.00     0.000 HD 
BRANCH   4   6
HETATM    6  C   UNL     1     -10.788  14.955  64.572  1.00  0.00    -0.140 C  
BRANCH   6   7
HETATM    7  C   UNL     1     -12.261  14.498  64.545  1.00  0.00    -0.465 C  
HETATM    8  H   UNL     1     -13.421  13.545  63.284  1.00  0.00     0.000 HD 
HETATM    9  O   UNL     1     -12.515  13.826  63.301  1.00  0.00    -0.819 OA 
BRANCH   7  10
HETATM   10  C   UNL     1     -12.522  13.592  65.762  1.00  0.00    -0.477 C  
BRANCH  10  11
HETATM   11  O   UNL     1     -11.476  13.738  66.724  1.00  0.00    -0.321 OA 
BRANCH  11  12
HETATM   12  C   UNL     1     -11.698  13.145  67.944  1.00  0.00    -0.357 A  
HETATM   13  C   UNL     1     -11.664  11.759  68.171  1.00  0.00    -0.377 A  
HETATM   14  C   UNL     1     -11.867  11.224  69.444  1.00  0.00    -0.424 A  
HETATM   15  C   UNL     1     -12.107  12.052  70.542  1.00  0.00    -0.402 A  
HETATM   16  C   UNL     1     -12.130  13.429  70.316  1.00  0.00    -0.349 A  
HETATM   17  C   UNL     1     -11.931  13.992  69.053  1.00  0.00    -0.392 A  
HETATM   18  C   UNL     1     -12.026  15.406  69.217  1.00  0.00    -0.335 A  
HETATM   19  C   UNL     1     -12.267  15.666  70.546  1.00  0.00    -0.399 A  
HETATM   20  N   UNL     1     -12.327  14.466  71.201  1.00  0.00    -0.337 NA 
HETATM   21  H   UNL     1     -12.494  14.356  72.201  1.00  0.00     0.000 HD 
ENDBRANCH  11  12
ENDBRANCH  10  11
ENDBRANCH   7  10
ENDBRANCH   6   7
ENDBRANCH   4   6
ENDBRANCH   2   4
TORSDOF 6
ENDMDL
MODEL       13
REMARK 921   NORMALIZED FREE ENERGY PREDICTED BY IDOCK:   -5.67 KCAL/MOL
REMARK 922        TOTAL FREE ENERGY PREDICTED BY IDOCK:   -8.04 KCAL/MOL
REMARK 923 INTER-LIGAND FREE ENERGY PREDICTED BY IDOCK:   -7.60 KCAL/MOL
REMARK 924 INTRA-LIGAND FREE ENERGY PREDICTED BY IDOCK:   -0.44 KCAL/MOL
REMARK 927      BINDING AFFINITY PREDICTED BY RF-SCORE:    0.00 PKD
ROOT
HETATM    1  C   UNL     1     -10.630  11.830  63.637  1.00  0.00    -0.496 C  
HETATM    2  C   UNL     1     -11.953  12.115  64.351  1.00  0.00    -0.361 C  
HETATM    3  C   UNL     1     -11.727  12.102  65.866  1.00  0.00    -0.393 C  
ENDROOT
BRANCH   2   4
HETATM    4  N   UNL     1     -12.458  13.409  63.882  1.00  0.00    -0.699 NA 
HETATM    5  H   UNL     1     -13.414  13.319  63.538  1.00  0.00     0.000 HD 
BRANCH   4   6
HETATM    6  C   UNL     1     -12.366  14.472  64.886  1.00  0.00    -0.370 C  
BRANCH   6   7
HETATM    7  C   UNL     1     -11.168  15.402  64.604  1.00  0.00    -0.364 C  
HETATM    8  H   UNL     1     -10.919  17.196  63.852  1.00  0.00     0.000 HD 
HETATM    9  O   UNL     1     -11.656  16.623  64.026  1.00  0.00    -1.197 OA 
BRANCH   7  10
HETATM   10  C   UNL     1     -10.407  15.642  65.920  1.00  0.00    -0.350 C  
BRANCH  10  11
HETATM   11  O   UNL     1      -9.390  16.629  65.734  1.00  0.00    -0.501 OA 
BRANCH  11  12
HETATM   12  C   UNL     1      -9.384  17.660  66.642  1.00  0.00    -0.278 A  
HETATM   13  C   UNL     1     -10.467  18.528  66.866  1.00  0.00    -0.434 A  
HETATM   14  C   UNL     1     -10.405  19.537  67.829  1.00  0.00    -0.575 A  
HETATM   15  C   UNL     1      -9.262  19.716  68.610  1.00  0.00    -0.362 A  
HETATM   16  C   UNL     1      -8.193  18.846  68.393  1.00  0.00    -0.342 A  
HETATM   17  C   UNL     1      -8.226  17.829  67.437  1.00  0.00    -0.221 A  
HETATM   18  C   UNL     1      -6.967  17.161  67.508  1.00  0.00    -0.172 A  
HETATM   19  C   UNL     1      -6.217  17.767  68.488  1.00  0.00    -0.184 A  
HETATM   20  N   UNL     1      -6.966  18.782  69.017  1.00  0.00    -0.300 NA 
HETATM   21  H   UNL     1      -6.659  19.403  69.766  1.00  0.00     0.000 HD 
ENDBRANCH  11  12
ENDBRANCH  10  11
ENDBRANCH   7  10
ENDBRANCH   6   7
ENDBRANCH   4   6
ENDBRANCH   2   4
TORSDOF 6
ENDMDL
MODEL       14
REMARK 921   NORMALIZED FREE ENERGY PREDICTED BY IDOCK:   -5.67 KCAL/MOL
REMARK 922        TOTAL FREE ENERGY PREDICTED BY IDOCK:   -8.03 KCAL/MOL
REMARK 923 INTER-LIGAND FREE ENERGY PREDICTED BY IDOCK:   -7.63 KCAL/MOL
REMARK 924 INTRA-LIGAND FREE ENERGY PREDICTED BY IDOCK:   -0.40 KCAL/MOL
REMARK 927      BINDING AFFINITY PREDICTED BY RF-SCORE:    0.00 PKD
ROOT
HETATM    1  C   UNL     1     -10.270  11.580  63.792  1.00  0.00    -0.429 C  
HETATM    2  C   UNL     1     -11.305  12.577  63.267  1.00  0.00    -0.298 C  
HETATM    3  C   UNL     1     -12.710  11.992  63.439  1.00  0.00    -0.527 C  
ENDROOT
BRANCH   2   4
HETATM    4  N   UNL     1     -11.141  13.836  63.999  1.00  0.00    -0.562 NA 
HETATM    5  H   UNL     1     -12.031  14.331  64.069  1.00  0.00     0.000 HD 
BRANCH   4   6
HETATM    6  C   UNL     1     -10.534  13.670  65.322  1.00  0.00    -0.351 C  
BRANCH   6   7
HETATM    7  C   UNL     1     -11.525  14.045  66.441  1.00  0.00    -0.352 C  
HETATM    8  H   UNL     1     -13.411  14.573  66.541  1.00  0.00     0.000 HD 
HETATM    9  O   UNL     1     -12.801  14.342  65.851  1.00  0.00    -0.434 OA 
BRANCH   7  10
HETATM   10  C   UNL     1     -11.603  12.882  67.447  1.00  0.00    -0.360 C  
BRANCH  10  11
HETATM   11  O   UNL     1     -11.260  13.334  68.758  1.00  0.00    -0.248 OA 
BRANCH  11  12
HETATM   12  C   UNL     1     -11.909  12.707  69.795  1.00  0.00    -0.309 A  
HETATM   13  C   UNL     1     -11.947  11.315  69.982  1.00  0.00    -0.447 A  
HETATM   14  C   UNL     1     -12.598  10.744  71.077  1.00  0.00    -0.520 A  
HETATM   15  C   UNL     1     -13.232  11.541  72.032  1.00  0.00    -0.443 A  
HETATM   16  C   UNL     1     -13.184  12.924  71.849  1.00  0.00    -0.423 A  
HETATM   17  C   UNL     1     -12.541  13.522  70.763  1.00  0.00    -0.382 A  
HETATM   18  C   UNL     1     -12.703  14.931  70.918  1.00  0.00    -0.420 A  
HETATM   19  C   UNL     1     -13.418  15.154  72.071  1.00  0.00    -0.421 A  
HETATM   20  N   UNL     1     -13.702  13.936  72.627  1.00  0.00    -0.709 NA 
HETATM   21  H   UNL     1     -14.224  13.798  73.493  1.00  0.00     0.000 HD 
ENDBRANCH  11  12
ENDBRANCH  10  11
ENDBRANCH   7  10
ENDBRANCH   6   7
ENDBRANCH   4   6
ENDBRANCH   2   4
TORSDOF 6
ENDMDL
MODEL       15
REMARK 921   NORMALIZED FREE ENERGY PREDICTED BY IDOCK:   -5.66 KCAL/MOL
REMARK 922        TOTAL FREE ENERGY PREDICTED BY IDOCK:   -8.02 KCAL/MOL
REMARK 923 INTER-LIGAND FREE ENERGY PREDICTED BY IDOCK:   -7.46 KCAL/MOL
REMARK 924 INTRA-LIGAND FREE ENERGY PREDICTED BY IDOCK:   -0.56 KCAL/MOL
REMARK 927      BINDING AFFINITY PREDICTED BY RF-SCORE:    0.00 PKD
ROOT
HETATM    1  C   UNL     1     -13.775  14.037  72.343  1.00  0.00    -0.669 C  
HETATM    2  C   UNL     1     -13.423  15.506  72.588  1.00  0.00    -0.547 C  
HETATM    3  C   UNL     1     -12.549  15.619  73.841  1.00  0.00    -0.767 C  
ENDROOT
BRANCH   2   4
HETATM    4  N   UNL     1     -12.743  16.020  71.396  1.00  0.00    -0.532 NA 
HETATM    5  H   UNL     1     -12.739  17.040  71.395  1.00  0.00     0.000 HD 
BRANCH   4   6
HETATM    6  C   UNL     1     -11.386  15.496  71.225  1.00  0.00    -0.391 C  
BRANCH   6   7
HETATM    7  C   UNL     1     -10.725  16.062  69.952  1.00  0.00    -0.334 C  
HETATM    8  H   UNL     1      -9.009  15.837  69.031  1.00  0.00     0.000 HD 
HETATM    9  O   UNL     1      -9.416  15.488  69.815  1.00  0.00    -0.285 OA 
BRANCH   7  10
HETATM   10  C   UNL     1     -11.628  15.750  68.745  1.00  0.00    -0.395 C  
BRANCH  10  11
HETATM   11  O   UNL     1     -12.380  14.559  68.980  1.00  0.00    -0.225 OA 
BRANCH  11  12
HETATM   12  C   UNL     1     -11.869  13.410  68.425  1.00  0.00    -0.366 A  
HETATM   13  C   UNL     1     -11.313  12.351  69.164  1.00  0.00    -0.327 A  
HETATM   14  C   UNL     1     -10.840  11.196  68.538  1.00  0.00    -0.243 A  
HETATM   15  C   UNL     1     -10.910  11.049  67.152  1.00  0.00    -0.336 A  
HETATM   16  C   UNL     1     -11.472  12.098  66.422  1.00  0.00    -0.370 A  
HETATM   17  C   UNL     1     -11.951  13.265  67.020  1.00  0.00    -0.419 A  
HETATM   18  C   UNL     1     -12.444  14.091  65.967  1.00  0.00    -0.489 A  
HETATM   19  C   UNL     1     -12.264  13.421  64.780  1.00  0.00    -0.409 A  
HETATM   20  N   UNL     1     -11.678  12.218  65.065  1.00  0.00    -0.360 NA 
HETATM   21  H   UNL     1     -11.429  11.512  64.372  1.00  0.00     0.000 HD 
ENDBRANCH  11  12
ENDBRANCH  10  11
ENDBRANCH   7  10
ENDBRANCH   6   7
ENDBRANCH   4   6
ENDBRANCH   2   4
TORSDOF 6
ENDMDL
MODEL       16
REMARK 921   NORMALIZED FREE ENERGY PREDICTED BY IDOCK:   -5.66 KCAL/MOL
REMARK 922        TOTAL FREE ENERGY PREDICTED BY IDOCK:   -8.02 KCAL/MOL
REMARK 923 INTER-LIGAND FREE ENERGY PREDICTED BY IDOCK:   -7.50 KCAL/MOL
REMARK 924 INTRA-LIGAND FREE ENERGY PREDICTED BY IDOCK:   -0.52 KCAL/MOL
REMARK 927      BINDING AFFINITY PREDICTED BY RF-SCORE:    0.00 PKD
ROOT
HETATM    1  C   UNL     1     -14.014  15.405  72.368  1.00  0.00    -0.657 C  
HETATM    2  C   UNL     1     -13.094  15.568  71.156  1.00  0.00    -0.507 C  
HETATM    3  C   UNL     1     -11.653  15.772  71.634  1.00  0.00    -0.537 C  
ENDROOT
BRANCH   2   4
HETATM    4  N   UNL     1     -13.230  14.377  70.313  1.00  0.00    -0.404 NA 
HETATM    5  H   UNL     1     -13.807  14.578  69.496  1.00  0.00     0.000 HD 
BRANCH   4   6
HETATM    6  C   UNL     1     -11.948  13.794  69.912  1.00  0.00    -0.347 C  
BRANCH   6   7
HETATM    7  C   UNL     1     -11.865  12.305  70.304  1.00  0.00    -0.240 C  
HETATM    8  H   UNL     1     -12.822  11.111  71.529  1.00  0.00     0.000 HD 
HETATM    9  O   UNL     1     -12.873  12.028  71.288  1.00  0.00    -0.365 OA 
BRANCH   7  10
HETATM   10  C   UNL     1     -12.034  11.448  69.036  1.00  0.00    -0.320 C  
BRANCH  10  11
HETATM   11  O   UNL     1     -12.009  12.274  67.871  1.00  0.00    -0.452 OA 
BRANCH  11  12
HETATM   12  C   UNL     1     -11.376  11.740  66.773  1.00  0.00    -0.320 A  
HETATM   13  C   UNL     1     -10.489  10.651  66.820  1.00  0.00    -0.303 A  
HETATM   14  C   UNL     1      -9.905  10.137  65.661  1.00  0.00    -0.347 A  
HETATM   15  C   UNL     1     -10.187  10.686  64.409  1.00  0.00    -0.400 A  
HETATM   16  C   UNL     1     -11.077  11.761  64.365  1.00  0.00    -0.334 A  
HETATM   17  C   UNL     1     -11.675  12.296  65.507  1.00  0.00    -0.433 A  
HETATM   18  C   UNL     1     -12.509  13.367  65.068  1.00  0.00    -0.479 A  
HETATM   19  C   UNL     1     -12.407  13.453  63.699  1.00  0.00    -0.351 A  
HETATM   20  N   UNL     1     -11.541  12.478  63.284  1.00  0.00    -0.700 NA 
HETATM   21  H   UNL     1     -11.277  12.308  62.313  1.00  0.00     0.000 HD 
ENDBRANCH  11  12
ENDBRANCH  10  11
ENDBRANCH   7  10
ENDBRANCH   6   7
ENDBRANCH   4   6
ENDBRANCH   2   4
TORSDOF 6
ENDMDL
MODEL       17
REMARK 921   NORMALIZED FREE ENERGY PREDICTED BY IDOCK:   -5.66 KCAL/MOL
REMARK 922        TOTAL FREE ENERGY PREDICTED BY IDOCK:   -8.02 KCAL/MOL
REMARK 923 INTER-LIGAND FREE ENERGY PREDICTED BY IDOCK:   -7.64 KCAL/MOL
REMARK 924 INTRA-LIGAND FREE ENERGY PREDICTED BY IDOCK:   -0.38 KCAL/MOL
REMARK 927      BINDING AFFINITY PREDICTED BY RF-SCORE:    0.00 PKD
ROOT
HETATM    1  C   UNL     1     -14.141  13.950  72.179  1.00  0.00    -0.630 C  
HETATM    2  C   UNL     1     -13.612  15.362  71.918  1.00  0.00    -0.491 C  
HETATM    3  C   UNL     1     -12.282  15.552  72.654  1.00  0.00    -0.521 C  
ENDROOT
BRANCH   2   4
HETATM    4  N   UNL     1     -13.469  15.539  70.470  1.00  0.00    -0.820 NA 
HETATM    5  H   UNL     1     -13.579  16.520  70.214  1.00  0.00     0.000 HD 
BRANCH   4   6
HETATM    6  C   UNL     1     -12.215  15.002  69.936  1.00  0.00    -0.309 C  
BRANCH   6   7
HETATM    7  C   UNL     1     -11.740  15.808  68.710  1.00  0.00    -0.378 C  
HETATM    8  H   UNL     1     -10.512  17.302  68.392  1.00  0.00     0.000 HD 
HETATM    9  O   UNL     1     -10.804  16.806  69.146  1.00  0.00    -0.324 OA 
BRANCH   7  10
HETATM   10  C   UNL     1     -11.124  14.837  67.687  1.00  0.00    -0.306 C  
BRANCH  10  11
HETATM   11  O   UNL     1     -12.084  13.855  67.292  1.00  0.00    -0.401 OA 
BRANCH  11  12
HETATM   12  C   UNL     1     -11.915  13.325  66.035  1.00  0.00    -0.423 A  
HETATM   13  C   UNL     1     -12.383  13.922  64.852  1.00  0.00    -0.445 A  
HETATM   14  C   UNL     1     -12.148  13.345  63.603  1.00  0.00    -0.513 A  
HETATM   15  C   UNL     1     -11.434  12.152  63.485  1.00  0.00    -0.544 A  
HETATM   16  C   UNL     1     -10.962  11.567  64.660  1.00  0.00    -0.288 A  
HETATM   17  C   UNL     1     -11.182  12.120  65.923  1.00  0.00    -0.384 A  
HETATM   18  C   UNL     1     -10.558  11.250  66.865  1.00  0.00    -0.300 A  
HETATM   19  C   UNL     1      -9.979  10.214  66.170  1.00  0.00    -0.246 A  
HETATM   20  N   UNL     1     -10.228  10.415  64.840  1.00  0.00    -0.319 NA 
HETATM   21  H   UNL     1      -9.914   9.799  64.089  1.00  0.00     0.000 HD 
ENDBRANCH  11  12
ENDBRANCH  10  11
ENDBRANCH   7  10
ENDBRANCH   6   7
ENDBRANCH   4   6
ENDBRANCH   2   4
TORSDOF 6
ENDMDL
MODEL       18
REMARK 921   NORMALIZED FREE ENERGY PREDICTED BY IDOCK:   -5.65 KCAL/MOL
REMARK 922        TOTAL FREE ENERGY PREDICTED BY IDOCK:   -8.01 KCAL/MOL
REMARK 923 INTER-LIGAND FREE ENERGY PREDICTED BY IDOCK:   -7.59 KCAL/MOL
REMARK 924 INTRA-LIGAND FREE ENERGY PREDICTED BY IDOCK:   -0.41 KCAL/MOL
REMARK 927      BINDING AFFINITY PREDICTED BY RF-SCORE:    0.00 PKD
ROOT
HETATM    1  C   UNL     1     -10.012  18.377  68.506  1.00  0.00    -0.415 C  
HETATM    2  C   UNL     1     -10.709  18.606  67.163  1.00  0.00    -0.377 C  
HETATM    3  C   UNL     1     -10.160  19.881  66.515  1.00  0.00    -0.607 C  
ENDROOT
BRANCH   2   4
HETATM    4  N   UNL     1     -10.487  17.424  66.324  1.00  0.00    -0.315 NA 
HETATM    5  H   UNL     1      -9.686  17.565  65.707  1.00  0.00     0.000 HD 
BRANCH   4   6
HETATM    6  C   UNL     1     -10.341  16.183  67.088  1.00  0.00    -0.291 C  
BRANCH   6   7
HETATM    7  C   UNL     1     -10.944  14.985  66.327  1.00  0.00    -0.338 C  
HETATM    8  H   UNL     1     -10.245  13.436  65.349  1.00  0.00     0.000 HD 
HETATM    9  O   UNL     1      -9.874  14.174  65.818  1.00  0.00    -0.307 OA 
BRANCH   7  10
HETATM   10  C   UNL     1     -11.866  14.205  67.280  1.00  0.00    -0.419 C  
BRANCH  10  11
HETATM   11  O   UNL     1     -11.611  14.578  68.635  1.00  0.00    -0.283 OA 
BRANCH  11  12
HETATM   12  C   UNL     1     -12.012  13.674  69.591  1.00  0.00    -0.343 A  
HETATM   13  C   UNL     1     -11.735  12.297  69.546  1.00  0.00    -0.398 A  
HETATM   14  C   UNL     1     -12.144  11.438  70.567  1.00  0.00    -0.487 A  
HETATM   15  C   UNL     1     -12.841  11.920  71.677  1.00  0.00    -0.417 A  
HETATM   16  C   UNL     1     -13.105  13.290  71.723  1.00  0.00    -0.379 A  
HETATM   17  C   UNL     1     -12.709  14.173  70.716  1.00  0.00    -0.414 A  
HETATM   18  C   UNL     1     -13.152  15.470  71.112  1.00  0.00    -0.573 A  
HETATM   19  C   UNL     1     -13.786  15.351  72.326  1.00  0.00    -0.548 A  
HETATM   20  N   UNL     1     -13.752  14.032  72.687  1.00  0.00    -0.683 NA 
HETATM   21  H   UNL     1     -14.148  13.653  73.548  1.00  0.00     0.000 HD 
ENDBRANCH  11  12
ENDBRANCH  10  11
ENDBRANCH   7  10
ENDBRANCH   6   7
ENDBRANCH   4   6
ENDBRANCH   2   4
TORSDOF 6
ENDMDL
MODEL       19
REMARK 921   NORMALIZED FREE ENERGY PREDICTED BY IDOCK:   -5.60 KCAL/MOL
REMARK 922        TOTAL FREE ENERGY PREDICTED BY IDOCK:   -7.93 KCAL/MOL
REMARK 923 INTER-LIGAND FREE ENERGY PREDICTED BY IDOCK:   -7.29 KCAL/MOL
REMARK 924 INTRA-LIGAND FREE ENERGY PREDICTED BY IDOCK:   -0.65 KCAL/MOL
REMARK 927      BINDING AFFINITY PREDICTED BY RF-SCORE:    0.00 PKD
ROOT
HETATM    1  C   UNL     1      -8.722  16.506  66.185  1.00  0.00    -0.335 C  
HETATM    2  C   UNL     1     -10.193  16.925  66.145  1.00  0.00    -0.341 C  
HETATM    3  C   UNL     1     -10.290  18.452  66.233  1.00  0.00    -0.440 C  
ENDROOT
BRANCH   2   4
HETATM    4  N   UNL     1     -10.784  16.408  64.908  1.00  0.00    -0.705 NA 
HETATM    5  H   UNL     1     -10.332  16.821  64.092  1.00  0.00     0.000 HD 
BRANCH   4   6
HETATM    6  C   UNL     1     -10.774  14.946  64.821  1.00  0.00    -0.341 C  
BRANCH   6   7
HETATM    7  C   UNL     1     -12.207  14.375  64.849  1.00  0.00    -0.433 C  
HETATM    8  H   UNL     1     -13.307  13.261  63.669  1.00  0.00     0.000 HD 
HETATM    9  O   UNL     1     -12.425  13.612  63.652  1.00  0.00    -0.728 OA 
BRANCH   7  10
HETATM   10  C   UNL     1     -12.378  13.527  66.122  1.00  0.00    -0.407 C  
BRANCH  10  11
HETATM   11  O   UNL     1     -11.328  13.804  67.049  1.00  0.00    -0.304 OA 
BRANCH  11  12
HETATM   12  C   UNL     1     -11.716  13.991  68.355  1.00  0.00    -0.354 A  
HETATM   13  C   UNL     1     -11.986  15.244  68.930  1.00  0.00    -0.292 A  
HETATM   14  C   UNL     1     -12.409  15.361  70.256  1.00  0.00    -0.425 A  
HETATM   15  C   UNL     1     -12.584  14.232  71.057  1.00  0.00    -0.428 A  
HETATM   16  C   UNL     1     -12.325  12.988  70.479  1.00  0.00    -0.287 A  
HETATM   17  C   UNL     1     -11.900  12.841  69.157  1.00  0.00    -0.352 A  
HETATM   18  C   UNL     1     -11.742  11.441  68.933  1.00  0.00    -0.409 A  
HETATM   19  C   UNL     1     -12.073  10.783  70.094  1.00  0.00    -0.346 A  
HETATM   20  N   UNL     1     -12.424  11.725  71.021  1.00  0.00    -0.359 NA 
HETATM   21  H   UNL     1     -12.718  11.521  71.977  1.00  0.00     0.000 HD 
ENDBRANCH  11  12
ENDBRANCH  10  11
ENDBRANCH   7  10
ENDBRANCH   6   7
ENDBRANCH   4   6
ENDBRANCH   2   4
TORSDOF 6
ENDMDL
MODEL       20
REMARK 921   NORMALIZED FREE ENERGY PREDICTED BY IDOCK:   -5.58 KCAL/MOL
REMARK 922        TOTAL FREE ENERGY PREDICTED BY IDOCK:   -7.91 KCAL/MOL
REMARK 923 INTER-LIGAND FREE ENERGY PREDICTED BY IDOCK:   -7.46 KCAL/MOL
REMARK 924 INTRA-LIGAND FREE ENERGY PREDICTED BY IDOCK:   -0.45 KCAL/MOL
REMARK 927      BINDING AFFINITY PREDICTED BY RF-SCORE:    0.00 PKD
ROOT
HETATM    1  C   UNL     1     -10.018  10.293  64.685  1.00  0.00    -0.377 C  
HETATM    2  C   UNL     1     -10.019  11.363  63.591  1.00  0.00    -0.364 C  
HETATM    3  C   UNL     1      -8.952  11.024  62.546  1.00  0.00    -0.366 C  
ENDROOT
BRANCH   2   4
HETATM    4  N   UNL     1     -11.361  11.421  63.006  1.00  0.00    -0.852 NA 
HETATM    5  H   UNL     1     -11.654  10.498  62.683  1.00  0.00     0.000 HD 
BRANCH   4   6
HETATM    6  C   UNL     1     -12.366  11.998  63.902  1.00  0.00    -0.450 C  
BRANCH   6   7
HETATM    7  C   UNL     1     -11.953  13.409  64.368  1.00  0.00    -0.411 C  
HETATM    8  H   UNL     1     -12.268  15.246  63.760  1.00  0.00     0.000 HD 
HETATM    9  O   UNL     1     -12.523  14.378  63.474  1.00  0.00    -0.770 OA 
BRANCH   7  10
HETATM   10  C   UNL     1     -12.420  13.609  65.821  1.00  0.00    -0.477 C  
BRANCH  10  11
HETATM   11  O   UNL     1     -11.310  13.527  66.716  1.00  0.00    -0.309 OA 
BRANCH  11  12
HETATM   12  C   UNL     1     -11.449  14.203  67.905  1.00  0.00    -0.312 A  
HETATM   13  C   UNL     1     -11.976  13.642  69.080  1.00  0.00    -0.394 A  
HETATM   14  C   UNL     1     -12.059  14.378  70.264  1.00  0.00    -0.396 A  
HETATM   15  C   UNL     1     -11.614  15.699  70.323  1.00  0.00    -0.370 A  
HETATM   16  C   UNL     1     -11.082  16.250  69.156  1.00  0.00    -0.322 A  
HETATM   17  C   UNL     1     -10.988  15.540  67.958  1.00  0.00    -0.311 A  
HETATM   18  C   UNL     1     -10.400  16.423  67.004  1.00  0.00    -0.293 A  
HETATM   19  C   UNL     1     -10.149  17.621  67.631  1.00  0.00    -0.339 A  
HETATM   20  N   UNL     1     -10.563  17.506  68.930  1.00  0.00    -0.346 NA 
HETATM   21  H   UNL     1     -10.497  18.245  69.630  1.00  0.00     0.000 HD 
ENDBRANCH  11  12
ENDBRANCH  10  11
ENDBRANCH   7  10
ENDBRANCH   6   7
ENDBRANCH   4   6
ENDBRANCH   2   4
TORSDOF 6
ENDMDL
MODEL       21
REMARK 921   NORMALIZED FREE ENERGY PREDICTED BY IDOCK:   -5.57 KCAL/MOL
REMARK 922        TOTAL FREE ENERGY PREDICTED BY IDOCK:   -7.91 KCAL/MOL
REMARK 923 INTER-LIGAND FREE ENERGY PREDICTED BY IDOCK:   -7.02 KCAL/MOL
REMARK 924 INTRA-LIGAND FREE ENERGY PREDICTED BY IDOCK:   -0.88 KCAL/MOL
REMARK 927      BINDING AFFINITY PREDICTED BY RF-SCORE:    0.00 PKD
ROOT
HETATM    1  C   UNL     1     -11.640  12.123  67.618  1.00  0.00    -0.413 C  
HETATM    2  C   UNL     1     -12.143  13.502  68.052  1.00  0.00    -0.262 C  
HETATM    3  C   UNL     1     -11.193  14.082  69.105  1.00  0.00    -0.308 C  
ENDROOT
BRANCH   2   4
HETATM    4  N   UNL     1     -12.230  14.354  66.863  1.00  0.00    -0.545 NA 
HETATM    5  H   UNL     1     -11.390  14.924  66.765  1.00  0.00     0.000 HD 
BRANCH   4   6
HETATM    6  C   UNL     1     -12.500  13.611  65.629  1.00  0.00    -0.496 C  
BRANCH   6   7
HETATM    7  C   UNL     1     -11.790  14.257  64.422  1.00  0.00    -0.426 C  
HETATM    8  H   UNL     1     -12.195  15.690  63.146  1.00  0.00     0.000 HD 
HETATM    9  O   UNL     1     -12.632  15.292  63.889  1.00  0.00    -0.765 OA 
BRANCH   7  10
HETATM   10  C   UNL     1     -10.422  14.795  64.881  1.00  0.00    -0.369 C  
BRANCH  10  11
HETATM   11  O   UNL     1     -10.510  16.190  65.177  1.00  0.00    -0.560 OA 
BRANCH  11  12
HETATM   12  C   UNL     1      -9.739  16.628  66.228  1.00  0.00    -0.304 A  
HETATM   13  C   UNL     1      -8.894  15.803  66.990  1.00  0.00    -0.241 A  
HETATM   14  C   UNL     1      -8.113  16.319  68.025  1.00  0.00    -0.150 A  
HETATM   15  C   UNL     1      -8.139  17.680  68.336  1.00  0.00    -0.285 A  
HETATM   16  C   UNL     1      -8.971  18.498  67.571  1.00  0.00    -0.276 A  
HETATM   17  C   UNL     1      -9.765  18.009  66.531  1.00  0.00    -0.338 A  
HETATM   18  C   UNL     1     -10.466  19.128  65.991  1.00  0.00    -0.546 A  
HETATM   19  C   UNL     1     -10.086  20.248  66.694  1.00  0.00    -0.405 A  
HETATM   20  N   UNL     1      -9.183  19.857  67.645  1.00  0.00    -0.336 NA 
HETATM   21  H   UNL     1      -8.731  20.483  68.312  1.00  0.00     0.000 HD 
ENDBRANCH  11  12
ENDBRANCH  10  11
ENDBRANCH   7  10
ENDBRANCH   6   7
ENDBRANCH   4   6
ENDBRANCH   2   4
TORSDOF 6
ENDMDL
MODEL       22
REMARK 921   NORMALIZED FREE ENERGY PREDICTED BY IDOCK:   -5.54 KCAL/MOL
REMARK 922        TOTAL FREE ENERGY PREDICTED BY IDOCK:   -7.86 KCAL/MOL
REMARK 923 INTER-LIGAND FREE ENERGY PREDICTED BY IDOCK:   -7.58 KCAL/MOL
REMARK 924 INTRA-LIGAND FREE ENERGY PREDICTED BY IDOCK:   -0.28 KCAL/MOL
REMARK 927      BINDING AFFINITY PREDICTED BY RF-SCORE:    0.00 PKD
ROOT
HETATM    1  C   UNL     1     -10.504  18.279  67.871  1.00  0.00    -0.408 C  
HETATM    2  C   UNL     1     -10.377  19.033  66.545  1.00  0.00    -0.439 C  
HETATM    3  C   UNL     1      -9.116  19.901  66.571  1.00  0.00    -0.464 C  
ENDROOT
BRANCH   2   4
HETATM    4  N   UNL     1     -10.344  18.049  65.459  1.00  0.00    -0.577 NA 
HETATM    5  H   UNL     1      -9.547  18.217  64.844  1.00  0.00     0.000 HD 
BRANCH   4   6
HETATM    6  C   UNL     1     -10.353  16.661  65.927  1.00  0.00    -0.340 C  
BRANCH   6   7
HETATM    7  C   UNL     1     -11.278  15.785  65.057  1.00  0.00    -0.308 C  
HETATM    8  H   UNL     1     -12.147  15.952  63.307  1.00  0.00     0.000 HD 
HETATM    9  O   UNL     1     -11.578  16.491  63.843  1.00  0.00    -1.175 OA 
BRANCH   7  10
HETATM   10  C   UNL     1     -10.581  14.438  64.792  1.00  0.00    -0.393 C  
BRANCH  10  11
HETATM   11  O   UNL     1     -11.526  13.369  64.854  1.00  0.00    -0.310 OA 
BRANCH  11  12
HETATM   12  C   UNL     1     -11.084  12.213  65.453  1.00  0.00    -0.317 A  
HETATM   13  C   UNL     1     -11.330  11.870  66.793  1.00  0.00    -0.393 A  
HETATM   14  C   UNL     1     -10.878  10.663  67.330  1.00  0.00    -0.345 A  
HETATM   15  C   UNL     1     -10.169   9.749  66.549  1.00  0.00    -0.289 A  
HETATM   16  C   UNL     1      -9.936  10.088  65.216  1.00  0.00    -0.298 A  
HETATM   17  C   UNL     1     -10.374  11.288  64.652  1.00  0.00    -0.373 A  
HETATM   18  C   UNL     1      -9.952  11.277  63.289  1.00  0.00    -0.428 A  
HETATM   19  C   UNL     1      -9.289  10.095  63.058  1.00  0.00    -0.299 A  
HETATM   20  N   UNL     1      -9.285   9.384  64.227  1.00  0.00    -0.427 NA 
HETATM   21  H   UNL     1      -8.861   8.464  64.348  1.00  0.00     0.000 HD 
ENDBRANCH  11  12
ENDBRANCH  10  11
ENDBRANCH   7  10
ENDBRANCH   6   7
ENDBRANCH   4   6
ENDBRANCH   2   4
TORSDOF 6
ENDMDL
MODEL       23
REMARK 921   NORMALIZED FREE ENERGY PREDICTED BY IDOCK:   -5.53 KCAL/MOL
REMARK 922        TOTAL FREE ENERGY PREDICTED BY IDOCK:   -7.85 KCAL/MOL
REMARK 923 INTER-LIGAND FREE ENERGY PREDICTED BY IDOCK:   -7.23 KCAL/MOL
REMARK 924 INTRA-LIGAND FREE ENERGY PREDICTED BY IDOCK:   -0.62 KCAL/MOL
REMARK 927      BINDING AFFINITY PREDICTED BY RF-SCORE:    0.00 PKD
ROOT
HETATM    1  C   UNL     1     -10.585  19.220  66.309  1.00  0.00    -0.545 C  
HETATM    2  C   UNL     1     -10.000  18.596  67.579  1.00  0.00    -0.338 C  
HETATM    3  C   UNL     1      -9.994  19.637  68.702  1.00  0.00    -0.553 C  
ENDROOT
BRANCH   2   4
HETATM    4  N   UNL     1     -10.805  17.420  67.924  1.00  0.00    -0.341 NA 
HETATM    5  H   UNL     1     -10.921  16.812  67.113  1.00  0.00     0.000 HD 
BRANCH   4   6
HETATM    6  C   UNL     1     -10.281  16.667  69.066  1.00  0.00    -0.301 C  
BRANCH   6   7
HETATM    7  C   UNL     1      -9.325  15.549  68.606  1.00  0.00    -0.201 C  
HETATM    8  H   UNL     1      -7.640  14.778  69.246  1.00  0.00     0.000 HD 
HETATM    9  O   UNL     1      -8.228  15.467  69.530  1.00  0.00    -0.243 OA 
BRANCH   7  10
HETATM   10  C   UNL     1     -10.113  14.229  68.516  1.00  0.00    -0.246 C  
BRANCH  10  11
HETATM   11  O   UNL     1     -11.478  14.439  68.879  1.00  0.00    -0.256 OA 
BRANCH  11  12
HETATM   12  C   UNL     1     -12.003  13.540  69.777  1.00  0.00    -0.340 A  
HETATM   13  C   UNL     1     -11.691  12.170  69.803  1.00  0.00    -0.381 A  
HETATM   14  C   UNL     1     -12.237  11.317  70.764  1.00  0.00    -0.479 A  
HETATM   15  C   UNL     1     -13.110  11.798  71.740  1.00  0.00    -0.480 A  
HETATM   16  C   UNL     1     -13.410  13.161  71.718  1.00  0.00    -0.389 A  
HETATM   17  C   UNL     1     -12.881  14.038  70.768  1.00  0.00    -0.355 A  
HETATM   18  C   UNL     1     -13.411  15.329  71.064  1.00  0.00    -0.537 A  
HETATM   19  C   UNL     1     -14.226  15.213  72.166  1.00  0.00    -0.559 A  
HETATM   20  N   UNL     1     -14.218  13.901  72.554  1.00  0.00    -0.685 NA 
HETATM   21  H   UNL     1     -14.737  13.525  73.348  1.00  0.00     0.000 HD 
ENDBRANCH  11  12
ENDBRANCH  10  11
ENDBRANCH   7  10
ENDBRANCH   6   7
ENDBRANCH   4   6
ENDBRANCH   2   4
TORSDOF 6
ENDMDL
MODEL       24
REMARK 921   NORMALIZED FREE ENERGY PREDICTED BY IDOCK:   -5.49 KCAL/MOL
REMARK 922        TOTAL FREE ENERGY PREDICTED BY IDOCK:   -7.79 KCAL/MOL
REMARK 923 INTER-LIGAND FREE ENERGY PREDICTED BY IDOCK:   -7.38 KCAL/MOL
REMARK 924 INTRA-LIGAND FREE ENERGY PREDICTED BY IDOCK:   -0.41 KCAL/MOL
REMARK 927      BINDING AFFINITY PREDICTED BY RF-SCORE:    0.00 PKD
ROOT
HETATM    1  C   UNL     1     -13.738  13.466  72.192  1.00  0.00    -0.646 C  
HETATM    2  C   UNL     1     -14.091  14.948  72.050  1.00  0.00    -0.517 C  
HETATM    3  C   UNL     1     -13.514  15.725  73.237  1.00  0.00    -0.580 C  
ENDROOT
BRANCH   2   4
HETATM    4  N   UNL     1     -13.559  15.426  70.771  1.00  0.00    -0.814 NA 
HETATM    5  H   UNL     1     -14.048  16.268  70.469  1.00  0.00     0.000 HD 
BRANCH   4   6
HETATM    6  C   UNL     1     -12.111  15.644  70.784  1.00  0.00    -0.412 C  
BRANCH   6   7
HETATM    7  C   UNL     1     -11.437  14.995  69.557  1.00  0.00    -0.294 C  
HETATM    8  H   UNL     1     -11.832  13.496  68.357  1.00  0.00     0.000 HD 
HETATM    9  O   UNL     1     -12.246  13.895  69.112  1.00  0.00    -0.356 OA 
BRANCH   7  10
HETATM   10  C   UNL     1     -11.256  16.066  68.467  1.00  0.00    -0.374 C  
BRANCH  10  11
HETATM   11  O   UNL     1     -10.617  17.224  69.007  1.00  0.00    -0.323 OA 
BRANCH  11  12
HETATM   12  C   UNL     1     -10.057  18.081  68.090  1.00  0.00    -0.372 A  
HETATM   13  C   UNL     1     -10.784  19.005  67.321  1.00  0.00    -0.556 A  
HETATM   14  C   UNL     1     -10.147  19.871  66.429  1.00  0.00    -0.615 A  
HETATM   15  C   UNL     1      -8.760  19.852  66.275  1.00  0.00    -0.384 A  
HETATM   16  C   UNL     1      -8.040  18.940  67.048  1.00  0.00    -0.261 A  
HETATM   17  C   UNL     1      -8.650  18.062  67.947  1.00  0.00    -0.258 A  
HETATM   18  C   UNL     1      -7.604  17.296  68.543  1.00  0.00    -0.251 A  
HETATM   19  C   UNL     1      -6.409  17.721  68.011  1.00  0.00    -0.176 A  
HETATM   20  N   UNL     1      -6.683  18.714  67.111  1.00  0.00    -0.196 NA 
HETATM   21  H   UNL     1      -5.982  19.215  66.565  1.00  0.00     0.000 HD 
ENDBRANCH  11  12
ENDBRANCH  10  11
ENDBRANCH   7  10
ENDBRANCH   6   7
ENDBRANCH   4   6
ENDBRANCH   2   4
TORSDOF 6
ENDMDL
MODEL       25
REMARK 921   NORMALIZED FREE ENERGY PREDICTED BY IDOCK:   -5.47 KCAL/MOL
REMARK 922        TOTAL FREE ENERGY PREDICTED BY IDOCK:   -7.77 KCAL/MOL
REMARK 923 INTER-LIGAND FREE ENERGY PREDICTED BY IDOCK:   -7.28 KCAL/MOL
REMARK 924 INTRA-LIGAND FREE ENERGY PREDICTED BY IDOCK:   -0.49 KCAL/MOL
REMARK 927      BINDING AFFINITY PREDICTED BY RF-SCORE:    0.00 PKD
ROOT
HETATM    1  C   UNL     1      -7.787  19.875  67.054  1.00  0.00    -0.325 C  
HETATM    2  C   UNL     1      -8.986  18.930  67.155  1.00  0.00    -0.284 C  
HETATM    3  C   UNL     1     -10.267  19.749  67.338  1.00  0.00    -0.575 C  
ENDROOT
BRANCH   2   4
HETATM    4  N   UNL     1      -9.027  18.111  65.940  1.00  0.00    -0.473 NA 
HETATM    5  H   UNL     1      -8.165  18.215  65.405  1.00  0.00     0.000 HD 
BRANCH   4   6
HETATM    6  C   UNL     1      -9.310  16.697  66.197  1.00  0.00    -0.284 C  
BRANCH   6   7
HETATM    7  C   UNL     1     -10.759  16.338  65.812  1.00  0.00    -0.255 C  
HETATM    8  H   UNL     1     -12.031  16.891  64.426  1.00  0.00     0.000 HD 
HETATM    9  O   UNL     1     -11.138  17.112  64.663  1.00  0.00    -1.036 OA 
BRANCH   7  10
HETATM   10  C   UNL     1     -10.843  14.824  65.550  1.00  0.00    -0.351 C  
BRANCH  10  11
HETATM   11  O   UNL     1     -12.043  14.287  66.109  1.00  0.00    -0.407 OA 
BRANCH  11  12
HETATM   12  C   UNL     1     -11.874  13.333  67.084  1.00  0.00    -0.374 A  
HETATM   13  C   UNL     1     -11.614  11.976  66.830  1.00  0.00    -0.389 A  
HETATM   14  C   UNL     1     -11.420  11.065  67.870  1.00  0.00    -0.358 A  
HETATM   15  C   UNL     1     -11.474  11.473  69.204  1.00  0.00    -0.362 A  
HETATM   16  C   UNL     1     -11.723  12.824  69.452  1.00  0.00    -0.319 A  
HETATM   17  C   UNL     1     -11.921  13.757  68.433  1.00  0.00    -0.395 A  
HETATM   18  C   UNL     1     -12.144  15.015  69.069  1.00  0.00    -0.243 A  
HETATM   19  C   UNL     1     -12.071  14.824  70.429  1.00  0.00    -0.321 A  
HETATM   20  N   UNL     1     -11.816  13.498  70.650  1.00  0.00    -0.530 NA 
HETATM   21  H   UNL     1     -11.709  13.071  71.570  1.00  0.00     0.000 HD 
ENDBRANCH  11  12
ENDBRANCH  10  11
ENDBRANCH   7  10
ENDBRANCH   6   7
ENDBRANCH   4   6
ENDBRANCH   2   4
TORSDOF 6
ENDMDL
MODEL       26
REMARK 921   NORMALIZED FREE ENERGY PREDICTED BY IDOCK:   -5.46 KCAL/MOL
REMARK 922        TOTAL FREE ENERGY PREDICTED BY IDOCK:   -7.76 KCAL/MOL
REMARK 923 INTER-LIGAND FREE ENERGY PREDICTED BY IDOCK:   -7.09 KCAL/MOL
REMARK 924 INTRA-LIGAND FREE ENERGY PREDICTED BY IDOCK:   -0.67 KCAL/MOL
REMARK 927      BINDING AFFINITY PREDICTED BY RF-SCORE:    0.00 PKD
ROOT
HETATM    1  C   UNL     1     -13.393  13.569  72.256  1.00  0.00    -0.628 C  
HETATM    2  C   UNL     1     -12.908  13.848  70.832  1.00  0.00    -0.300 C  
HETATM    3  C   UNL     1     -12.422  15.297  70.734  1.00  0.00    -0.457 C  
ENDROOT
BRANCH   2   4
HETATM    4  N   UNL     1     -11.845  12.890  70.514  1.00  0.00    -0.535 NA 
HETATM    5  H   UNL     1     -11.048  13.014  71.139  1.00  0.00     0.000 HD 
BRANCH   4   6
HETATM    6  C   UNL     1     -12.293  11.495  70.518  1.00  0.00    -0.342 C  
BRANCH   6   7
HETATM    7  C   UNL     1     -11.244  10.570  69.869  1.00  0.00    -0.307 C  
HETATM    8  H   UNL     1     -10.759   8.675  70.000  1.00  0.00     0.000 HD 
HETATM    9  O   UNL     1     -11.405   9.244  70.399  1.00  0.00    -0.258 OA 
BRANCH   7  10
HETATM   10  C   UNL     1     -11.420  10.614  68.341  1.00  0.00    -0.259 C  
BRANCH  10  11
HETATM   11  O   UNL     1     -10.656  11.684  67.783  1.00  0.00    -0.184 OA 
BRANCH  11  12
HETATM   12  C   UNL     1     -11.200  12.295  66.678  1.00  0.00    -0.316 A  
HETATM   13  C   UNL     1     -12.077  13.392  66.729  1.00  0.00    -0.419 A  
HETATM   14  C   UNL     1     -12.568  13.986  65.565  1.00  0.00    -0.543 A  
HETATM   15  C   UNL     1     -12.199  13.513  64.305  1.00  0.00    -0.450 A  
HETATM   16  C   UNL     1     -11.320  12.430  64.257  1.00  0.00    -0.360 A  
HETATM   17  C   UNL     1     -10.814  11.815  65.404  1.00  0.00    -0.347 A  
HETATM   18  C   UNL     1      -9.961  10.761  64.960  1.00  0.00    -0.361 A  
HETATM   19  C   UNL     1      -9.962  10.763  63.585  1.00  0.00    -0.345 A  
HETATM   20  N   UNL     1     -10.785  11.774  63.170  1.00  0.00    -0.676 NA 
HETATM   21  H   UNL     1     -10.974  12.009  62.196  1.00  0.00     0.000 HD 
ENDBRANCH  11  12
ENDBRANCH  10  11
ENDBRANCH   7  10
ENDBRANCH   6   7
ENDBRANCH   4   6
ENDBRANCH   2   4
TORSDOF 6
ENDMDL
MODEL       27
REMARK 921   NORMALIZED FREE ENERGY PREDICTED BY IDOCK:   -5.45 KCAL/MOL
REMARK 922        TOTAL FREE ENERGY PREDICTED BY IDOCK:   -7.74 KCAL/MOL
REMARK 923 INTER-LIGAND FREE ENERGY PREDICTED BY IDOCK:   -7.26 KCAL/MOL
REMARK 924 INTRA-LIGAND FREE ENERGY PREDICTED BY IDOCK:   -0.48 KCAL/MOL
REMARK 927      BINDING AFFINITY PREDICTED BY RF-SCORE:    0.00 PKD
ROOT
HETATM    1  C   UNL     1     -12.322   8.840  72.309  1.00  0.00    -0.448 C  
HETATM    2  C   UNL     1     -12.757   9.715  71.131  1.00  0.00    -0.320 C  
HETATM    3  C   UNL     1     -12.927  11.161  71.605  1.00  0.00    -0.548 C  
ENDROOT
BRANCH   2   4
HETATM    4  N   UNL     1     -11.746   9.599  70.076  1.00  0.00    -0.443 NA 
HETATM    5  H   UNL     1     -12.178   9.338  69.189  1.00  0.00     0.000 HD 
BRANCH   4   6
HETATM    6  C   UNL     1     -10.923  10.800  69.918  1.00  0.00    -0.239 C  
BRANCH   6   7
HETATM    7  C   UNL     1     -10.823  11.218  68.437  1.00  0.00    -0.205 C  
HETATM    8  H   UNL     1     -12.068  11.402  66.934  1.00  0.00     0.000 HD 
HETATM    9  O   UNL     1     -12.129  11.146  67.846  1.00  0.00    -0.627 OA 
BRANCH   7  10
HETATM   10  C   UNL     1     -10.224  12.634  68.361  1.00  0.00    -0.232 C  
BRANCH  10  11
HETATM   11  O   UNL     1      -9.642  12.859  67.076  1.00  0.00    -0.218 OA 
BRANCH  11  12
HETATM   12  C   UNL     1     -10.161  13.910  66.359  1.00  0.00    -0.292 A  
HETATM   13  C   UNL     1      -9.857  15.261  66.598  1.00  0.00    -0.263 A  
HETATM   14  C   UNL     1     -10.395  16.280  65.810  1.00  0.00    -0.393 A  
HETATM   15  C   UNL     1     -11.255  15.990  64.749  1.00  0.00    -0.348 A  
HETATM   16  C   UNL     1     -11.548  14.647  64.508  1.00  0.00    -0.370 A  
HETATM   17  C   UNL     1     -11.024  13.607  65.280  1.00  0.00    -0.314 A  
HETATM   18  C   UNL     1     -11.543  12.394  64.737  1.00  0.00    -0.395 A  
HETATM   19  C   UNL     1     -12.346  12.715  63.668  1.00  0.00    -0.492 A  
HETATM   20  N   UNL     1     -12.341  14.077  63.537  1.00  0.00    -1.118 NA 
HETATM   21  H   UNL     1     -12.852  14.595  62.822  1.00  0.00     0.000 HD 
ENDBRANCH  11  12
ENDBRANCH  10  11
ENDBRANCH   7  10
ENDBRANCH   6   7
ENDBRANCH   4   6
ENDBRANCH   2   4
TORSDOF 6
ENDMDL
MODEL       28
REMARK 921   NORMALIZED FREE ENERGY PREDICTED BY IDOCK:   -5.43 KCAL/MOL
REMARK 922        TOTAL FREE ENERGY PREDICTED BY IDOCK:   -7.71 KCAL/MOL
REMARK 923 INTER-LIGAND FREE ENERGY PREDICTED BY IDOCK:   -7.37 KCAL/MOL
REMARK 924 INTRA-LIGAND FREE ENERGY PREDICTED BY IDOCK:   -0.35 KCAL/MOL
REMARK 927      BINDING AFFINITY PREDICTED BY RF-SCORE:    0.00 PKD
ROOT
HETATM    1  C   UNL     1     -14.298   7.349  71.627  1.00  0.00    -0.614 C  
HETATM    2  C   UNL     1     -13.166   8.333  71.930  1.00  0.00    -0.344 C  
HETATM    3  C   UNL     1     -11.898   7.556  72.295  1.00  0.00    -0.331 C  
ENDROOT
BRANCH   2   4
HETATM    4  N   UNL     1     -12.969   9.183  70.752  1.00  0.00    -0.500 NA 
HETATM    5  H   UNL     1     -13.866   9.492  70.376  1.00  0.00     0.000 HD 
BRANCH   4   6
HETATM    6  C   UNL     1     -12.088  10.327  70.996  1.00  0.00    -0.386 C  
BRANCH   6   7
HETATM    7  C   UNL     1     -12.332  11.449  69.967  1.00  0.00    -0.237 C  
HETATM    8  H   UNL     1     -12.408  13.408  70.004  1.00  0.00     0.000 HD 
HETATM    9  O   UNL     1     -12.258  12.717  70.638  1.00  0.00    -0.374 OA 
BRANCH   7  10
HETATM   10  C   UNL     1     -11.292  11.323  68.839  1.00  0.00    -0.275 C  
BRANCH  10  11
HETATM   11  O   UNL     1     -11.934  11.365  67.564  1.00  0.00    -0.626 OA 
BRANCH  11  12
HETATM   12  C   UNL     1     -11.589  12.421  66.754  1.00  0.00    -0.379 A  
HETATM   13  C   UNL     1     -11.798  13.772  67.080  1.00  0.00    -0.445 A  
HETATM   14  C   UNL     1     -11.392  14.799  66.225  1.00  0.00    -0.334 A  
HETATM   15  C   UNL     1     -10.757  14.517  65.014  1.00  0.00    -0.444 A  
HETATM   16  C   UNL     1     -10.541  13.175  64.699  1.00  0.00    -0.392 A  
HETATM   17  C   UNL     1     -10.937  12.128  65.534  1.00  0.00    -0.343 A  
HETATM   18  C   UNL     1     -10.552  10.918  64.882  1.00  0.00    -0.304 A  
HETATM   19  C   UNL     1      -9.938  11.249  63.697  1.00  0.00    -0.359 A  
HETATM   20  N   UNL     1      -9.936  12.614  63.596  1.00  0.00    -0.678 NA 
HETATM   21  H   UNL     1      -9.542  13.140  62.815  1.00  0.00     0.000 HD 
ENDBRANCH  11  12
ENDBRANCH  10  11
ENDBRANCH   7  10
ENDBRANCH   6   7
ENDBRANCH   4   6
ENDBRANCH   2   4
TORSDOF 6
ENDMDL
MODEL       29
REMARK 921   NORMALIZED FREE ENERGY PREDICTED BY IDOCK:   -5.42 KCAL/MOL
REMARK 922        TOTAL FREE ENERGY PREDICTED BY IDOCK:   -7.70 KCAL/MOL
REMARK 923 INTER-LIGAND FREE ENERGY PREDICTED BY IDOCK:   -7.25 KCAL/MOL
REMARK 924 INTRA-LIGAND FREE ENERGY PREDICTED BY IDOCK:   -0.45 KCAL/MOL
REMARK 927      BINDING AFFINITY PREDICTED BY RF-SCORE:    0.00 PKD
ROOT
HETATM    1  C   UNL     1     -12.378  15.322  74.376  1.00  0.00    -0.710 C  
HETATM    2  C   UNL     1     -13.136  15.510  73.059  1.00  0.00    -0.524 C  
HETATM    3  C   UNL     1     -12.228  16.212  72.045  1.00  0.00    -0.524 C  
ENDROOT
BRANCH   2   4
HETATM    4  N   UNL     1     -13.570  14.191  72.587  1.00  0.00    -0.611 NA 
HETATM    5  H   UNL     1     -14.548  14.027  72.827  1.00  0.00     0.000 HD 
BRANCH   4   6
HETATM    6  C   UNL     1     -13.343  13.979  71.156  1.00  0.00    -0.223 C  
BRANCH   6   7
HETATM    7  C   UNL     1     -12.208  12.963  70.916  1.00  0.00    -0.198 C  
HETATM    8  H   UNL     1     -12.033  11.010  70.932  1.00  0.00     0.000 HD 
HETATM    9  O   UNL     1     -12.732  11.635  71.080  1.00  0.00    -0.356 OA 
BRANCH   7  10
HETATM   10  C   UNL     1     -11.627  13.192  69.509  1.00  0.00    -0.283 C  
BRANCH  10  11
HETATM   11  O   UNL     1     -12.392  14.174  68.809  1.00  0.00    -0.272 OA 
BRANCH  11  12
HETATM   12  C   UNL     1     -11.686  14.981  67.948  1.00  0.00    -0.289 A  
HETATM   13  C   UNL     1     -10.974  16.127  68.341  1.00  0.00    -0.341 A  
HETATM   14  C   UNL     1     -10.249  16.885  67.419  1.00  0.00    -0.298 A  
HETATM   15  C   UNL     1     -10.202  16.526  66.071  1.00  0.00    -0.372 A  
HETATM   16  C   UNL     1     -10.902  15.381  65.687  1.00  0.00    -0.355 A  
HETATM   17  C   UNL     1     -11.636  14.605  66.586  1.00  0.00    -0.359 A  
HETATM   18  C   UNL     1     -12.204  13.534  65.833  1.00  0.00    -0.507 A  
HETATM   19  C   UNL     1     -11.806  13.676  64.524  1.00  0.00    -0.412 A  
HETATM   20  N   UNL     1     -11.020  14.793  64.446  1.00  0.00    -0.618 NA 
HETATM   21  H   UNL     1     -10.584  15.141  63.592  1.00  0.00     0.000 HD 
ENDBRANCH  11  12
ENDBRANCH  10  11
ENDBRANCH   7  10
ENDBRANCH   6   7
ENDBRANCH   4   6
ENDBRANCH   2   4
TORSDOF 6
ENDMDL
MODEL       30
REMARK 921   NORMALIZED FREE ENERGY PREDICTED BY IDOCK:   -5.41 KCAL/MOL
REMARK 922        TOTAL FREE ENERGY PREDICTED BY IDOCK:   -7.68 KCAL/MOL
REMARK 923 INTER-LIGAND FREE ENERGY PREDICTED BY IDOCK:   -7.11 KCAL/MOL
REMARK 924 INTRA-LIGAND FREE ENERGY PREDICTED BY IDOCK:   -0.57 KCAL/MOL
REMARK 927      BINDING AFFINITY PREDICTED BY RF-SCORE:    0.00 PKD
ROOT
HETATM    1  C   UNL     1     -13.988  15.053  71.693  1.00  0.00    -0.594 C  
HETATM    2  C   UNL     1     -12.607  15.527  71.233  1.00  0.00    -0.447 C  
HETATM    3  C   UNL     1     -11.919  16.277  72.377  1.00  0.00    -0.630 C  
ENDROOT
BRANCH   2   4
HETATM    4  N   UNL     1     -11.839  14.354  70.804  1.00  0.00    -0.392 NA 
HETATM    5  H   UNL     1     -11.075  14.167  71.454  1.00  0.00     0.000 HD 
BRANCH   4   6
HETATM    6  C   UNL     1     -12.660  13.156  70.610  1.00  0.00    -0.211 C  
BRANCH   6   7
HETATM    7  C   UNL     1     -11.808  11.970  70.117  1.00  0.00    -0.301 C  
HETATM    8  H   UNL     1     -12.123  10.080  69.701  1.00  0.00     0.000 HD 
HETATM    9  O   UNL     1     -12.648  10.810  70.005  1.00  0.00    -0.308 OA 
BRANCH   7  10
HETATM   10  C   UNL     1     -11.156  12.351  68.775  1.00  0.00    -0.262 C  
BRANCH  10  11
HETATM   11  O   UNL     1     -12.157  12.714  67.822  1.00  0.00    -0.362 OA 
BRANCH  11  12
HETATM   12  C   UNL     1     -11.762  13.603  66.850  1.00  0.00    -0.389 A  
HETATM   13  C   UNL     1     -11.190  14.860  67.109  1.00  0.00    -0.345 A  
HETATM   14  C   UNL     1     -10.782  15.701  66.072  1.00  0.00    -0.322 A  
HETATM   15  C   UNL     1     -10.922  15.319  64.737  1.00  0.00    -0.403 A  
HETATM   16  C   UNL     1     -11.481  14.065  64.484  1.00  0.00    -0.370 A  
HETATM   17  C   UNL     1     -11.900  13.203  65.500  1.00  0.00    -0.420 A  
HETATM   18  C   UNL     1     -12.409  12.035  64.860  1.00  0.00    -0.106 A  
HETATM   19  C   UNL     1     -12.285  12.205  63.501  1.00  0.00    -0.567 A  
HETATM   20  N   UNL     1     -11.723  13.433  63.284  1.00  0.00    -0.686 NA 
HETATM   21  H   UNL     1     -11.513  13.824  62.365  1.00  0.00     0.000 HD 
ENDBRANCH  11  12
ENDBRANCH  10  11
ENDBRANCH   7  10
ENDBRANCH   6   7
ENDBRANCH   4   6
ENDBRANCH   2   4
TORSDOF 6
ENDMDL
MODEL       31
REMARK 921   NORMALIZED FREE ENERGY PREDICTED BY IDOCK:   -5.40 KCAL/MOL
REMARK 922        TOTAL FREE ENERGY PREDICTED BY IDOCK:   -7.67 KCAL/MOL
REMARK 923 INTER-LIGAND FREE ENERGY PREDICTED BY IDOCK:   -6.91 KCAL/MOL
REMARK 924 INTRA-LIGAND FREE ENERGY PREDICTED BY IDOCK:   -0.76 KCAL/MOL
REMARK 927      BINDING AFFINITY PREDICTED BY RF-SCORE:    0.00 PKD
ROOT
HETATM    1  C   UNL     1     -10.313  17.372  66.184  1.00  0.00    -0.329 C  
HETATM    2  C   UNL     1     -10.161  16.166  67.114  1.00  0.00    -0.281 C  
HETATM    3  C   UNL     1     -11.122  16.311  68.298  1.00  0.00    -0.346 C  
ENDROOT
BRANCH   2   4
HETATM    4  N   UNL     1     -10.426  14.951  66.338  1.00  0.00    -0.290 NA 
HETATM    5  H   UNL     1      -9.697  14.256  66.496  1.00  0.00     0.000 HD 
BRANCH   4   6
HETATM    6  C   UNL     1     -11.752  14.378  66.582  1.00  0.00    -0.394 C  
BRANCH   6   7
HETATM    7  C   UNL     1     -11.716  12.838  66.504  1.00  0.00    -0.400 C  
HETATM    8  H   UNL     1     -11.208  11.503  65.161  1.00  0.00     0.000 HD 
HETATM    9  O   UNL     1     -11.230  12.450  65.210  1.00  0.00    -0.299 OA 
BRANCH   7  10
HETATM   10  C   UNL     1     -10.831  12.303  67.645  1.00  0.00    -0.225 C  
BRANCH  10  11
HETATM   11  O   UNL     1     -11.143  12.969  68.870  1.00  0.00    -0.252 OA 
BRANCH  11  12
HETATM   12  C   UNL     1     -11.781  12.206  69.819  1.00  0.00    -0.310 A  
HETATM   13  C   UNL     1     -11.715  10.804  69.887  1.00  0.00    -0.412 A  
HETATM   14  C   UNL     1     -12.363  10.093  70.899  1.00  0.00    -0.461 A  
HETATM   15  C   UNL     1     -13.097  10.753  71.885  1.00  0.00    -0.557 A  
HETATM   16  C   UNL     1     -13.152  12.146  71.822  1.00  0.00    -0.352 A  
HETATM   17  C   UNL     1     -12.516  12.884  70.821  1.00  0.00    -0.370 A  
HETATM   18  C   UNL     1     -12.796  14.257  71.086  1.00  0.00    -0.429 A  
HETATM   19  C   UNL     1     -13.572  14.323  72.219  1.00  0.00    -0.478 A  
HETATM   20  N   UNL     1     -13.781  13.043  72.656  1.00  0.00    -0.725 NA 
HETATM   21  H   UNL     1     -14.324  12.791  73.482  1.00  0.00     0.000 HD 
ENDBRANCH  11  12
ENDBRANCH  10  11
ENDBRANCH   7  10
ENDBRANCH   6   7
ENDBRANCH   4   6
ENDBRANCH   2   4
TORSDOF 6
ENDMDL
MODEL       32
REMARK 921   NORMALIZED FREE ENERGY PREDICTED BY IDOCK:   -5.40 KCAL/MOL
REMARK 922        TOTAL FREE ENERGY PREDICTED BY IDOCK:   -7.67 KCAL/MOL
REMARK 923 INTER-LIGAND FREE ENERGY PREDICTED BY IDOCK:   -7.34 KCAL/MOL
REMARK 924 INTRA-LIGAND FREE ENERGY PREDICTED BY IDOCK:   -0.33 KCAL/MOL
REMARK 927      BINDING AFFINITY PREDICTED BY RF-SCORE:    0.00 PKD
ROOT
HETATM    1  C   UNL     1      -9.276  18.331  68.129  1.00  0.00    -0.313 C  
HETATM    2  C   UNL     1     -10.225  18.911  67.078  1.00  0.00    -0.378 C  
HETATM    3  C   UNL     1      -9.879  20.383  66.835  1.00  0.00    -0.572 C  
ENDROOT
BRANCH   2   4
HETATM    4  N   UNL     1     -10.102  18.109  65.857  1.00  0.00    -0.583 NA 
HETATM    5  H   UNL     1      -9.264  18.370  65.338  1.00  0.00     0.000 HD 
BRANCH   4   6
HETATM    6  C   UNL     1     -10.133  16.665  66.100  1.00  0.00    -0.345 C  
BRANCH   6   7
HETATM    7  C   UNL     1     -11.151  15.965  65.177  1.00  0.00    -0.311 C  
HETATM    8  H   UNL     1     -11.925  16.312  63.409  1.00  0.00     0.000 HD 
HETATM    9  O   UNL     1     -11.299  16.742  63.978  1.00  0.00    -1.153 OA 
BRANCH   7  10
HETATM   10  C   UNL     1     -10.659  14.535  64.890  1.00  0.00    -0.427 C  
BRANCH  10  11
HETATM   11  O   UNL     1     -10.249  13.898  66.100  1.00  0.00    -0.285 OA 
BRANCH  11  12
HETATM   12  C   UNL     1     -10.294  12.524  66.098  1.00  0.00    -0.253 A  
HETATM   13  C   UNL     1      -9.697  11.712  65.120  1.00  0.00    -0.245 A  
HETATM   14  C   UNL     1      -9.753  10.319  65.196  1.00  0.00    -0.364 A  
HETATM   15  C   UNL     1     -10.404   9.682  66.253  1.00  0.00    -0.230 A  
HETATM   16  C   UNL     1     -10.987  10.491  67.229  1.00  0.00    -0.260 A  
HETATM   17  C   UNL     1     -10.948  11.886  67.179  1.00  0.00    -0.319 A  
HETATM   18  C   UNL     1     -11.642  12.356  68.333  1.00  0.00    -0.373 A  
HETATM   19  C   UNL     1     -12.072  11.263  69.047  1.00  0.00    -0.257 A  
HETATM   20  N   UNL     1     -11.671  10.141  68.373  1.00  0.00    -0.667 NA 
HETATM   21  H   UNL     1     -11.853   9.184  68.674  1.00  0.00     0.000 HD 
ENDBRANCH  11  12
ENDBRANCH  10  11
ENDBRANCH   7  10
ENDBRANCH   6   7
ENDBRANCH   4   6
ENDBRANCH   2   4
TORSDOF 6
ENDMDL
MODEL       33
REMARK 921   NORMALIZED FREE ENERGY PREDICTED BY IDOCK:   -5.38 KCAL/MOL
REMARK 922        TOTAL FREE ENERGY PREDICTED BY IDOCK:   -7.65 KCAL/MOL
REMARK 923 INTER-LIGAND FREE ENERGY PREDICTED BY IDOCK:   -7.26 KCAL/MOL
REMARK 924 INTRA-LIGAND FREE ENERGY PREDICTED BY IDOCK:   -0.38 KCAL/MOL
REMARK 927      BINDING AFFINITY PREDICTED BY RF-SCORE:    0.00 PKD
ROOT
HETATM    1  C   UNL     1     -10.546   5.746  71.194  1.00  0.00    -0.315 C  
HETATM    2  C   UNL     1     -11.534   5.344  72.292  1.00  0.00    -0.090 C  
HETATM    3  C   UNL     1     -10.788   5.203  73.622  1.00  0.00    -0.363 C  
ENDROOT
BRANCH   2   4
HETATM    4  N   UNL     1     -12.586   6.363  72.358  1.00  0.00    -0.543 NA 
HETATM    5  H   UNL     1     -12.651   6.753  73.298  1.00  0.00     0.000 HD 
BRANCH   4   6
HETATM    6  C   UNL     1     -12.432   7.428  71.364  1.00  0.00    -0.368 C  
BRANCH   6   7
HETATM    7  C   UNL     1     -12.264   8.803  72.041  1.00  0.00    -0.377 C  
HETATM    8  H   UNL     1     -10.782  10.044  72.369  1.00  0.00     0.000 HD 
HETATM    9  O   UNL     1     -10.886   9.198  71.952  1.00  0.00    -0.359 OA 
BRANCH   7  10
HETATM   10  C   UNL     1     -13.206   9.811  71.359  1.00  0.00    -0.398 C  
BRANCH  10  11
HETATM   11  O   UNL     1     -13.043  11.110  71.930  1.00  0.00    -0.488 OA 
BRANCH  11  12
HETATM   12  C   UNL     1     -12.651  12.101  71.061  1.00  0.00    -0.263 A  
HETATM   13  C   UNL     1     -11.868  11.886  69.914  1.00  0.00    -0.418 A  
HETATM   14  C   UNL     1     -11.533  12.934  69.055  1.00  0.00    -0.358 A  
HETATM   15  C   UNL     1     -11.969  14.236  69.304  1.00  0.00    -0.375 A  
HETATM   16  C   UNL     1     -12.755  14.444  70.438  1.00  0.00    -0.304 A  
HETATM   17  C   UNL     1     -13.105  13.416  71.316  1.00  0.00    -0.317 A  
HETATM   18  C   UNL     1     -13.902  14.007  72.341  1.00  0.00    -0.653 A  
HETATM   19  C   UNL     1     -14.021  15.349  72.067  1.00  0.00    -0.539 A  
HETATM   20  N   UNL     1     -13.326  15.603  70.916  1.00  0.00    -0.734 NA 
HETATM   21  H   UNL     1     -13.244  16.520  70.475  1.00  0.00     0.000 HD 
ENDBRANCH  11  12
ENDBRANCH  10  11
ENDBRANCH   7  10
ENDBRANCH   6   7
ENDBRANCH   4   6
ENDBRANCH   2   4
TORSDOF 6
ENDMDL
MODEL       34
REMARK 921   NORMALIZED FREE ENERGY PREDICTED BY IDOCK:   -5.38 KCAL/MOL
REMARK 922        TOTAL FREE ENERGY PREDICTED BY IDOCK:   -7.65 KCAL/MOL
REMARK 923 INTER-LIGAND FREE ENERGY PREDICTED BY IDOCK:   -7.22 KCAL/MOL
REMARK 924 INTRA-LIGAND FREE ENERGY PREDICTED BY IDOCK:   -0.42 KCAL/MOL
REMARK 927      BINDING AFFINITY PREDICTED BY RF-SCORE:    0.00 PKD
ROOT
HETATM    1  C   UNL     1     -11.375   6.335  69.948  1.00  0.00    -0.504 C  
HETATM    2  C   UNL     1     -11.432   5.908  71.416  1.00  0.00    -0.121 C  
HETATM    3  C   UNL     1     -10.042   6.050  72.044  1.00  0.00    -0.215 C  
ENDROOT
BRANCH   2   4
HETATM    4  N   UNL     1     -12.430   6.740  72.097  1.00  0.00    -0.529 NA 
HETATM    5  H   UNL     1     -12.123   6.969  73.043  1.00  0.00     0.000 HD 
BRANCH   4   6
HETATM    6  C   UNL     1     -12.782   7.954  71.358  1.00  0.00    -0.292 C  
BRANCH   6   7
HETATM    7  C   UNL     1     -12.222   9.212  72.051  1.00  0.00    -0.373 C  
HETATM    8  H   UNL     1     -10.538  10.215  72.012  1.00  0.00     0.000 HD 
HETATM    9  O   UNL     1     -10.883   9.440  71.585  1.00  0.00    -0.368 OA 
BRANCH   7  10
HETATM   10  C   UNL     1     -13.155  10.400  71.753  1.00  0.00    -0.462 C  
BRANCH  10  11
HETATM   11  O   UNL     1     -12.482  11.371  70.950  1.00  0.00    -0.370 OA 
BRANCH  11  12
HETATM   12  C   UNL     1     -12.872  12.676  71.136  1.00  0.00    -0.220 A  
HETATM   13  C   UNL     1     -13.664  13.121  72.209  1.00  0.00    -0.647 A  
HETATM   14  C   UNL     1     -13.997  14.469  72.356  1.00  0.00    -0.580 A  
HETATM   15  C   UNL     1     -13.550  15.425  71.443  1.00  0.00    -0.604 A  
HETATM   16  C   UNL     1     -12.756  14.981  70.385  1.00  0.00    -0.325 A  
HETATM   17  C   UNL     1     -12.407  13.639  70.212  1.00  0.00    -0.392 A  
HETATM   18  C   UNL     1     -11.600  13.576  69.037  1.00  0.00    -0.356 A  
HETATM   19  C   UNL     1     -11.472  14.851  68.538  1.00  0.00    -0.315 A  
HETATM   20  N   UNL     1     -12.173  15.692  69.360  1.00  0.00    -0.551 NA 
HETATM   21  H   UNL     1     -12.251  16.701  69.231  1.00  0.00     0.000 HD 
ENDBRANCH  11  12
ENDBRANCH  10  11
ENDBRANCH   7  10
ENDBRANCH   6   7
ENDBRANCH   4   6
ENDBRANCH   2   4
TORSDOF 6
ENDMDL
MODEL       35
REMARK 921   NORMALIZED FREE ENERGY PREDICTED BY IDOCK:   -5.38 KCAL/MOL
REMARK 922        TOTAL FREE ENERGY PREDICTED BY IDOCK:   -7.65 KCAL/MOL
REMARK 923 INTER-LIGAND FREE ENERGY PREDICTED BY IDOCK:   -7.08 KCAL/MOL
REMARK 924 INTRA-LIGAND FREE ENERGY PREDICTED BY IDOCK:   -0.57 KCAL/MOL
REMARK 927      BINDING AFFINITY PREDICTED BY RF-SCORE:    0.00 PKD
ROOT
HETATM    1  C   UNL     1     -12.439  14.256  64.806  1.00  0.00    -0.390 C  
HETATM    2  C   UNL     1     -12.393  12.730  64.908  1.00  0.00    -0.490 C  
HETATM    3  C   UNL     1     -11.378  12.182  63.901  1.00  0.00    -0.501 C  
ENDROOT
BRANCH   2   4
HETATM    4  N   UNL     1     -12.048  12.372  66.287  1.00  0.00    -0.630 NA 
HETATM    5  H   UNL     1     -11.387  11.595  66.303  1.00  0.00     0.000 HD 
BRANCH   4   6
HETATM    6  C   UNL     1     -11.542  13.499  67.075  1.00  0.00    -0.359 C  
BRANCH   6   7
HETATM    7  C   UNL     1     -10.739  13.009  68.296  1.00  0.00    -0.245 C  
HETATM    8  H   UNL     1      -9.575  13.832  69.644  1.00  0.00     0.000 HD 
HETATM    9  O   UNL     1     -10.070  14.133  68.892  1.00  0.00    -0.220 OA 
BRANCH   7  10
HETATM   10  C   UNL     1     -11.700  12.315  69.277  1.00  0.00    -0.330 C  
BRANCH  10  11
HETATM   11  O   UNL     1     -11.746  10.911  69.019  1.00  0.00    -0.295 OA 
BRANCH  11  12
HETATM   12  C   UNL     1     -11.226  10.104  70.004  1.00  0.00    -0.299 A  
HETATM   13  C   UNL     1      -9.869   9.758  70.112  1.00  0.00    -0.306 A  
HETATM   14  C   UNL     1      -9.402   8.960  71.158  1.00  0.00    -0.326 A  
HETATM   15  C   UNL     1     -10.271   8.479  72.139  1.00  0.00    -0.403 A  
HETATM   16  C   UNL     1     -11.617   8.833  72.034  1.00  0.00    -0.366 A  
HETATM   17  C   UNL     1     -12.112   9.629  70.999  1.00  0.00    -0.421 A  
HETATM   18  C   UNL     1     -13.513   9.771  71.228  1.00  0.00    -0.362 A  
HETATM   19  C   UNL     1     -13.830   9.080  72.373  1.00  0.00    -0.475 A  
HETATM   20  N   UNL     1     -12.679   8.518  72.853  1.00  0.00    -0.658 NA 
HETATM   21  H   UNL     1     -12.616   7.948  73.697  1.00  0.00     0.000 HD 
ENDBRANCH  11  12
ENDBRANCH  10  11
ENDBRANCH   7  10
ENDBRANCH   6   7
ENDBRANCH   4   6
ENDBRANCH   2   4
TORSDOF 6
ENDMDL
MODEL       36
REMARK 921   NORMALIZED FREE ENERGY PREDICTED BY IDOCK:   -5.37 KCAL/MOL
REMARK 922        TOTAL FREE ENERGY PREDICTED BY IDOCK:   -7.64 KCAL/MOL
REMARK 923 INTER-LIGAND FREE ENERGY PREDICTED BY IDOCK:   -6.96 KCAL/MOL
REMARK 924 INTRA-LIGAND FREE ENERGY PREDICTED BY IDOCK:   -0.68 KCAL/MOL
REMARK 927      BINDING AFFINITY PREDICTED BY RF-SCORE:    0.00 PKD
ROOT
HETATM    1  C   UNL     1     -13.683  14.057  72.378  1.00  0.00    -0.669 C  
HETATM    2  C   UNL     1     -13.418  15.562  72.293  1.00  0.00    -0.499 C  
HETATM    3  C   UNL     1     -12.536  15.992  73.468  1.00  0.00    -0.682 C  
ENDROOT
BRANCH   2   4
HETATM    4  N   UNL     1     -12.786  15.844  71.000  1.00  0.00    -0.579 NA 
HETATM    5  H   UNL     1     -12.786  16.847  70.811  1.00  0.00     0.000 HD 
BRANCH   4   6
HETATM    6  C   UNL     1     -11.436  15.292  70.876  1.00  0.00    -0.339 C  
BRANCH   6   7
HETATM    7  C   UNL     1     -11.166  14.793  69.442  1.00  0.00    -0.284 C  
HETATM    8  H   UNL     1     -11.900  13.405  68.268  1.00  0.00     0.000 HD 
HETATM    9  O   UNL     1     -12.066  13.712  69.151  1.00  0.00    -0.345 OA 
BRANCH   7  10
HETATM   10  C   UNL     1     -11.335  15.972  68.467  1.00  0.00    -0.382 C  
BRANCH  10  11
HETATM   11  O   UNL     1     -10.745  17.154  69.009  1.00  0.00    -0.309 OA 
BRANCH  11  12
HETATM   12  C   UNL     1      -9.599  17.591  68.389  1.00  0.00    -0.303 A  
HETATM   13  C   UNL     1      -8.307  17.126  68.690  1.00  0.00    -0.257 A  
HETATM   14  C   UNL     1      -7.187  17.589  67.997  1.00  0.00    -0.206 A  
HETATM   15  C   UNL     1      -7.312  18.528  66.973  1.00  0.00    -0.224 A  
HETATM   16  C   UNL     1      -8.597  18.980  66.669  1.00  0.00    -0.313 A  
HETATM   17  C   UNL     1      -9.735  18.536  67.346  1.00  0.00    -0.318 A  
HETATM   18  C   UNL     1     -10.847  19.214  66.762  1.00  0.00    -0.404 A  
HETATM   19  C   UNL     1     -10.372  20.030  65.762  1.00  0.00    -0.369 A  
HETATM   20  N   UNL     1      -9.013  19.881  65.713  1.00  0.00    -0.474 NA 
HETATM   21  H   UNL     1      -8.396  20.367  65.062  1.00  0.00     0.000 HD 
ENDBRANCH  11  12
ENDBRANCH  10  11
ENDBRANCH   7  10
ENDBRANCH   6   7
ENDBRANCH   4   6
ENDBRANCH   2   4
TORSDOF 6
ENDMDL
MODEL       37
REMARK 921   NORMALIZED FREE ENERGY PREDICTED BY IDOCK:   -5.37 KCAL/MOL
REMARK 922        TOTAL FREE ENERGY PREDICTED BY IDOCK:   -7.63 KCAL/MOL
REMARK 923 INTER-LIGAND FREE ENERGY PREDICTED BY IDOCK:   -7.25 KCAL/MOL
REMARK 924 INTRA-LIGAND FREE ENERGY PREDICTED BY IDOCK:   -0.38 KCAL/MOL
REMARK 927      BINDING AFFINITY PREDICTED BY RF-SCORE:    0.00 PKD
ROOT
HETATM    1  C   UNL     1     -10.473  19.456  65.936  1.00  0.00    -0.561 C  
HETATM    2  C   UNL     1      -9.315  18.786  66.679  1.00  0.00    -0.329 C  
HETATM    3  C   UNL     1      -9.360  19.184  68.157  1.00  0.00    -0.388 C  
ENDROOT
BRANCH   2   4
HETATM    4  N   UNL     1      -9.431  17.336  66.496  1.00  0.00    -0.260 NA 
HETATM    5  H   UNL     1      -8.541  16.877  66.691  1.00  0.00     0.000 HD 
BRANCH   4   6
HETATM    6  C   UNL     1     -10.509  16.732  67.281  1.00  0.00    -0.310 C  
BRANCH   6   7
HETATM    7  C   UNL     1     -10.742  15.264  66.871  1.00  0.00    -0.313 C  
HETATM    8  H   UNL     1      -9.630  13.664  66.653  1.00  0.00     0.000 HD 
HETATM    9  O   UNL     1      -9.487  14.567  66.906  1.00  0.00    -0.231 OA 
BRANCH   7  10
HETATM   10  C   UNL     1     -11.782  14.642  67.821  1.00  0.00    -0.359 C  
BRANCH  10  11
HETATM   11  O   UNL     1     -11.163  14.250  69.047  1.00  0.00    -0.243 OA 
BRANCH  11  12
HETATM   12  C   UNL     1     -11.955  14.327  70.168  1.00  0.00    -0.326 A  
HETATM   13  C   UNL     1     -12.415  15.528  70.734  1.00  0.00    -0.491 A  
HETATM   14  C   UNL     1     -13.246  15.533  71.857  1.00  0.00    -0.553 A  
HETATM   15  C   UNL     1     -13.653  14.340  72.455  1.00  0.00    -0.620 A  
HETATM   16  C   UNL     1     -13.203  13.149  71.885  1.00  0.00    -0.431 A  
HETATM   17  C   UNL     1     -12.371  13.113  70.763  1.00  0.00    -0.404 A  
HETATM   18  C   UNL     1     -12.128  11.736  70.479  1.00  0.00    -0.439 A  
HETATM   19  C   UNL     1     -12.807  10.983  71.407  1.00  0.00    -0.443 A  
HETATM   20  N   UNL     1     -13.453  11.844  72.251  1.00  0.00    -0.548 NA 
HETATM   21  H   UNL     1     -14.037  11.561  73.038  1.00  0.00     0.000 HD 
ENDBRANCH  11  12
ENDBRANCH  10  11
ENDBRANCH   7  10
ENDBRANCH   6   7
ENDBRANCH   4   6
ENDBRANCH   2   4
TORSDOF 6
ENDMDL
MODEL       38
REMARK 921   NORMALIZED FREE ENERGY PREDICTED BY IDOCK:   -5.37 KCAL/MOL
REMARK 922        TOTAL FREE ENERGY PREDICTED BY IDOCK:   -7.63 KCAL/MOL
REMARK 923 INTER-LIGAND FREE ENERGY PREDICTED BY IDOCK:   -7.02 KCAL/MOL
REMARK 924 INTRA-LIGAND FREE ENERGY PREDICTED BY IDOCK:   -0.61 KCAL/MOL
REMARK 927      BINDING AFFINITY PREDICTED BY RF-SCORE:    0.00 PKD
ROOT
HETATM    1  C   UNL     1     -10.934   9.382  71.193  1.00  0.00    -0.430 C  
HETATM    2  C   UNL     1     -12.028  10.356  70.750  1.00  0.00    -0.363 C  
HETATM    3  C   UNL     1     -12.980  10.620  71.921  1.00  0.00    -0.542 C  
ENDROOT
BRANCH   2   4
HETATM    4  N   UNL     1     -11.384  11.585  70.279  1.00  0.00    -0.491 NA 
HETATM    5  H   UNL     1     -11.055  11.475  69.319  1.00  0.00     0.000 HD 
BRANCH   4   6
HETATM    6  C   UNL     1     -12.230  12.774  70.404  1.00  0.00    -0.293 C  
BRANCH   6   7
HETATM    7  C   UNL     1     -11.909  13.806  69.303  1.00  0.00    -0.344 C  
HETATM    8  H   UNL     1     -11.043  15.563  69.222  1.00  0.00     0.000 HD 
HETATM    9  O   UNL     1     -11.240  14.928  69.899  1.00  0.00    -0.259 OA 
BRANCH   7  10
HETATM   10  C   UNL     1     -11.055  13.125  68.219  1.00  0.00    -0.266 C  
BRANCH  10  11
HETATM   11  O   UNL     1     -11.788  12.068  67.598  1.00  0.00    -0.512 OA 
BRANCH  11  12
HETATM   12  C   UNL     1     -11.169  11.453  66.536  1.00  0.00    -0.209 A  
HETATM   13  C   UNL     1     -10.349  10.317  66.645  1.00  0.00    -0.283 A  
HETATM   14  C   UNL     1      -9.776   9.722  65.519  1.00  0.00    -0.382 A  
HETATM   15  C   UNL     1     -10.003  10.234  64.241  1.00  0.00    -0.293 A  
HETATM   16  C   UNL     1     -10.826  11.356  64.135  1.00  0.00    -0.365 A  
HETATM   17  C   UNL     1     -11.412  11.973  65.243  1.00  0.00    -0.358 A  
HETATM   18  C   UNL     1     -12.172  13.072  64.744  1.00  0.00    -0.487 A  
HETATM   19  C   UNL     1     -12.041  13.095  63.376  1.00  0.00    -0.486 A  
HETATM   20  N   UNL     1     -11.227  12.055  63.017  1.00  0.00    -0.660 NA 
HETATM   21  H   UNL     1     -10.957  11.829  62.060  1.00  0.00     0.000 HD 
ENDBRANCH  11  12
ENDBRANCH  10  11
ENDBRANCH   7  10
ENDBRANCH   6   7
ENDBRANCH   4   6
ENDBRANCH   2   4
TORSDOF 6
ENDMDL
MODEL       39
REMARK 921   NORMALIZED FREE ENERGY PREDICTED BY IDOCK:   -5.37 KCAL/MOL
REMARK 922        TOTAL FREE ENERGY PREDICTED BY IDOCK:   -7.63 KCAL/MOL
REMARK 923 INTER-LIGAND FREE ENERGY PREDICTED BY IDOCK:   -7.26 KCAL/MOL
REMARK 924 INTRA-LIGAND FREE ENERGY PREDICTED BY IDOCK:   -0.37 KCAL/MOL
REMARK 927      BINDING AFFINITY PREDICTED BY RF-SCORE:    0.00 PKD
ROOT
HETATM    1  C   UNL     1     -14.370   8.149  71.684  1.00  0.00    -0.570 C  
HETATM    2  C   UNL     1     -13.153   9.019  72.006  1.00  0.00    -0.414 C  
HETATM    3  C   UNL     1     -12.029   8.139  72.561  1.00  0.00    -0.410 C  
ENDROOT
BRANCH   2   4
HETATM    4  N   UNL     1     -12.751   9.717  70.781  1.00  0.00    -0.519 NA 
HETATM    5  H   UNL     1     -13.192  10.635  70.728  1.00  0.00     0.000 HD 
BRANCH   4   6
HETATM    6  C   UNL     1     -11.299   9.828  70.621  1.00  0.00    -0.330 C  
BRANCH   6   7
HETATM    7  C   UNL     1     -10.937  10.616  69.346  1.00  0.00    -0.255 C  
HETATM    8  H   UNL     1     -10.587  10.179  67.467  1.00  0.00     0.000 HD 
HETATM    9  O   UNL     1     -10.810   9.694  68.252  1.00  0.00    -0.231 OA 
BRANCH   7  10
HETATM   10  C   UNL     1     -12.024  11.677  69.093  1.00  0.00    -0.313 C  
BRANCH  10  11
HETATM   11  O   UNL     1     -12.230  11.852  67.691  1.00  0.00    -0.510 OA 
BRANCH  11  12
HETATM   12  C   UNL     1     -11.811  13.054  67.170  1.00  0.00    -0.373 A  
HETATM   13  C   UNL     1     -11.238  14.090  67.927  1.00  0.00    -0.295 A  
HETATM   14  C   UNL     1     -10.804  15.275  67.330  1.00  0.00    -0.318 A  
HETATM   15  C   UNL     1     -10.920  15.470  65.952  1.00  0.00    -0.264 A  
HETATM   16  C   UNL     1     -11.480  14.435  65.202  1.00  0.00    -0.362 A  
HETATM   17  C   UNL     1     -11.924  13.240  65.773  1.00  0.00    -0.463 A  
HETATM   18  C   UNL     1     -12.426  12.439  64.704  1.00  0.00    -0.500 A  
HETATM   19  C   UNL     1     -12.274  13.145  63.534  1.00  0.00    -0.476 A  
HETATM   20  N   UNL     1     -11.701  14.348  63.845  1.00  0.00    -0.657 NA 
HETATM   21  H   UNL     1     -11.471  15.076  63.168  1.00  0.00     0.000 HD 
ENDBRANCH  11  12
ENDBRANCH  10  11
ENDBRANCH   7  10
ENDBRANCH   6   7
ENDBRANCH   4   6
ENDBRANCH   2   4
TORSDOF 6
ENDMDL
MODEL       40
REMARK 921   NORMALIZED FREE ENERGY PREDICTED BY IDOCK:   -5.37 KCAL/MOL
REMARK 922        TOTAL FREE ENERGY PREDICTED BY IDOCK:   -7.63 KCAL/MOL
REMARK 923 INTER-LIGAND FREE ENERGY PREDICTED BY IDOCK:   -6.84 KCAL/MOL
REMARK 924 INTRA-LIGAND FREE ENERGY PREDICTED BY IDOCK:   -0.79 KCAL/MOL
REMARK 927      BINDING AFFINITY PREDICTED BY RF-SCORE:    0.00 PKD
ROOT
HETATM    1  C   UNL     1     -11.840  11.108  69.271  1.00  0.00    -0.422 C  
HETATM    2  C   UNL     1     -11.024  11.209  67.980  1.00  0.00    -0.252 C  
HETATM    3  C   UNL     1     -10.627   9.804  67.517  1.00  0.00    -0.335 C  
ENDROOT
BRANCH   2   4
HETATM    4  N   UNL     1     -11.834  11.909  66.979  1.00  0.00    -0.613 NA 
HETATM    5  H   UNL     1     -12.110  12.830  67.319  1.00  0.00     0.000 HD 
BRANCH   4   6
HETATM    6  C   UNL     1     -11.185  12.012  65.670  1.00  0.00    -0.327 C  
BRANCH   6   7
HETATM    7  C   UNL     1     -11.931  13.003  64.754  1.00  0.00    -0.395 C  
HETATM    8  H   UNL     1     -13.737  13.151  64.006  1.00  0.00     0.000 HD 
HETATM    9  O   UNL     1     -13.278  12.541  64.570  1.00  0.00    -0.832 OA 
BRANCH   7  10
HETATM   10  C   UNL     1     -11.876  14.404  65.390  1.00  0.00    -0.366 C  
BRANCH  10  11
HETATM   11  O   UNL     1     -10.614  14.613  66.025  1.00  0.00    -0.290 OA 
BRANCH  11  12
HETATM   12  C   UNL     1     -10.473  15.803  66.699  1.00  0.00    -0.302 A  
HETATM   13  C   UNL     1     -10.056  17.006  66.105  1.00  0.00    -0.332 A  
HETATM   14  C   UNL     1      -9.965  18.188  66.843  1.00  0.00    -0.345 A  
HETATM   15  C   UNL     1     -10.291  18.217  68.199  1.00  0.00    -0.393 A  
HETATM   16  C   UNL     1     -10.714  17.022  68.784  1.00  0.00    -0.313 A  
HETATM   17  C   UNL     1     -10.814  15.825  68.072  1.00  0.00    -0.309 A  
HETATM   18  C   UNL     1     -11.273  14.838  68.994  1.00  0.00    -0.286 A  
HETATM   19  C   UNL     1     -11.445  15.445  70.216  1.00  0.00    -0.316 A  
HETATM   20  N   UNL     1     -11.106  16.763  70.079  1.00  0.00    -0.410 NA 
HETATM   21  H   UNL     1     -11.139  17.455  70.828  1.00  0.00     0.000 HD 
ENDBRANCH  11  12
ENDBRANCH  10  11
ENDBRANCH   7  10
ENDBRANCH   6   7
ENDBRANCH   4   6
ENDBRANCH   2   4
TORSDOF 6
ENDMDL
MODEL       41
REMARK 921   NORMALIZED FREE ENERGY PREDICTED BY IDOCK:   -5.35 KCAL/MOL
REMARK 922        TOTAL FREE ENERGY PREDICTED BY IDOCK:   -7.60 KCAL/MOL
REMARK 923 INTER-LIGAND FREE ENERGY PREDICTED BY IDOCK:   -7.32 KCAL/MOL
REMARK 924 INTRA-LIGAND FREE ENERGY PREDICTED BY IDOCK:   -0.28 KCAL/MOL
REMARK 927      BINDING AFFINITY PREDICTED BY RF-SCORE:    0.00 PKD
ROOT
HETATM    1  C   UNL     1     -14.295   7.551  71.816  1.00  0.00    -0.588 C  
HETATM    2  C   UNL     1     -13.364   8.740  72.067  1.00  0.00    -0.413 C  
HETATM    3  C   UNL     1     -11.967   8.226  72.426  1.00  0.00    -0.447 C  
ENDROOT
BRANCH   2   4
HETATM    4  N   UNL     1     -13.350   9.574  70.862  1.00  0.00    -0.589 NA 
HETATM    5  H   UNL     1     -14.096  10.268  70.895  1.00  0.00     0.000 HD 
BRANCH   4   6
HETATM    6  C   UNL     1     -12.057  10.214  70.609  1.00  0.00    -0.319 C  
BRANCH   6   7
HETATM    7  C   UNL     1     -12.179  11.313  69.534  1.00  0.00    -0.256 C  
HETATM    8  H   UNL     1     -11.806  13.235  69.430  1.00  0.00     0.000 HD 
HETATM    9  O   UNL     1     -11.730  12.558  70.091  1.00  0.00    -0.280 OA 
BRANCH   7  10
HETATM   10  C   UNL     1     -11.358  10.895  68.301  1.00  0.00    -0.308 C  
BRANCH  10  11
HETATM   11  O   UNL     1     -10.922  12.049  67.580  1.00  0.00    -0.229 OA 
BRANCH  11  12
HETATM   12  C   UNL     1     -10.878  11.917  66.212  1.00  0.00    -0.282 A  
HETATM   13  C   UNL     1     -10.276  10.841  65.537  1.00  0.00    -0.330 A  
HETATM   14  C   UNL     1     -10.296  10.753  64.144  1.00  0.00    -0.382 A  
HETATM   15  C   UNL     1     -10.921  11.732  63.370  1.00  0.00    -0.458 A  
HETATM   16  C   UNL     1     -11.526  12.794  64.043  1.00  0.00    -0.417 A  
HETATM   17  C   UNL     1     -11.521  12.909  65.435  1.00  0.00    -0.360 A  
HETATM   18  C   UNL     1     -12.228  14.108  65.748  1.00  0.00    -0.458 A  
HETATM   19  C   UNL     1     -12.644  14.678  64.568  1.00  0.00    -0.152 A  
HETATM   20  N   UNL     1     -12.216  13.877  63.544  1.00  0.00    -1.050 NA 
HETATM   21  H   UNL     1     -12.383  14.057  62.554  1.00  0.00     0.000 HD 
ENDBRANCH  11  12
ENDBRANCH  10  11
ENDBRANCH   7  10
ENDBRANCH   6   7
ENDBRANCH   4   6
ENDBRANCH   2   4
TORSDOF 6
ENDMDL
MODEL       42
REMARK 921   NORMALIZED FREE ENERGY PREDICTED BY IDOCK:   -5.35 KCAL/MOL
REMARK 922        TOTAL FREE ENERGY PREDICTED BY IDOCK:   -7.60 KCAL/MOL
REMARK 923 INTER-LIGAND FREE ENERGY PREDICTED BY IDOCK:   -7.14 KCAL/MOL
REMARK 924 INTRA-LIGAND FREE ENERGY PREDICTED BY IDOCK:   -0.46 KCAL/MOL
REMARK 927      BINDING AFFINITY PREDICTED BY RF-SCORE:    0.00 PKD
ROOT
HETATM    1  C   UNL     1     -12.225   7.521  71.620  1.00  0.00    -0.352 C  
HETATM    2  C   UNL     1     -11.118   7.505  70.564  1.00  0.00    -0.259 C  
HETATM    3  C   UNL     1     -11.268   6.257  69.688  1.00  0.00    -0.506 C  
ENDROOT
BRANCH   2   4
HETATM    4  N   UNL     1     -11.213   8.740  69.781  1.00  0.00    -0.439 NA 
HETATM    5  H   UNL     1     -12.049   8.733  69.195  1.00  0.00     0.000 HD 
BRANCH   4   6
HETATM    6  C   UNL     1     -11.163   9.956  70.597  1.00  0.00    -0.344 C  
BRANCH   6   7
HETATM    7  C   UNL     1     -12.110  11.039  70.043  1.00  0.00    -0.364 C  
HETATM    8  H   UNL     1     -13.192  12.490  70.798  1.00  0.00     0.000 HD 
HETATM    9  O   UNL     1     -12.609  11.823  71.139  1.00  0.00    -0.378 OA 
BRANCH   7  10
HETATM   10  C   UNL     1     -11.343  11.892  69.017  1.00  0.00    -0.279 C  
BRANCH  10  11
HETATM   11  O   UNL     1     -12.017  11.881  67.758  1.00  0.00    -0.559 OA 
BRANCH  11  12
HETATM   12  C   UNL     1     -11.281  11.428  66.689  1.00  0.00    -0.231 A  
HETATM   13  C   UNL     1     -10.320  10.405  66.764  1.00  0.00    -0.294 A  
HETATM   14  C   UNL     1      -9.630   9.970  65.631  1.00  0.00    -0.313 A  
HETATM   15  C   UNL     1      -9.876  10.534  64.378  1.00  0.00    -0.405 A  
HETATM   16  C   UNL     1     -10.838  11.542  64.305  1.00  0.00    -0.359 A  
HETATM   17  C   UNL     1     -11.542  11.999  65.421  1.00  0.00    -0.343 A  
HETATM   18  C   UNL     1     -12.425  13.020  64.958  1.00  0.00    -0.534 A  
HETATM   19  C   UNL     1     -12.246  13.154  63.601  1.00  0.00    -0.479 A  
HETATM   20  N   UNL     1     -11.287  12.257  63.216  1.00  0.00    -0.697 NA 
HETATM   21  H   UNL     1     -10.953  12.135  62.260  1.00  0.00     0.000 HD 
ENDBRANCH  11  12
ENDBRANCH  10  11
ENDBRANCH   7  10
ENDBRANCH   6   7
ENDBRANCH   4   6
ENDBRANCH   2   4
TORSDOF 6
ENDMDL
MODEL       43
REMARK 921   NORMALIZED FREE ENERGY PREDICTED BY IDOCK:   -5.33 KCAL/MOL
REMARK 922        TOTAL FREE ENERGY PREDICTED BY IDOCK:   -7.58 KCAL/MOL
REMARK 923 INTER-LIGAND FREE ENERGY PREDICTED BY IDOCK:   -6.90 KCAL/MOL
REMARK 924 INTRA-LIGAND FREE ENERGY PREDICTED BY IDOCK:   -0.68 KCAL/MOL
REMARK 927      BINDING AFFINITY PREDICTED BY RF-SCORE:    0.00 PKD
ROOT
HETATM    1  C   UNL     1      -9.467  10.630  67.655  1.00  0.00    -0.167 C  
HETATM    2  C   UNL     1     -10.820   9.985  67.346  1.00  0.00    -0.249 C  
HETATM    3  C   UNL     1     -10.627   8.484  67.112  1.00  0.00    -0.314 C  
ENDROOT
BRANCH   2   4
HETATM    4  N   UNL     1     -11.724  10.254  68.468  1.00  0.00    -0.672 NA 
HETATM    5  H   UNL     1     -12.502   9.594  68.471  1.00  0.00     0.000 HD 
BRANCH   4   6
HETATM    6  C   UNL     1     -11.052  10.269  69.770  1.00  0.00    -0.287 C  
BRANCH   6   7
HETATM    7  C   UNL     1     -11.982   9.747  70.883  1.00  0.00    -0.328 C  
HETATM    8  H   UNL     1     -11.753   8.826  72.599  1.00  0.00     0.000 HD 
HETATM    9  O   UNL     1     -11.181   9.148  71.914  1.00  0.00    -0.364 OA 
BRANCH   7  10
HETATM   10  C   UNL     1     -12.831  10.918  71.410  1.00  0.00    -0.449 C  
BRANCH  10  11
HETATM   11  O   UNL     1     -12.720  12.044  70.539  1.00  0.00    -0.139 OA 
BRANCH  11  12
HETATM   12  C   UNL     1     -12.781  13.277  71.144  1.00  0.00    -0.320 A  
HETATM   13  C   UNL     1     -13.475  13.543  72.336  1.00  0.00    -0.685 A  
HETATM   14  C   UNL     1     -13.469  14.813  72.915  1.00  0.00    -0.541 A  
HETATM   15  C   UNL     1     -12.766  15.867  72.330  1.00  0.00    -0.515 A  
HETATM   16  C   UNL     1     -12.069  15.598  71.151  1.00  0.00    -0.404 A  
HETATM   17  C   UNL     1     -12.058  14.338  70.549  1.00  0.00    -0.413 A  
HETATM   18  C   UNL     1     -11.249  14.451  69.379  1.00  0.00    -0.317 A  
HETATM   19  C   UNL     1     -10.792  15.746  69.301  1.00  0.00    -0.255 A  
HETATM   20  N   UNL     1     -11.291  16.430  70.376  1.00  0.00    -0.488 NA 
HETATM   21  H   UNL     1     -11.113  17.414  70.574  1.00  0.00     0.000 HD 
ENDBRANCH  11  12
ENDBRANCH  10  11
ENDBRANCH   7  10
ENDBRANCH   6   7
ENDBRANCH   4   6
ENDBRANCH   2   4
TORSDOF 6
ENDMDL
MODEL       44
REMARK 921   NORMALIZED FREE ENERGY PREDICTED BY IDOCK:   -5.30 KCAL/MOL
REMARK 922        TOTAL FREE ENERGY PREDICTED BY IDOCK:   -7.54 KCAL/MOL
REMARK 923 INTER-LIGAND FREE ENERGY PREDICTED BY IDOCK:   -6.76 KCAL/MOL
REMARK 924 INTRA-LIGAND FREE ENERGY PREDICTED BY IDOCK:   -0.78 KCAL/MOL
REMARK 927      BINDING AFFINITY PREDICTED BY RF-SCORE:    0.00 PKD
ROOT
HETATM    1  C   UNL     1     -12.145  14.292  64.263  1.00  0.00    -0.467 C  
HETATM    2  C   UNL     1     -12.182  12.770  64.417  1.00  0.00    -0.428 C  
HETATM    3  C   UNL     1     -10.993  12.154  63.674  1.00  0.00    -0.527 C  
ENDROOT
BRANCH   2   4
HETATM    4  N   UNL     1     -12.158  12.453  65.848  1.00  0.00    -0.623 NA 
HETATM    5  H   UNL     1     -12.867  11.755  66.075  1.00  0.00     0.000 HD 
BRANCH   4   6
HETATM    6  C   UNL     1     -10.842  12.032  66.333  1.00  0.00    -0.278 C  
BRANCH   6   7
HETATM    7  C   UNL     1     -10.970  11.057  67.520  1.00  0.00    -0.281 C  
HETATM    8  H   UNL     1      -9.936   9.548  68.228  1.00  0.00     0.000 HD 
HETATM    9  O   UNL     1      -9.857  10.149  67.497  1.00  0.00    -0.168 OA 
BRANCH   7  10
HETATM   10  C   UNL     1     -11.033  11.870  68.826  1.00  0.00    -0.235 C  
BRANCH  10  11
HETATM   11  O   UNL     1     -12.045  12.874  68.738  1.00  0.00    -0.280 OA 
BRANCH  11  12
HETATM   12  C   UNL     1     -11.949  13.901  69.647  1.00  0.00    -0.342 A  
HETATM   13  C   UNL     1     -12.294  13.794  71.005  1.00  0.00    -0.452 A  
HETATM   14  C   UNL     1     -12.141  14.869  71.882  1.00  0.00    -0.435 A  
HETATM   15  C   UNL     1     -11.633  16.092  71.440  1.00  0.00    -0.520 A  
HETATM   16  C   UNL     1     -11.282  16.192  70.093  1.00  0.00    -0.370 A  
HETATM   17  C   UNL     1     -11.425  15.134  69.192  1.00  0.00    -0.322 A  
HETATM   18  C   UNL     1     -10.967  15.610  67.927  1.00  0.00    -0.319 A  
HETATM   19  C   UNL     1     -10.559  16.914  68.085  1.00  0.00    -0.360 A  
HETATM   20  N   UNL     1     -10.752  17.255  69.395  1.00  0.00    -0.354 NA 
HETATM   21  H   UNL     1     -10.535  18.167  69.798  1.00  0.00     0.000 HD 
ENDBRANCH  11  12
ENDBRANCH  10  11
ENDBRANCH   7  10
ENDBRANCH   6   7
ENDBRANCH   4   6
ENDBRANCH   2   4
TORSDOF 6
ENDMDL
MODEL       45
REMARK 921   NORMALIZED FREE ENERGY PREDICTED BY IDOCK:   -5.29 KCAL/MOL
REMARK 922        TOTAL FREE ENERGY PREDICTED BY IDOCK:   -7.52 KCAL/MOL
REMARK 923 INTER-LIGAND FREE ENERGY PREDICTED BY IDOCK:   -7.08 KCAL/MOL
REMARK 924 INTRA-LIGAND FREE ENERGY PREDICTED BY IDOCK:   -0.44 KCAL/MOL
REMARK 927      BINDING AFFINITY PREDICTED BY RF-SCORE:    0.00 PKD
ROOT
HETATM    1  C   UNL     1     -10.764  11.573  63.487  1.00  0.00    -0.483 C  
HETATM    2  C   UNL     1     -10.110  11.252  64.832  1.00  0.00    -0.281 C  
HETATM    3  C   UNL     1      -8.787  10.518  64.593  1.00  0.00    -0.211 C  
ENDROOT
BRANCH   2   4
HETATM    4  N   UNL     1      -9.916  12.510  65.559  1.00  0.00    -0.322 NA 
HETATM    5  H   UNL     1      -8.930  12.770  65.574  1.00  0.00     0.000 HD 
BRANCH   4   6
HETATM    6  C   UNL     1     -10.735  13.612  65.050  1.00  0.00    -0.367 C  
BRANCH   6   7
HETATM    7  C   UNL     1     -11.796  14.043  66.083  1.00  0.00    -0.407 C  
HETATM    8  H   UNL     1     -13.729  14.366  66.072  1.00  0.00     0.000 HD 
HETATM    9  O   UNL     1     -13.076  14.101  65.436  1.00  0.00    -0.743 OA 
BRANCH   7  10
HETATM   10  C   UNL     1     -11.778  13.047  67.257  1.00  0.00    -0.375 C  
BRANCH  10  11
HETATM   11  O   UNL     1     -11.036  13.583  68.353  1.00  0.00    -0.248 OA 
BRANCH  11  12
HETATM   12  C   UNL     1     -11.777  13.970  69.445  1.00  0.00    -0.315 A  
HETATM   13  C   UNL     1     -12.135  15.299  69.731  1.00  0.00    -0.357 A  
HETATM   14  C   UNL     1     -12.918  15.619  70.842  1.00  0.00    -0.471 A  
HETATM   15  C   UNL     1     -13.380  14.625  71.707  1.00  0.00    -0.445 A  
HETATM   16  C   UNL     1     -13.032  13.306  71.414  1.00  0.00    -0.311 A  
HETATM   17  C   UNL     1     -12.249  12.956  70.312  1.00  0.00    -0.362 A  
HETATM   18  C   UNL     1     -12.108  11.537  70.344  1.00  0.00    -0.471 A  
HETATM   19  C   UNL     1     -12.798  11.065  71.436  1.00  0.00    -0.443 A  
HETATM   20  N   UNL     1     -13.353  12.141  72.075  1.00  0.00    -0.467 NA 
HETATM   21  H   UNL     1     -13.923  12.087  72.919  1.00  0.00     0.000 HD 
ENDBRANCH  11  12
ENDBRANCH  10  11
ENDBRANCH   7  10
ENDBRANCH   6   7
ENDBRANCH   4   6
ENDBRANCH   2   4
TORSDOF 6
ENDMDL
MODEL       46
REMARK 921   NORMALIZED FREE ENERGY PREDICTED BY IDOCK:   -5.28 KCAL/MOL
REMARK 922        TOTAL FREE ENERGY PREDICTED BY IDOCK:   -7.51 KCAL/MOL
REMARK 923 INTER-LIGAND FREE ENERGY PREDICTED BY IDOCK:   -7.01 KCAL/MOL
REMARK 924 INTRA-LIGAND FREE ENERGY PREDICTED BY IDOCK:   -0.50 KCAL/MOL
REMARK 927      BINDING AFFINITY PREDICTED BY RF-SCORE:    0.00 PKD
ROOT
HETATM    1  C   UNL     1     -11.993  16.236  71.840  1.00  0.00    -0.513 C  
HETATM    2  C   UNL     1     -12.291  15.123  72.847  1.00  0.00    -0.391 C  
HETATM    3  C   UNL     1     -12.495  15.734  74.237  1.00  0.00    -0.800 C  
ENDROOT
BRANCH   2   4
HETATM    4  N   UNL     1     -13.477  14.395  72.388  1.00  0.00    -0.422 NA 
HETATM    5  H   UNL     1     -14.317  14.961  72.510  1.00  0.00     0.000 HD 
BRANCH   4   6
HETATM    6  C   UNL     1     -13.371  13.914  71.009  1.00  0.00    -0.126 C  
BRANCH   6   7
HETATM    7  C   UNL     1     -12.323  12.790  70.889  1.00  0.00    -0.265 C  
HETATM    8  H   UNL     1     -12.314  10.839  71.084  1.00  0.00     0.000 HD 
HETATM    9  O   UNL     1     -12.960  11.531  71.158  1.00  0.00    -0.340 OA 
BRANCH   7  10
HETATM   10  C   UNL     1     -11.699  12.840  69.482  1.00  0.00    -0.318 C  
BRANCH  10  11
HETATM   11  O   UNL     1     -12.249  13.926  68.734  1.00  0.00    -0.348 OA 
BRANCH  11  12
HETATM   12  C   UNL     1     -11.852  14.008  67.420  1.00  0.00    -0.409 A  
HETATM   13  C   UNL     1     -12.104  13.021  66.452  1.00  0.00    -0.428 A  
HETATM   14  C   UNL     1     -11.701  13.183  65.125  1.00  0.00    -0.367 A  
HETATM   15  C   UNL     1     -11.035  14.338  64.711  1.00  0.00    -0.408 A  
HETATM   16  C   UNL     1     -10.796  15.320  65.673  1.00  0.00    -0.363 A  
HETATM   17  C   UNL     1     -11.187  15.186  67.007  1.00  0.00    -0.308 A  
HETATM   18  C   UNL     1     -10.774  16.376  67.676  1.00  0.00    -0.312 A  
HETATM   19  C   UNL     1     -10.163  17.193  66.754  1.00  0.00    -0.311 A  
HETATM   20  N   UNL     1     -10.182  16.547  65.548  1.00  0.00    -0.578 NA 
HETATM   21  H   UNL     1      -9.796  16.921  64.680  1.00  0.00     0.000 HD 
ENDBRANCH  11  12
ENDBRANCH  10  11
ENDBRANCH   7  10
ENDBRANCH   6   7
ENDBRANCH   4   6
ENDBRANCH   2   4
TORSDOF 6
ENDMDL
MODEL       47
REMARK 921   NORMALIZED FREE ENERGY PREDICTED BY IDOCK:   -5.27 KCAL/MOL
REMARK 922        TOTAL FREE ENERGY PREDICTED BY IDOCK:   -7.50 KCAL/MOL
REMARK 923 INTER-LIGAND FREE ENERGY PREDICTED BY IDOCK:   -6.60 KCAL/MOL
REMARK 924 INTRA-LIGAND FREE ENERGY PREDICTED BY IDOCK:   -0.90 KCAL/MOL
REMARK 927      BINDING AFFINITY PREDICTED BY RF-SCORE:    0.00 PKD
ROOT
HETATM    1  C   UNL     1     -10.926  19.747  65.812  1.00  0.00    -0.252 C  
HETATM    2  C   UNL     1      -9.701  20.300  66.544  1.00  0.00    -0.386 C  
HETATM    3  C   UNL     1      -9.765  19.897  68.020  1.00  0.00    -0.510 C  
ENDROOT
BRANCH   2   4
HETATM    4  N   UNL     1      -8.499  19.780  65.884  1.00  0.00    -0.437 NA 
HETATM    5  H   UNL     1      -7.961  20.539  65.466  1.00  0.00     0.000 HD 
BRANCH   4   6
HETATM    6  C   UNL     1      -7.654  18.969  66.763  1.00  0.00    -0.232 C  
BRANCH   6   7
HETATM    7  C   UNL     1      -7.103  17.733  66.023  1.00  0.00    -0.300 C  
HETATM    8  H   UNL     1      -5.399  16.766  65.962  1.00  0.00     0.000 HD 
HETATM    9  O   UNL     1      -5.738  17.526  66.417  1.00  0.00    -0.176 OA 
BRANCH   7  10
HETATM   10  C   UNL     1      -7.996  16.522  66.348  1.00  0.00    -0.317 C  
BRANCH  10  11
HETATM   11  O   UNL     1      -9.334  16.758  65.909  1.00  0.00    -0.476 OA 
BRANCH  11  12
HETATM   12  C   UNL     1     -10.187  15.682  65.984  1.00  0.00    -0.335 A  
HETATM   13  C   UNL     1     -10.326  14.708  64.981  1.00  0.00    -0.432 A  
HETATM   14  C   UNL     1     -11.188  13.621  65.135  1.00  0.00    -0.318 A  
HETATM   15  C   UNL     1     -11.941  13.460  66.299  1.00  0.00    -0.460 A  
HETATM   16  C   UNL     1     -11.793  14.423  67.298  1.00  0.00    -0.405 A  
HETATM   17  C   UNL     1     -10.940  15.521  67.171  1.00  0.00    -0.295 A  
HETATM   18  C   UNL     1     -11.057  16.272  68.379  1.00  0.00    -0.362 A  
HETATM   19  C   UNL     1     -11.953  15.625  69.197  1.00  0.00    -0.310 A  
HETATM   20  N   UNL     1     -12.391  14.510  68.537  1.00  0.00    -0.595 NA 
HETATM   21  H   UNL     1     -13.064  13.839  68.908  1.00  0.00     0.000 HD 
ENDBRANCH  11  12
ENDBRANCH  10  11
ENDBRANCH   7  10
ENDBRANCH   6   7
ENDBRANCH   4   6
ENDBRANCH   2   4
TORSDOF 6
ENDMDL
MODEL       48
REMARK 921   NORMALIZED FREE ENERGY PREDICTED BY IDOCK:   -5.26 KCAL/MOL
REMARK 922        TOTAL FREE ENERGY PREDICTED BY IDOCK:   -7.48 KCAL/MOL
REMARK 923 INTER-LIGAND FREE ENERGY PREDICTED BY IDOCK:   -7.10 KCAL/MOL
REMARK 924 INTRA-LIGAND FREE ENERGY PREDICTED BY IDOCK:   -0.38 KCAL/MOL
REMARK 927      BINDING AFFINITY PREDICTED BY RF-SCORE:    0.00 PKD
ROOT
HETATM    1  C   UNL     1     -14.099   7.825  71.455  1.00  0.00    -0.509 C  
HETATM    2  C   UNL     1     -13.163   8.975  71.833  1.00  0.00    -0.405 C  
HETATM    3  C   UNL     1     -11.835   8.406  72.343  1.00  0.00    -0.452 C  
ENDROOT
BRANCH   2   4
HETATM    4  N   UNL     1     -12.979   9.824  70.652  1.00  0.00    -0.570 NA 
HETATM    5  H   UNL     1     -13.860  10.265  70.384  1.00  0.00     0.000 HD 
BRANCH   4   6
HETATM    6  C   UNL     1     -11.924  10.827  70.810  1.00  0.00    -0.362 C  
BRANCH   6   7
HETATM    7  C   UNL     1     -11.278  11.176  69.454  1.00  0.00    -0.270 C  
HETATM    8  H   UNL     1     -10.927  10.233  67.771  1.00  0.00     0.000 HD 
HETATM    9  O   UNL     1     -11.324  10.018  68.606  1.00  0.00    -0.172 OA 
BRANCH   7  10
HETATM   10  C   UNL     1     -12.024  12.377  68.844  1.00  0.00    -0.241 C  
BRANCH  10  11
HETATM   11  O   UNL     1     -11.115  13.216  68.129  1.00  0.00    -0.235 OA 
BRANCH  11  12
HETATM   12  C   UNL     1     -11.344  13.331  66.778  1.00  0.00    -0.327 A  
HETATM   13  C   UNL     1     -11.878  12.310  65.974  1.00  0.00    -0.409 A  
HETATM   14  C   UNL     1     -12.115  12.504  64.612  1.00  0.00    -0.496 A  
HETATM   15  C   UNL     1     -11.834  13.727  64.001  1.00  0.00    -0.410 A  
HETATM   16  C   UNL     1     -11.314  14.742  64.804  1.00  0.00    -0.397 A  
HETATM   17  C   UNL     1     -11.065  14.576  66.168  1.00  0.00    -0.334 A  
HETATM   18  C   UNL     1     -10.542  15.816  66.642  1.00  0.00    -0.307 A  
HETATM   19  C   UNL     1     -10.492  16.691  65.582  1.00  0.00    -0.297 A  
HETATM   20  N   UNL     1     -10.961  16.033  64.478  1.00  0.00    -0.907 NA 
HETATM   21  H   UNL     1     -11.038  16.442  63.546  1.00  0.00     0.000 HD 
ENDBRANCH  11  12
ENDBRANCH  10  11
ENDBRANCH   7  10
ENDBRANCH   6   7
ENDBRANCH   4   6
ENDBRANCH   2   4
TORSDOF 6
ENDMDL
MODEL       49
REMARK 921   NORMALIZED FREE ENERGY PREDICTED BY IDOCK:   -5.26 KCAL/MOL
REMARK 922        TOTAL FREE ENERGY PREDICTED BY IDOCK:   -7.48 KCAL/MOL
REMARK 923 INTER-LIGAND FREE ENERGY PREDICTED BY IDOCK:   -6.89 KCAL/MOL
REMARK 924 INTRA-LIGAND FREE ENERGY PREDICTED BY IDOCK:   -0.59 KCAL/MOL
REMARK 927      BINDING AFFINITY PREDICTED BY RF-SCORE:    0.00 PKD
ROOT
HETATM    1  C   UNL     1      -9.859   9.575  66.022  1.00  0.00    -0.353 C  
HETATM    2  C   UNL     1      -9.545  10.631  64.959  1.00  0.00    -0.265 C  
HETATM    3  C   UNL     1      -9.150   9.937  63.653  1.00  0.00    -0.294 C  
ENDROOT
BRANCH   2   4
HETATM    4  N   UNL     1     -10.728  11.481  64.794  1.00  0.00    -0.301 NA 
HETATM    5  H   UNL     1     -10.838  12.105  65.594  1.00  0.00     0.000 HD 
BRANCH   4   6
HETATM    6  C   UNL     1     -10.734  12.238  63.540  1.00  0.00    -0.451 C  
BRANCH   6   7
HETATM    7  C   UNL     1     -12.071  12.981  63.343  1.00  0.00    -0.515 C  
HETATM    8  H   UNL     1     -13.971  12.552  63.565  1.00  0.00     0.000 HD 
HETATM    9  O   UNL     1     -13.148  12.095  63.686  1.00  0.00    -0.787 OA 
BRANCH   7  10
HETATM   10  C   UNL     1     -12.063  14.254  64.208  1.00  0.00    -0.441 C  
BRANCH  10  11
HETATM   11  O   UNL     1     -10.753  14.498  64.722  1.00  0.00    -0.413 OA 
BRANCH  11  12
HETATM   12  C   UNL     1     -10.686  15.317  65.825  1.00  0.00    -0.348 A  
HETATM   13  C   UNL     1     -10.250  16.652  65.796  1.00  0.00    -0.328 A  
HETATM   14  C   UNL     1     -10.238  17.439  66.949  1.00  0.00    -0.322 A  
HETATM   15  C   UNL     1     -10.666  16.926  68.175  1.00  0.00    -0.375 A  
HETATM   16  C   UNL     1     -11.109  15.603  68.198  1.00  0.00    -0.330 A  
HETATM   17  C   UNL     1     -11.131  14.792  67.061  1.00  0.00    -0.333 A  
HETATM   18  C   UNL     1     -11.639  13.525  67.473  1.00  0.00    -0.385 A  
HETATM   19  C   UNL     1     -11.915  13.593  68.819  1.00  0.00    -0.359 A  
HETATM   20  N   UNL     1     -11.592  14.852  69.247  1.00  0.00    -0.288 NA 
HETATM   21  H   UNL     1     -11.695  15.186  70.205  1.00  0.00     0.000 HD 
ENDBRANCH  11  12
ENDBRANCH  10  11
ENDBRANCH   7  10
ENDBRANCH   6   7
ENDBRANCH   4   6
ENDBRANCH   2   4
TORSDOF 6
ENDMDL
MODEL       50
REMARK 921   NORMALIZED FREE ENERGY PREDICTED BY IDOCK:   -5.25 KCAL/MOL
REMARK 922        TOTAL FREE ENERGY PREDICTED BY IDOCK:   -7.47 KCAL/MOL
REMARK 923 INTER-LIGAND FREE ENERGY PREDICTED BY IDOCK:   -6.99 KCAL/MOL
REMARK 924 INTRA-LIGAND FREE ENERGY PREDICTED BY IDOCK:   -0.48 KCAL/MOL
REMARK 927      BINDING AFFINITY PREDICTED BY RF-SCORE:    0.00 PKD
ROOT
HETATM    1  C   UNL     1     -12.797  15.833  71.782  1.00  0.00    -0.517 C  
HETATM    2  C   UNL     1     -12.460  14.342  71.855  1.00  0.00    -0.282 C  
HETATM    3  C   UNL     1     -13.735  13.545  72.148  1.00  0.00    -0.654 C  
ENDROOT
BRANCH   2   4
HETATM    4  N   UNL     1     -11.846  13.947  70.584  1.00  0.00    -0.498 NA 
HETATM    5  H   UNL     1     -12.537  13.520  69.967  1.00  0.00     0.000 HD 
BRANCH   4   6
HETATM    6  C   UNL     1     -11.150  15.043  69.905  1.00  0.00    -0.274 C  
BRANCH   6   7
HETATM    7  C   UNL     1     -10.716  14.632  68.484  1.00  0.00    -0.247 C  
HETATM    8  H   UNL     1      -9.567  13.249  67.702  1.00  0.00     0.000 HD 
HETATM    9  O   UNL     1      -9.835  13.502  68.577  1.00  0.00    -0.232 OA 
BRANCH   7  10
HETATM   10  C   UNL     1     -11.973  14.326  67.650  1.00  0.00    -0.365 C  
BRANCH  10  11
HETATM   11  O   UNL     1     -12.004  12.946  67.285  1.00  0.00    -0.372 OA 
BRANCH  11  12
HETATM   12  C   UNL     1     -11.818  12.675  65.950  1.00  0.00    -0.444 A  
HETATM   13  C   UNL     1     -12.341  13.452  64.902  1.00  0.00    -0.457 A  
HETATM   14  C   UNL     1     -12.087  13.139  63.566  1.00  0.00    -0.585 A  
HETATM   15  C   UNL     1     -11.295  12.042  63.222  1.00  0.00    -0.396 A  
HETATM   16  C   UNL     1     -10.768  11.279  64.265  1.00  0.00    -0.349 A  
HETATM   17  C   UNL     1     -11.006  11.567  65.611  1.00  0.00    -0.296 A  
HETATM   18  C   UNL     1     -10.311  10.579  66.370  1.00  0.00    -0.283 A  
HETATM   19  C   UNL     1      -9.674   9.736  65.490  1.00  0.00    -0.312 A  
HETATM   20  N   UNL     1      -9.955  10.167  64.222  1.00  0.00    -0.423 NA 
HETATM   21  H   UNL     1      -9.611   9.728  63.368  1.00  0.00     0.000 HD 
ENDBRANCH  11  12
ENDBRANCH  10  11
ENDBRANCH   7  10
ENDBRANCH   6   7
ENDBRANCH   4   6
ENDBRANCH   2   4
TORSDOF 6
ENDMDL
MODEL       51
REMARK 921   NORMALIZED FREE ENERGY PREDICTED BY IDOCK:   -5.22 KCAL/MOL
REMARK 922        TOTAL FREE ENERGY PREDICTED BY IDOCK:   -7.42 KCAL/MOL
REMARK 923 INTER-LIGAND FREE ENERGY PREDICTED BY IDOCK:   -6.67 KCAL/MOL
REMARK 924 INTRA-LIGAND FREE ENERGY PREDICTED BY IDOCK:   -0.75 KCAL/MOL
REMARK 927      BINDING AFFINITY PREDICTED BY RF-SCORE:    0.00 PKD
ROOT
HETATM    1  C   UNL     1     -13.887   8.934  72.619  1.00  0.00    -0.393 C  
HETATM    2  C   UNL     1     -13.516   9.706  71.351  1.00  0.00    -0.329 C  
HETATM    3  C   UNL     1     -13.121  11.138  71.723  1.00  0.00    -0.536 C  
ENDROOT
BRANCH   2   4
HETATM    4  N   UNL     1     -12.425   8.992  70.681  1.00  0.00    -0.482 NA 
HETATM    5  H   UNL     1     -12.755   8.556  69.820  1.00  0.00     0.000 HD 
BRANCH   4   6
HETATM    6  C   UNL     1     -11.251   9.828  70.422  1.00  0.00    -0.300 C  
BRANCH   6   7
HETATM    7  C   UNL     1     -10.410   9.263  69.259  1.00  0.00    -0.215 C  
HETATM    8  H   UNL     1     -10.098   7.496  68.468  1.00  0.00     0.000 HD 
HETATM    9  O   UNL     1     -10.616   7.844  69.184  1.00  0.00    -0.219 OA 
BRANCH   7  10
HETATM   10  C   UNL     1     -10.814   9.982  67.959  1.00  0.00    -0.260 C  
BRANCH  10  11
HETATM   11  O   UNL     1     -11.820  10.961  68.225  1.00  0.00    -0.530 OA 
BRANCH  11  12
HETATM   12  C   UNL     1     -11.744  12.114  67.480  1.00  0.00    -0.315 A  
HETATM   13  C   UNL     1     -11.613  12.148  66.081  1.00  0.00    -0.418 A  
HETATM   14  C   UNL     1     -11.574  13.356  65.382  1.00  0.00    -0.335 A  
HETATM   15  C   UNL     1     -11.669  14.577  66.051  1.00  0.00    -0.347 A  
HETATM   16  C   UNL     1     -11.809  14.540  67.439  1.00  0.00    -0.388 A  
HETATM   17  C   UNL     1     -11.850  13.348  68.165  1.00  0.00    -0.396 A  
HETATM   18  C   UNL     1     -11.998  13.709  69.537  1.00  0.00    -0.397 A  
HETATM   19  C   UNL     1     -12.051  15.081  69.613  1.00  0.00    -0.300 A  
HETATM   20  N   UNL     1     -11.936  15.573  68.341  1.00  0.00    -0.506 NA 
HETATM   21  H   UNL     1     -11.945  16.564  68.097  1.00  0.00     0.000 HD 
ENDBRANCH  11  12
ENDBRANCH  10  11
ENDBRANCH   7  10
ENDBRANCH   6   7
ENDBRANCH   4   6
ENDBRANCH   2   4
TORSDOF 6
ENDMDL
MODEL       52
REMARK 921   NORMALIZED FREE ENERGY PREDICTED BY IDOCK:   -5.19 KCAL/MOL
REMARK 922        TOTAL FREE ENERGY PREDICTED BY IDOCK:   -7.39 KCAL/MOL
REMARK 923 INTER-LIGAND FREE ENERGY PREDICTED BY IDOCK:   -6.67 KCAL/MOL
REMARK 924 INTRA-LIGAND FREE ENERGY PREDICTED BY IDOCK:   -0.72 KCAL/MOL
REMARK 927      BINDING AFFINITY PREDICTED BY RF-SCORE:    0.00 PKD
ROOT
HETATM    1  C   UNL     1     -10.740   9.752  70.953  1.00  0.00    -0.375 C  
HETATM    2  C   UNL     1     -11.824  10.706  70.445  1.00  0.00    -0.349 C  
HETATM    3  C   UNL     1     -12.851  10.948  71.556  1.00  0.00    -0.560 C  
ENDROOT
BRANCH   2   4
HETATM    4  N   UNL     1     -11.176  11.949  70.016  1.00  0.00    -0.485 NA 
HETATM    5  H   UNL     1     -10.951  11.913  69.021  1.00  0.00     0.000 HD 
BRANCH   4   6
HETATM    6  C   UNL     1     -11.951  13.151  70.329  1.00  0.00    -0.292 C  
BRANCH   6   7
HETATM    7  C   UNL     1     -11.562  14.322  69.405  1.00  0.00    -0.306 C  
HETATM    8  H   UNL     1     -10.370  15.876  69.517  1.00  0.00     0.000 HD 
HETATM    9  O   UNL     1     -10.610  15.154  70.086  1.00  0.00    -0.261 OA 
BRANCH   7  10
HETATM   10  C   UNL     1     -11.002  13.751  68.089  1.00  0.00    -0.246 C  
BRANCH  10  11
HETATM   11  O   UNL     1     -11.967  12.902  67.466  1.00  0.00    -0.359 OA 
BRANCH  11  12
HETATM   12  C   UNL     1     -11.777  12.665  66.125  1.00  0.00    -0.406 A  
HETATM   13  C   UNL     1     -12.211  13.522  65.099  1.00  0.00    -0.462 A  
HETATM   14  C   UNL     1     -11.956  13.237  63.756  1.00  0.00    -0.551 A  
HETATM   15  C   UNL     1     -11.255  12.088  63.385  1.00  0.00    -0.481 A  
HETATM   16  C   UNL     1     -10.817  11.245  64.407  1.00  0.00    -0.303 A  
HETATM   17  C   UNL     1     -11.058  11.504  65.758  1.00  0.00    -0.272 A  
HETATM   18  C   UNL     1     -10.466  10.432  66.491  1.00  0.00    -0.262 A  
HETATM   19  C   UNL     1      -9.886   9.569  65.591  1.00  0.00    -0.272 A  
HETATM   20  N   UNL     1     -10.103  10.069  64.336  1.00  0.00    -0.430 NA 
HETATM   21  H   UNL     1      -9.781   9.633  63.471  1.00  0.00     0.000 HD 
ENDBRANCH  11  12
ENDBRANCH  10  11
ENDBRANCH   7  10
ENDBRANCH   6   7
ENDBRANCH   4   6
ENDBRANCH   2   4
TORSDOF 6
ENDMDL
MODEL       53
REMARK 921   NORMALIZED FREE ENERGY PREDICTED BY IDOCK:   -5.19 KCAL/MOL
REMARK 922        TOTAL FREE ENERGY PREDICTED BY IDOCK:   -7.38 KCAL/MOL
REMARK 923 INTER-LIGAND FREE ENERGY PREDICTED BY IDOCK:   -6.77 KCAL/MOL
REMARK 924 INTRA-LIGAND FREE ENERGY PREDICTED BY IDOCK:   -0.61 KCAL/MOL
REMARK 927      BINDING AFFINITY PREDICTED BY RF-SCORE:    0.00 PKD
ROOT
HETATM    1  C   UNL     1     -10.936   9.968  70.678  1.00  0.00    -0.392 C  
HETATM    2  C   UNL     1     -12.309  10.639  70.607  1.00  0.00    -0.369 C  
HETATM    3  C   UNL     1     -13.156  10.196  71.804  1.00  0.00    -0.568 C  
ENDROOT
BRANCH   2   4
HETATM    4  N   UNL     1     -12.110  12.091  70.582  1.00  0.00    -0.466 NA 
HETATM    5  H   UNL     1     -12.211  12.453  69.634  1.00  0.00     0.000 HD 
BRANCH   4   6
HETATM    6  C   UNL     1     -12.979  12.817  71.511  1.00  0.00    -0.292 C  
BRANCH   6   7
HETATM    7  C   UNL     1     -13.135  14.293  71.091  1.00  0.00    -0.343 C  
HETATM    8  H   UNL     1     -13.323  16.012  72.015  1.00  0.00     0.000 HD 
HETATM    9  O   UNL     1     -13.227  15.103  72.273  1.00  0.00    -0.323 OA 
BRANCH   7  10
HETATM   10  C   UNL     1     -11.939  14.685  70.206  1.00  0.00    -0.308 C  
BRANCH  10  11
HETATM   11  O   UNL     1     -12.224  14.409  68.833  1.00  0.00    -0.281 OA 
BRANCH  11  12
HETATM   12  C   UNL     1     -11.345  14.944  67.921  1.00  0.00    -0.327 A  
HETATM   13  C   UNL     1     -10.234  15.735  68.258  1.00  0.00    -0.225 A  
HETATM   14  C   UNL     1      -9.362  16.220  67.281  1.00  0.00    -0.231 A  
HETATM   15  C   UNL     1      -9.561  15.929  65.931  1.00  0.00    -0.378 A  
HETATM   16  C   UNL     1     -10.660  15.134  65.600  1.00  0.00    -0.356 A  
HETATM   17  C   UNL     1     -11.549  14.637  66.555  1.00  0.00    -0.350 A  
HETATM   18  C   UNL     1     -12.528  13.879  65.845  1.00  0.00    -0.519 A  
HETATM   19  C   UNL     1     -12.216  13.926  64.507  1.00  0.00    -0.417 A  
HETATM   20  N   UNL     1     -11.086  14.685  64.369  1.00  0.00    -0.629 NA 
HETATM   21  H   UNL     1     -10.625  14.888  63.482  1.00  0.00     0.000 HD 
ENDBRANCH  11  12
ENDBRANCH  10  11
ENDBRANCH   7  10
ENDBRANCH   6   7
ENDBRANCH   4   6
ENDBRANCH   2   4
TORSDOF 6
ENDMDL
MODEL       54
REMARK 921   NORMALIZED FREE ENERGY PREDICTED BY IDOCK:   -5.18 KCAL/MOL
REMARK 922        TOTAL FREE ENERGY PREDICTED BY IDOCK:   -7.37 KCAL/MOL
REMARK 923 INTER-LIGAND FREE ENERGY PREDICTED BY IDOCK:   -6.28 KCAL/MOL
REMARK 924 INTRA-LIGAND FREE ENERGY PREDICTED BY IDOCK:   -1.09 KCAL/MOL
REMARK 927      BINDING AFFINITY PREDICTED BY RF-SCORE:    0.00 PKD
ROOT
HETATM    1  C   UNL     1      -8.048  13.311  67.517  1.00  0.00    -0.187 C  
HETATM    2  C   UNL     1      -8.211  11.832  67.874  1.00  0.00    -0.147 C  
HETATM    3  C   UNL     1      -6.861  11.263  68.322  1.00  0.00    -0.064 C  
ENDROOT
BRANCH   2   4
HETATM    4  N   UNL     1      -9.228  11.723  68.925  1.00  0.00    -0.405 NA 
HETATM    5  H   UNL     1     -10.049  12.282  68.691  1.00  0.00     0.000 HD 
BRANCH   4   6
HETATM    6  C   UNL     1      -9.611  10.343  69.228  1.00  0.00    -0.209 C  
BRANCH   6   7
HETATM    7  C   UNL     1     -11.129  10.225  69.472  1.00  0.00    -0.262 C  
HETATM    8  H   UNL     1     -12.299  10.041  71.035  1.00  0.00     0.000 HD 
HETATM    9  O   UNL     1     -11.365  10.113  70.884  1.00  0.00    -0.332 OA 
BRANCH   7  10
HETATM   10  C   UNL     1     -11.826  11.453  68.859  1.00  0.00    -0.347 C  
BRANCH  10  11
HETATM   11  O   UNL     1     -11.965  11.292  67.446  1.00  0.00    -0.581 OA 
BRANCH  11  12
HETATM   12  C   UNL     1     -11.628  12.386  66.684  1.00  0.00    -0.385 A  
HETATM   13  C   UNL     1     -11.847  13.720  67.070  1.00  0.00    -0.445 A  
HETATM   14  C   UNL     1     -11.450  14.786  66.261  1.00  0.00    -0.316 A  
HETATM   15  C   UNL     1     -10.816  14.564  65.038  1.00  0.00    -0.425 A  
HETATM   16  C   UNL     1     -10.591  13.238  64.662  1.00  0.00    -0.404 A  
HETATM   17  C   UNL     1     -10.978  12.152  65.450  1.00  0.00    -0.346 A  
HETATM   18  C   UNL     1     -10.585  10.976  64.745  1.00  0.00    -0.350 A  
HETATM   19  C   UNL     1      -9.977  11.363  63.575  1.00  0.00    -0.388 A  
HETATM   20  N   UNL     1      -9.984  12.731  63.534  1.00  0.00    -0.687 NA 
HETATM   21  H   UNL     1      -9.596  13.294  62.777  1.00  0.00     0.000 HD 
ENDBRANCH  11  12
ENDBRANCH  10  11
ENDBRANCH   7  10
ENDBRANCH   6   7
ENDBRANCH   4   6
ENDBRANCH   2   4
TORSDOF 6
ENDMDL
MODEL       55
REMARK 921   NORMALIZED FREE ENERGY PREDICTED BY IDOCK:   -5.12 KCAL/MOL
REMARK 922        TOTAL FREE ENERGY PREDICTED BY IDOCK:   -7.29 KCAL/MOL
REMARK 923 INTER-LIGAND FREE ENERGY PREDICTED BY IDOCK:   -6.93 KCAL/MOL
REMARK 924 INTRA-LIGAND FREE ENERGY PREDICTED BY IDOCK:   -0.37 KCAL/MOL
REMARK 927      BINDING AFFINITY PREDICTED BY RF-SCORE:    0.00 PKD
ROOT
HETATM    1  C   UNL     1     -14.059   9.180  72.205  1.00  0.00    -0.439 C  
HETATM    2  C   UNL     1     -13.338   9.977  71.116  1.00  0.00    -0.305 C  
HETATM    3  C   UNL     1     -12.945  11.351  71.666  1.00  0.00    -0.523 C  
ENDROOT
BRANCH   2   4
HETATM    4  N   UNL     1     -12.170   9.205  70.680  1.00  0.00    -0.486 NA 
HETATM    5  H   UNL     1     -12.336   8.788  69.764  1.00  0.00     0.000 HD 
BRANCH   4   6
HETATM    6  C   UNL     1     -10.925   9.977  70.681  1.00  0.00    -0.322 C  
BRANCH   6   7
HETATM    7  C   UNL     1     -10.183   9.840  69.337  1.00  0.00    -0.210 C  
HETATM    8  H   UNL     1      -9.428   8.369  68.283  1.00  0.00     0.000 HD 
HETATM    9  O   UNL     1      -9.886   8.453  69.111  1.00  0.00    -0.175 OA 
BRANCH   7  10
HETATM   10  C   UNL     1     -11.061  10.438  68.222  1.00  0.00    -0.281 C  
BRANCH  10  11
HETATM   11  O   UNL     1     -10.247  11.087  67.243  1.00  0.00    -0.187 OA 
BRANCH  11  12
HETATM   12  C   UNL     1     -10.897  11.500  66.104  1.00  0.00    -0.278 A  
HETATM   13  C   UNL     1     -12.013  12.353  66.093  1.00  0.00    -0.397 A  
HETATM   14  C   UNL     1     -12.606  12.761  64.896  1.00  0.00    -0.541 A  
HETATM   15  C   UNL     1     -12.106  12.337  63.665  1.00  0.00    -0.648 A  
HETATM   16  C   UNL     1     -10.991  11.498  63.679  1.00  0.00    -0.404 A  
HETATM   17  C   UNL     1     -10.378  11.073  64.860  1.00  0.00    -0.378 A  
HETATM   18  C   UNL     1      -9.286  10.239  64.476  1.00  0.00    -0.295 A  
HETATM   19  C   UNL     1      -9.256  10.181  63.102  1.00  0.00    -0.289 A  
HETATM   20  N   UNL     1     -10.288  10.945  62.631  1.00  0.00    -0.766 NA 
HETATM   21  H   UNL     1     -10.506  11.085  61.644  1.00  0.00     0.000 HD 
ENDBRANCH  11  12
ENDBRANCH  10  11
ENDBRANCH   7  10
ENDBRANCH   6   7
ENDBRANCH   4   6
ENDBRANCH   2   4
TORSDOF 6
ENDMDL
MODEL       56
REMARK 921   NORMALIZED FREE ENERGY PREDICTED BY IDOCK:   -5.12 KCAL/MOL
REMARK 922        TOTAL FREE ENERGY PREDICTED BY IDOCK:   -7.29 KCAL/MOL
REMARK 923 INTER-LIGAND FREE ENERGY PREDICTED BY IDOCK:   -6.46 KCAL/MOL
REMARK 924 INTRA-LIGAND FREE ENERGY PREDICTED BY IDOCK:   -0.84 KCAL/MOL
REMARK 927      BINDING AFFINITY PREDICTED BY RF-SCORE:    0.00 PKD
ROOT
HETATM    1  C   UNL     1     -13.047  10.180  71.210  1.00  0.00    -0.490 C  
HETATM    2  C   UNL     1     -11.744  10.403  70.439  1.00  0.00    -0.331 C  
HETATM    3  C   UNL     1     -10.784   9.241  70.713  1.00  0.00    -0.350 C  
ENDROOT
BRANCH   2   4
HETATM    4  N   UNL     1     -12.068  10.523  69.015  1.00  0.00    -0.713 NA 
HETATM    5  H   UNL     1     -12.409  11.461  68.801  1.00  0.00     0.000 HD 
BRANCH   4   6
HETATM    6  C   UNL     1     -10.959  10.160  68.130  1.00  0.00    -0.259 C  
BRANCH   6   7
HETATM    7  C   UNL     1     -10.821  11.163  66.967  1.00  0.00    -0.284 C  
HETATM    8  H   UNL     1     -11.986  12.469  66.082  1.00  0.00     0.000 HD 
HETATM    9  O   UNL     1     -12.070  11.852  66.798  1.00  0.00    -0.593 OA 
BRANCH   7  10
HETATM   10  C   UNL     1      -9.661  12.126  67.277  1.00  0.00    -0.191 C  
BRANCH  10  11
HETATM   11  O   UNL     1      -9.851  12.739  68.554  1.00  0.00    -0.213 OA 
BRANCH  11  12
HETATM   12  C   UNL     1     -10.164  14.078  68.534  1.00  0.00    -0.237 A  
HETATM   13  C   UNL     1      -9.512  15.033  67.736  1.00  0.00    -0.195 A  
HETATM   14  C   UNL     1      -9.902  16.374  67.741  1.00  0.00    -0.239 A  
HETATM   15  C   UNL     1     -10.961  16.812  68.537  1.00  0.00    -0.312 A  
HETATM   16  C   UNL     1     -11.613  15.859  69.320  1.00  0.00    -0.369 A  
HETATM   17  C   UNL     1     -11.244  14.512  69.337  1.00  0.00    -0.312 A  
HETATM   18  C   UNL     1     -12.129  13.857  70.245  1.00  0.00    -0.423 A  
HETATM   19  C   UNL     1     -13.001  14.797  70.743  1.00  0.00    -0.352 A  
HETATM   20  N   UNL     1     -12.682  16.002  70.178  1.00  0.00    -0.593 NA 
HETATM   21  H   UNL     1     -13.166  16.880  70.366  1.00  0.00     0.000 HD 
ENDBRANCH  11  12
ENDBRANCH  10  11
ENDBRANCH   7  10
ENDBRANCH   6   7
ENDBRANCH   4   6
ENDBRANCH   2   4
TORSDOF 6
ENDMDL
MODEL       57
REMARK 921   NORMALIZED FREE ENERGY PREDICTED BY IDOCK:   -5.12 KCAL/MOL
REMARK 922        TOTAL FREE ENERGY PREDICTED BY IDOCK:   -7.29 KCAL/MOL
REMARK 923 INTER-LIGAND FREE ENERGY PREDICTED BY IDOCK:   -6.33 KCAL/MOL
REMARK 924 INTRA-LIGAND FREE ENERGY PREDICTED BY IDOCK:   -0.95 KCAL/MOL
REMARK 927      BINDING AFFINITY PREDICTED BY RF-SCORE:    0.00 PKD
ROOT
HETATM    1  C   UNL     1      -8.988   9.346  68.556  1.00  0.00    -0.128 C  
HETATM    2  C   UNL     1     -10.273   8.733  67.996  1.00  0.00    -0.213 C  
HETATM    3  C   UNL     1     -10.436   7.310  68.536  1.00  0.00    -0.215 C  
ENDROOT
BRANCH   2   4
HETATM    4  N   UNL     1     -11.396   9.597  68.374  1.00  0.00    -0.502 NA 
HETATM    5  H   UNL     1     -12.212   9.038  68.625  1.00  0.00     0.000 HD 
BRANCH   4   6
HETATM    6  C   UNL     1     -11.070  10.547  69.440  1.00  0.00    -0.258 C  
BRANCH   6   7
HETATM    7  C   UNL     1     -11.944  11.814  69.344  1.00  0.00    -0.298 C  
HETATM    8  H   UNL     1     -12.791  13.045  70.613  1.00  0.00     0.000 HD 
HETATM    9  O   UNL     1     -12.253  12.265  70.672  1.00  0.00    -0.371 OA 
BRANCH   7  10
HETATM   10  C   UNL     1     -11.188  12.877  68.527  1.00  0.00    -0.274 C  
BRANCH  10  11
HETATM   11  O   UNL     1     -10.531  12.273  67.412  1.00  0.00    -0.208 OA 
BRANCH  11  12
HETATM   12  C   UNL     1     -11.101  12.508  66.183  1.00  0.00    -0.298 A  
HETATM   13  C   UNL     1     -12.094  13.472  65.940  1.00  0.00    -0.477 A  
HETATM   14  C   UNL     1     -12.607  13.681  64.659  1.00  0.00    -0.289 A  
HETATM   15  C   UNL     1     -12.147  12.940  63.569  1.00  0.00    -0.633 A  
HETATM   16  C   UNL     1     -11.154  11.990  63.812  1.00  0.00    -0.439 A  
HETATM   17  C   UNL     1     -10.622  11.758  65.083  1.00  0.00    -0.332 A  
HETATM   18  C   UNL     1      -9.645  10.729  64.935  1.00  0.00    -0.307 A  
HETATM   19  C   UNL     1      -9.600  10.371  63.609  1.00  0.00    -0.310 A  
HETATM   20  N   UNL     1     -10.514  11.138  62.939  1.00  0.00    -0.778 NA 
HETATM   21  H   UNL     1     -10.695  11.087  61.936  1.00  0.00     0.000 HD 
ENDBRANCH  11  12
ENDBRANCH  10  11
ENDBRANCH   7  10
ENDBRANCH   6   7
ENDBRANCH   4   6
ENDBRANCH   2   4
TORSDOF 6
ENDMDL
MODEL       58
REMARK 921   NORMALIZED FREE ENERGY PREDICTED BY IDOCK:   -5.06 KCAL/MOL
REMARK 922        TOTAL FREE ENERGY PREDICTED BY IDOCK:   -7.20 KCAL/MOL
REMARK 923 INTER-LIGAND FREE ENERGY PREDICTED BY IDOCK:   -6.26 KCAL/MOL
REMARK 924 INTRA-LIGAND FREE ENERGY PREDICTED BY IDOCK:   -0.95 KCAL/MOL
REMARK 927      BINDING AFFINITY PREDICTED BY RF-SCORE:    0.00 PKD
ROOT
HETATM    1  C   UNL     1     -10.127  18.278  68.436  1.00  0.00    -0.412 C  
HETATM    2  C   UNL     1     -10.523  16.800  68.387  1.00  0.00    -0.339 C  
HETATM    3  C   UNL     1      -9.273  15.932  68.562  1.00  0.00    -0.200 C  
ENDROOT
BRANCH   2   4
HETATM    4  N   UNL     1     -11.514  16.556  69.439  1.00  0.00    -0.261 NA 
HETATM    5  H   UNL     1     -12.344  16.103  69.054  1.00  0.00     0.000 HD 
BRANCH   4   6
HETATM    6  C   UNL     1     -10.987  15.795  70.574  1.00  0.00    -0.343 C  
BRANCH   6   7
HETATM    7  C   UNL     1     -12.102  14.993  71.274  1.00  0.00    -0.328 C  
HETATM    8  H   UNL     1     -13.987  15.291  71.725  1.00  0.00     0.000 HD 
HETATM    9  O   UNL     1     -13.300  15.785  71.294  1.00  0.00    -0.532 OA 
BRANCH   7  10
HETATM   10  C   UNL     1     -12.296  13.659  70.530  1.00  0.00    -0.355 C  
BRANCH  10  11
HETATM   11  O   UNL     1     -12.359  13.880  69.120  1.00  0.00    -0.314 OA 
BRANCH  11  12
HETATM   12  C   UNL     1     -11.748  12.929  68.338  1.00  0.00    -0.345 A  
HETATM   13  C   UNL     1     -11.101  11.786  68.838  1.00  0.00    -0.297 A  
HETATM   14  C   UNL     1     -10.528  10.842  67.984  1.00  0.00    -0.222 A  
HETATM   15  C   UNL     1     -10.583  10.998  66.598  1.00  0.00    -0.315 A  
HETATM   16  C   UNL     1     -11.235  12.129  66.105  1.00  0.00    -0.338 A  
HETATM   17  C   UNL     1     -11.816  13.091  66.934  1.00  0.00    -0.442 A  
HETATM   18  C   UNL     1     -12.379  14.083  66.077  1.00  0.00    -0.504 A  
HETATM   19  C   UNL     1     -12.139  13.708  64.776  1.00  0.00    -0.402 A  
HETATM   20  N   UNL     1     -11.449  12.527  64.803  1.00  0.00    -0.312 NA 
HETATM   21  H   UNL     1     -11.138  12.014  63.977  1.00  0.00     0.000 HD 
ENDBRANCH  11  12
ENDBRANCH  10  11
ENDBRANCH   7  10
ENDBRANCH   6   7
ENDBRANCH   4   6
ENDBRANCH   2   4
TORSDOF 6
ENDMDL
MODEL       59
REMARK 921   NORMALIZED FREE ENERGY PREDICTED BY IDOCK:   -5.06 KCAL/MOL
REMARK 922        TOTAL FREE ENERGY PREDICTED BY IDOCK:   -7.20 KCAL/MOL
REMARK 923 INTER-LIGAND FREE ENERGY PREDICTED BY IDOCK:   -6.47 KCAL/MOL
REMARK 924 INTRA-LIGAND FREE ENERGY PREDICTED BY IDOCK:   -0.74 KCAL/MOL
REMARK 927      BINDING AFFINITY PREDICTED BY RF-SCORE:    0.00 PKD
ROOT
HETATM    1  C   UNL     1     -14.320   7.491  71.560  1.00  0.00    -0.603 C  
HETATM    2  C   UNL     1     -12.859   7.923  71.704  1.00  0.00    -0.334 C  
HETATM    3  C   UNL     1     -11.947   6.712  71.487  1.00  0.00    -0.402 C  
ENDROOT
BRANCH   2   4
HETATM    4  N   UNL     1     -12.598   8.989  70.733  1.00  0.00    -0.494 NA 
HETATM    5  H   UNL     1     -13.448   9.519  70.541  1.00  0.00     0.000 HD 
BRANCH   4   6
HETATM    6  C   UNL     1     -11.508   9.885  71.128  1.00  0.00    -0.383 C  
BRANCH   6   7
HETATM    7  C   UNL     1     -10.516  10.101  69.967  1.00  0.00    -0.274 C  
HETATM    8  H   UNL     1      -9.075   9.068  69.129  1.00  0.00     0.000 HD 
HETATM    9  O   UNL     1      -9.686   8.935  69.844  1.00  0.00    -0.169 OA 
BRANCH   7  10
HETATM   10  C   UNL     1     -11.311  10.390  68.681  1.00  0.00    -0.216 C  
BRANCH  10  11
HETATM   11  O   UNL     1     -12.255  11.438  68.906  1.00  0.00    -0.458 OA 
BRANCH  11  12
HETATM   12  C   UNL     1     -11.879  12.686  68.468  1.00  0.00    -0.300 A  
HETATM   13  C   UNL     1     -11.385  12.960  67.181  1.00  0.00    -0.352 A  
HETATM   14  C   UNL     1     -11.052  14.258  66.790  1.00  0.00    -0.316 A  
HETATM   15  C   UNL     1     -11.203  15.334  67.665  1.00  0.00    -0.320 A  
HETATM   16  C   UNL     1     -11.704  15.061  68.939  1.00  0.00    -0.328 A  
HETATM   17  C   UNL     1     -12.044  13.773  69.358  1.00  0.00    -0.377 A  
HETATM   18  C   UNL     1     -12.512  13.891  70.701  1.00  0.00    -0.436 A  
HETATM   19  C   UNL     1     -12.453  15.218  71.058  1.00  0.00    -0.384 A  
HETATM   20  N   UNL     1     -11.965  15.916  69.987  1.00  0.00    -0.323 NA 
HETATM   21  H   UNL     1     -11.816  16.925  69.968  1.00  0.00     0.000 HD 
ENDBRANCH  11  12
ENDBRANCH  10  11
ENDBRANCH   7  10
ENDBRANCH   6   7
ENDBRANCH   4   6
ENDBRANCH   2   4
TORSDOF 6
ENDMDL
MODEL       60
REMARK 921   NORMALIZED FREE ENERGY PREDICTED BY IDOCK:   -5.03 KCAL/MOL
REMARK 922        TOTAL FREE ENERGY PREDICTED BY IDOCK:   -7.17 KCAL/MOL
REMARK 923 INTER-LIGAND FREE ENERGY PREDICTED BY IDOCK:   -6.33 KCAL/MOL
REMARK 924 INTRA-LIGAND FREE ENERGY PREDICTED BY IDOCK:   -0.84 KCAL/MOL
REMARK 927      BINDING AFFINITY PREDICTED BY RF-SCORE:    0.00 PKD
ROOT
HETATM    1  C   UNL     1     -10.179  17.062  65.979  1.00  0.00    -0.337 C  
HETATM    2  C   UNL     1     -10.368  15.545  66.040  1.00  0.00    -0.326 C  
HETATM    3  C   UNL     1     -10.702  15.130  67.476  1.00  0.00    -0.284 C  
ENDROOT
BRANCH   2   4
HETATM    4  N   UNL     1     -11.432  15.178  65.101  1.00  0.00    -0.335 NA 
HETATM    5  H   UNL     1     -11.058  15.061  64.159  1.00  0.00     0.000 HD 
BRANCH   4   6
HETATM    6  C   UNL     1     -12.189  13.991  65.509  1.00  0.00    -0.439 C  
BRANCH   6   7
HETATM    7  C   UNL     1     -12.222  12.938  64.384  1.00  0.00    -0.417 C  
HETATM    8  H   UNL     1     -12.545  12.945  62.450  1.00  0.00     0.000 HD 
HETATM    9  O   UNL     1     -12.525  13.594  63.142  1.00  0.00    -0.786 OA 
BRANCH   7  10
HETATM   10  C   UNL     1     -10.866  12.210  64.344  1.00  0.00    -0.328 C  
BRANCH  10  11
HETATM   11  O   UNL     1     -10.302  12.139  65.655  1.00  0.00    -0.243 OA 
BRANCH  11  12
HETATM   12  C   UNL     1     -10.281  10.890  66.230  1.00  0.00    -0.247 A  
HETATM   13  C   UNL     1      -9.653   9.767  65.666  1.00  0.00    -0.329 A  
HETATM   14  C   UNL     1      -9.642   8.534  66.321  1.00  0.00    -0.306 A  
HETATM   15  C   UNL     1     -10.253   8.374  67.566  1.00  0.00    -0.308 A  
HETATM   16  C   UNL     1     -10.867   9.495  68.128  1.00  0.00    -0.156 A  
HETATM   17  C   UNL     1     -10.895  10.740  67.496  1.00  0.00    -0.342 A  
HETATM   18  C   UNL     1     -11.601  11.623  68.366  1.00  0.00    -0.376 A  
HETATM   19  C   UNL     1     -11.973  10.914  69.484  1.00  0.00    -0.330 A  
HETATM   20  N   UNL     1     -11.524   9.630  69.331  1.00  0.00    -0.447 NA 
HETATM   21  H   UNL     1     -11.657   8.882  70.011  1.00  0.00     0.000 HD 
ENDBRANCH  11  12
ENDBRANCH  10  11
ENDBRANCH   7  10
ENDBRANCH   6   7
ENDBRANCH   4   6
ENDBRANCH   2   4
TORSDOF 6
ENDMDL
MODEL       61
REMARK 921   NORMALIZED FREE ENERGY PREDICTED BY IDOCK:   -5.03 KCAL/MOL
REMARK 922        TOTAL FREE ENERGY PREDICTED BY IDOCK:   -7.17 KCAL/MOL
REMARK 923 INTER-LIGAND FREE ENERGY PREDICTED BY IDOCK:   -6.62 KCAL/MOL
REMARK 924 INTRA-LIGAND FREE ENERGY PREDICTED BY IDOCK:   -0.55 KCAL/MOL
REMARK 927      BINDING AFFINITY PREDICTED BY RF-SCORE:    0.00 PKD
ROOT
HETATM    1  C   UNL     1     -12.012  11.749  63.447  1.00  0.00    -0.443 C  
HETATM    2  C   UNL     1     -11.225  13.022  63.767  1.00  0.00    -0.349 C  
HETATM    3  C   UNL     1     -12.188  14.104  64.265  1.00  0.00    -0.449 C  
ENDROOT
BRANCH   2   4
HETATM    4  N   UNL     1     -10.206  12.691  64.767  1.00  0.00    -0.401 NA 
HETATM    5  H   UNL     1     -10.051  13.478  65.398  1.00  0.00     0.000 HD 
BRANCH   4   6
HETATM    6  C   UNL     1     -10.501  11.472  65.523  1.00  0.00    -0.275 C  
BRANCH   6   7
HETATM    7  C   UNL     1     -10.837  11.794  66.993  1.00  0.00    -0.263 C  
HETATM    8  H   UNL     1     -12.408  12.434  67.976  1.00  0.00     0.000 HD 
HETATM    9  O   UNL     1     -12.201  12.236  67.071  1.00  0.00    -0.522 OA 
BRANCH   7  10
HETATM   10  C   UNL     1     -10.580  10.539  67.847  1.00  0.00    -0.232 C  
BRANCH  10  11
HETATM   11  O   UNL     1     -10.266  10.908  69.191  1.00  0.00    -0.213 OA 
BRANCH  11  12
HETATM   12  C   UNL     1     -11.207  10.578  70.137  1.00  0.00    -0.315 A  
HETATM   13  C   UNL     1     -11.417   9.279  70.629  1.00  0.00    -0.327 A  
HETATM   14  C   UNL     1     -12.370   9.019  71.615  1.00  0.00    -0.416 A  
HETATM   15  C   UNL     1     -13.146  10.045  72.154  1.00  0.00    -0.482 A  
HETATM   16  C   UNL     1     -12.928  11.337  71.671  1.00  0.00    -0.432 A  
HETATM   17  C   UNL     1     -11.984  11.627  70.684  1.00  0.00    -0.356 A  
HETATM   18  C   UNL     1     -12.050  13.033  70.456  1.00  0.00    -0.373 A  
HETATM   19  C   UNL     1     -13.006  13.556  71.294  1.00  0.00    -0.304 A  
HETATM   20  N   UNL     1     -13.530  12.525  72.024  1.00  0.00    -0.468 NA 
HETATM   21  H   UNL     1     -14.261  12.622  72.729  1.00  0.00     0.000 HD 
ENDBRANCH  11  12
ENDBRANCH  10  11
ENDBRANCH   7  10
ENDBRANCH   6   7
ENDBRANCH   4   6
ENDBRANCH   2   4
TORSDOF 6
ENDMDL
MODEL       62
REMARK 921   NORMALIZED FREE ENERGY PREDICTED BY IDOCK:   -5.02 KCAL/MOL
REMARK 922        TOTAL FREE ENERGY PREDICTED BY IDOCK:   -7.16 KCAL/MOL
REMARK 923 INTER-LIGAND FREE ENERGY PREDICTED BY IDOCK:   -6.58 KCAL/MOL
REMARK 924 INTRA-LIGAND FREE ENERGY PREDICTED BY IDOCK:   -0.58 KCAL/MOL
REMARK 927      BINDING AFFINITY PREDICTED BY RF-SCORE:    0.00 PKD
ROOT
HETATM    1  C   UNL     1     -13.965  14.165  72.259  1.00  0.00    -0.646 C  
HETATM    2  C   UNL     1     -13.538  15.550  71.769  1.00  0.00    -0.482 C  
HETATM    3  C   UNL     1     -12.399  16.073  72.650  1.00  0.00    -0.594 C  
ENDROOT
BRANCH   2   4
HETATM    4  N   UNL     1     -13.136  15.435  70.364  1.00  0.00    -0.685 NA 
HETATM    5  H   UNL     1     -13.551  16.184  69.809  1.00  0.00     0.000 HD 
BRANCH   4   6
HETATM    6  C   UNL     1     -11.685  15.390  70.172  1.00  0.00    -0.330 C  
BRANCH   6   7
HETATM    7  C   UNL     1     -11.315  14.597  68.902  1.00  0.00    -0.283 C  
HETATM    8  H   UNL     1      -9.668  13.885  68.111  1.00  0.00     0.000 HD 
HETATM    9  O   UNL     1      -9.896  14.373  68.892  1.00  0.00    -0.218 OA 
BRANCH   7  10
HETATM   10  C   UNL     1     -12.114  13.281  68.889  1.00  0.00    -0.222 C  
BRANCH  10  11
HETATM   11  O   UNL     1     -11.230  12.162  68.968  1.00  0.00    -0.234 OA 
BRANCH  11  12
HETATM   12  C   UNL     1     -11.514  11.243  69.951  1.00  0.00    -0.293 A  
HETATM   13  C   UNL     1     -12.687  11.248  70.726  1.00  0.00    -0.360 A  
HETATM   14  C   UNL     1     -12.928  10.265  71.688  1.00  0.00    -0.570 A  
HETATM   15  C   UNL     1     -12.011   9.236  71.910  1.00  0.00    -0.433 A  
HETATM   16  C   UNL     1     -10.853   9.229  71.132  1.00  0.00    -0.337 A  
HETATM   17  C   UNL     1     -10.584  10.199  70.164  1.00  0.00    -0.337 A  
HETATM   18  C   UNL     1      -9.325   9.862  69.585  1.00  0.00    -0.247 A  
HETATM   19  C   UNL     1      -8.869   8.716  70.195  1.00  0.00    -0.141 A  
HETATM   20  N   UNL     1      -9.798   8.342  71.126  1.00  0.00    -0.169 NA 
HETATM   21  H   UNL     1      -9.721   7.522  71.729  1.00  0.00     0.000 HD 
ENDBRANCH  11  12
ENDBRANCH  10  11
ENDBRANCH   7  10
ENDBRANCH   6   7
ENDBRANCH   4   6
ENDBRANCH   2   4
TORSDOF 6
ENDMDL
MODEL       63
REMARK 921   NORMALIZED FREE ENERGY PREDICTED BY IDOCK:   -5.01 KCAL/MOL
REMARK 922        TOTAL FREE ENERGY PREDICTED BY IDOCK:   -7.15 KCAL/MOL
REMARK 923 INTER-LIGAND FREE ENERGY PREDICTED BY IDOCK:   -6.45 KCAL/MOL
REMARK 924 INTRA-LIGAND FREE ENERGY PREDICTED BY IDOCK:   -0.70 KCAL/MOL
REMARK 927      BINDING AFFINITY PREDICTED BY RF-SCORE:    0.00 PKD
ROOT
HETATM    1  C   UNL     1     -12.523  12.725  64.917  1.00  0.00    -0.563 C  
HETATM    2  C   UNL     1     -11.695  13.804  65.618  1.00  0.00    -0.347 C  
HETATM    3  C   UNL     1     -11.557  15.020  64.697  1.00  0.00    -0.386 C  
ENDROOT
BRANCH   2   4
HETATM    4  N   UNL     1     -12.358  14.144  66.880  1.00  0.00    -0.565 NA 
HETATM    5  H   UNL     1     -13.307  13.770  66.901  1.00  0.00     0.000 HD 
BRANCH   4   6
HETATM    6  C   UNL     1     -11.610  13.722  68.066  1.00  0.00    -0.333 C  
BRANCH   6   7
HETATM    7  C   UNL     1     -11.757  14.744  69.212  1.00  0.00    -0.316 C  
HETATM    8  H   UNL     1     -12.129  14.667  71.135  1.00  0.00     0.000 HD 
HETATM    9  O   UNL     1     -12.038  14.038  70.430  1.00  0.00    -0.313 OA 
BRANCH   7  10
HETATM   10  C   UNL     1     -10.465  15.576  69.304  1.00  0.00    -0.245 C  
BRANCH  10  11
HETATM   11  O   UNL     1     -10.154  16.153  68.034  1.00  0.00    -0.234 OA 
BRANCH  11  12
HETATM   12  C   UNL     1      -9.289  17.222  68.059  1.00  0.00    -0.264 A  
HETATM   13  C   UNL     1      -8.105  17.267  68.815  1.00  0.00    -0.242 A  
HETATM   14  C   UNL     1      -7.254  18.373  68.769  1.00  0.00    -0.300 A  
HETATM   15  C   UNL     1      -7.547  19.473  67.963  1.00  0.00    -0.331 A  
HETATM   16  C   UNL     1      -8.718  19.421  67.205  1.00  0.00    -0.296 A  
HETATM   17  C   UNL     1      -9.589  18.329  67.232  1.00  0.00    -0.281 A  
HETATM   18  C   UNL     1     -10.659  18.638  66.340  1.00  0.00    -0.399 A  
HETATM   19  C   UNL     1     -10.417  19.879  65.798  1.00  0.00    -0.414 A  
HETATM   20  N   UNL     1      -9.243  20.342  66.326  1.00  0.00    -0.620 NA 
HETATM   21  H   UNL     1      -8.817  21.242  66.100  1.00  0.00     0.000 HD 
ENDBRANCH  11  12
ENDBRANCH  10  11
ENDBRANCH   7  10
ENDBRANCH   6   7
ENDBRANCH   4   6
ENDBRANCH   2   4
TORSDOF 6
ENDMDL
MODEL       64
REMARK 921   NORMALIZED FREE ENERGY PREDICTED BY IDOCK:   -5.00 KCAL/MOL
REMARK 922        TOTAL FREE ENERGY PREDICTED BY IDOCK:   -7.13 KCAL/MOL
REMARK 923 INTER-LIGAND FREE ENERGY PREDICTED BY IDOCK:   -6.53 KCAL/MOL
REMARK 924 INTRA-LIGAND FREE ENERGY PREDICTED BY IDOCK:   -0.60 KCAL/MOL
REMARK 927      BINDING AFFINITY PREDICTED BY RF-SCORE:    0.00 PKD
ROOT
HETATM    1  C   UNL     1      -6.769  18.906  69.066  1.00  0.00    -0.324 C  
HETATM    2  C   UNL     1      -7.697  17.928  68.343  1.00  0.00    -0.291 C  
HETATM    3  C   UNL     1      -7.600  16.550  69.005  1.00  0.00    -0.233 C  
ENDROOT
BRANCH   2   4
HETATM    4  N   UNL     1      -9.059  18.466  68.391  1.00  0.00    -0.314 NA 
HETATM    5  H   UNL     1      -9.200  19.015  69.239  1.00  0.00     0.000 HD 
BRANCH   4   6
HETATM    6  C   UNL     1      -9.424  19.243  67.204  1.00  0.00    -0.323 C  
BRANCH   6   7
HETATM    7  C   UNL     1     -10.525  18.533  66.390  1.00  0.00    -0.406 C  
HETATM    8  H   UNL     1     -11.555  18.923  64.768  1.00  0.00     0.000 HD 
HETATM    9  O   UNL     1     -10.878  19.359  65.269  1.00  0.00    -0.477 OA 
BRANCH   7  10
HETATM   10  C   UNL     1     -10.007  17.150  65.956  1.00  0.00    -0.253 C  
BRANCH  10  11
HETATM   11  O   UNL     1     -10.492  16.138  66.839  1.00  0.00    -0.298 OA 
BRANCH  11  12
HETATM   12  C   UNL     1     -11.119  15.071  66.240  1.00  0.00    -0.334 A  
HETATM   13  C   UNL     1     -11.621  15.081  64.928  1.00  0.00    -0.374 A  
HETATM   14  C   UNL     1     -12.219  13.950  64.369  1.00  0.00    -0.449 A  
HETATM   15  C   UNL     1     -12.336  12.764  65.095  1.00  0.00    -0.555 A  
HETATM   16  C   UNL     1     -11.827  12.755  66.395  1.00  0.00    -0.408 A  
HETATM   17  C   UNL     1     -11.225  13.871  66.980  1.00  0.00    -0.327 A  
HETATM   18  C   UNL     1     -10.837  13.481  68.297  1.00  0.00    -0.277 A  
HETATM   19  C   UNL     1     -11.197  12.166  68.476  1.00  0.00    -0.260 A  
HETATM   20  N   UNL     1     -11.793  11.737  67.322  1.00  0.00    -0.624 NA 
HETATM   21  H   UNL     1     -12.160  10.797  67.171  1.00  0.00     0.000 HD 
ENDBRANCH  11  12
ENDBRANCH  10  11
ENDBRANCH   7  10
ENDBRANCH   6   7
ENDBRANCH   4   6
ENDBRANCH   2   4
TORSDOF 6
ENDMDL
MODEL       65
REMARK 921   NORMALIZED FREE ENERGY PREDICTED BY IDOCK:   -4.99 KCAL/MOL
REMARK 922        TOTAL FREE ENERGY PREDICTED BY IDOCK:   -7.12 KCAL/MOL
REMARK 923 INTER-LIGAND FREE ENERGY PREDICTED BY IDOCK:   -6.97 KCAL/MOL
REMARK 924 INTRA-LIGAND FREE ENERGY PREDICTED BY IDOCK:   -0.15 KCAL/MOL
REMARK 927      BINDING AFFINITY PREDICTED BY RF-SCORE:    0.00 PKD
ROOT
HETATM    1  C   UNL     1     -10.357  10.798  64.624  1.00  0.00    -0.394 C  
HETATM    2  C   UNL     1     -10.655  11.727  63.445  1.00  0.00    -0.420 C  
HETATM    3  C   UNL     1     -12.171  11.852  63.266  1.00  0.00    -0.487 C  
ENDROOT
BRANCH   2   4
HETATM    4  N   UNL     1     -10.025  13.024  63.712  1.00  0.00    -0.734 NA 
HETATM    5  H   UNL     1     -10.169  13.663  62.930  1.00  0.00     0.000 HD 
BRANCH   4   6
HETATM    6  C   UNL     1     -10.458  13.637  64.970  1.00  0.00    -0.391 C  
BRANCH   6   7
HETATM    7  C   UNL     1     -11.602  14.644  64.735  1.00  0.00    -0.418 C  
HETATM    8  H   UNL     1     -13.374  14.974  65.506  1.00  0.00     0.000 HD 
HETATM    9  O   UNL     1     -12.670  14.355  65.651  1.00  0.00    -0.407 OA 
BRANCH   7  10
HETATM   10  C   UNL     1     -11.052  16.070  64.910  1.00  0.00    -0.370 C  
BRANCH  10  11
HETATM   11  O   UNL     1     -10.604  16.269  66.252  1.00  0.00    -0.304 OA 
BRANCH  11  12
HETATM   12  C   UNL     1      -9.440  16.988  66.394  1.00  0.00    -0.271 A  
HETATM   13  C   UNL     1      -8.151  16.443  66.271  1.00  0.00    -0.311 A  
HETATM   14  C   UNL     1      -7.010  17.238  66.395  1.00  0.00    -0.310 A  
HETATM   15  C   UNL     1      -7.110  18.608  66.641  1.00  0.00    -0.235 A  
HETATM   16  C   UNL     1      -8.393  19.148  66.753  1.00  0.00    -0.293 A  
HETATM   17  C   UNL     1      -9.552  18.377  66.634  1.00  0.00    -0.320 A  
HETATM   18  C   UNL     1     -10.653  19.268  66.805  1.00  0.00    -0.543 A  
HETATM   19  C   UNL     1     -10.152  20.531  67.011  1.00  0.00    -0.276 A  
HETATM   20  N   UNL     1      -8.786  20.449  66.977  1.00  0.00    -0.485 NA 
HETATM   21  H   UNL     1      -8.151  21.238  67.100  1.00  0.00     0.000 HD 
ENDBRANCH  11  12
ENDBRANCH  10  11
ENDBRANCH   7  10
ENDBRANCH   6   7
ENDBRANCH   4   6
ENDBRANCH   2   4
TORSDOF 6
ENDMDL
MODEL       66
REMARK 921   NORMALIZED FREE ENERGY PREDICTED BY IDOCK:   -4.99 KCAL/MOL
REMARK 922        TOTAL FREE ENERGY PREDICTED BY IDOCK:   -7.11 KCAL/MOL
REMARK 923 INTER-LIGAND FREE ENERGY PREDICTED BY IDOCK:   -6.32 KCAL/MOL
REMARK 924 INTRA-LIGAND FREE ENERGY PREDICTED BY IDOCK:   -0.79 KCAL/MOL
REMARK 927      BINDING AFFINITY PREDICTED BY RF-SCORE:    0.00 PKD
ROOT
HETATM    1  C   UNL     1     -10.626  11.042  65.183  1.00  0.00    -0.295 C  
HETATM    2  C   UNL     1     -11.275  12.356  64.743  1.00  0.00    -0.310 C  
HETATM    3  C   UNL     1     -11.636  12.274  63.257  1.00  0.00    -0.434 C  
ENDROOT
BRANCH   2   4
HETATM    4  N   UNL     1     -12.454  12.589  65.583  1.00  0.00    -0.611 NA 
HETATM    5  H   UNL     1     -12.601  11.808  66.223  1.00  0.00     0.000 HD 
BRANCH   4   6
HETATM    6  C   UNL     1     -12.411  13.857  66.314  1.00  0.00    -0.449 C  
BRANCH   6   7
HETATM    7  C   UNL     1     -11.358  13.817  67.440  1.00  0.00    -0.324 C  
HETATM    8  H   UNL     1     -10.268  15.131  68.403  1.00  0.00     0.000 HD 
HETATM    9  O   UNL     1     -10.917  15.156  67.711  1.00  0.00    -0.286 OA 
BRANCH   7  10
HETATM   10  C   UNL     1     -11.980  13.145  68.677  1.00  0.00    -0.284 C  
BRANCH  10  11
HETATM   11  O   UNL     1     -12.139  11.743  68.455  1.00  0.00    -0.490 OA 
BRANCH  11  12
HETATM   12  C   UNL     1     -11.993  10.941  69.562  1.00  0.00    -0.330 A  
HETATM   13  C   UNL     1     -13.020  10.658  70.478  1.00  0.00    -0.277 A  
HETATM   14  C   UNL     1     -12.812   9.808  71.566  1.00  0.00    -0.502 A  
HETATM   15  C   UNL     1     -11.573   9.203  71.779  1.00  0.00    -0.457 A  
HETATM   16  C   UNL     1     -10.558   9.477  70.862  1.00  0.00    -0.325 A  
HETATM   17  C   UNL     1     -10.736  10.324  69.765  1.00  0.00    -0.328 A  
HETATM   18  C   UNL     1      -9.492  10.358  69.068  1.00  0.00    -0.205 A  
HETATM   19  C   UNL     1      -8.607   9.544  69.736  1.00  0.00    -0.192 A  
HETATM   20  N   UNL     1      -9.260   9.016  70.816  1.00  0.00    -0.224 NA 
HETATM   21  H   UNL     1      -8.845   8.374  71.492  1.00  0.00     0.000 HD 
ENDBRANCH  11  12
ENDBRANCH  10  11
ENDBRANCH   7  10
ENDBRANCH   6   7
ENDBRANCH   4   6
ENDBRANCH   2   4
TORSDOF 6
ENDMDL
MODEL       67
REMARK 921   NORMALIZED FREE ENERGY PREDICTED BY IDOCK:   -4.94 KCAL/MOL
REMARK 922        TOTAL FREE ENERGY PREDICTED BY IDOCK:   -7.04 KCAL/MOL
REMARK 923 INTER-LIGAND FREE ENERGY PREDICTED BY IDOCK:   -6.31 KCAL/MOL
REMARK 924 INTRA-LIGAND FREE ENERGY PREDICTED BY IDOCK:   -0.73 KCAL/MOL
REMARK 927      BINDING AFFINITY PREDICTED BY RF-SCORE:    0.00 PKD
ROOT
HETATM    1  C   UNL     1      -9.832  19.078  67.196  1.00  0.00    -0.383 C  
HETATM    2  C   UNL     1     -10.348  17.661  66.935  1.00  0.00    -0.329 C  
HETATM    3  C   UNL     1      -9.225  16.812  66.333  1.00  0.00    -0.309 C  
ENDROOT
BRANCH   2   4
HETATM    4  N   UNL     1     -10.834  17.109  68.203  1.00  0.00    -0.363 NA 
HETATM    5  H   UNL     1     -11.841  16.948  68.164  1.00  0.00     0.000 HD 
BRANCH   4   6
HETATM    6  C   UNL     1     -10.131  15.893  68.620  1.00  0.00    -0.216 C  
BRANCH   6   7
HETATM    7  C   UNL     1     -11.062  14.955  69.414  1.00  0.00    -0.280 C  
HETATM    8  H   UNL     1     -12.715  15.149  70.450  1.00  0.00     0.000 HD 
HETATM    9  O   UNL     1     -12.142  15.727  69.961  1.00  0.00    -0.365 OA 
BRANCH   7  10
HETATM   10  C   UNL     1     -11.558  13.839  68.476  1.00  0.00    -0.338 C  
BRANCH  10  11
HETATM   11  O   UNL     1     -11.061  14.044  67.153  1.00  0.00    -0.291 OA 
BRANCH  11  12
HETATM   12  C   UNL     1     -10.626  12.917  66.496  1.00  0.00    -0.259 A  
HETATM   13  C   UNL     1      -9.716  11.989  67.029  1.00  0.00    -0.204 A  
HETATM   14  C   UNL     1      -9.341  10.847  66.320  1.00  0.00    -0.203 A  
HETATM   15  C   UNL     1      -9.864  10.583  65.053  1.00  0.00    -0.369 A  
HETATM   16  C   UNL     1     -10.776  11.501  64.530  1.00  0.00    -0.329 A  
HETATM   17  C   UNL     1     -11.168  12.652  65.216  1.00  0.00    -0.335 A  
HETATM   18  C   UNL     1     -12.098  13.332  64.374  1.00  0.00    -0.471 A  
HETATM   19  C   UNL     1     -12.252  12.593  63.225  1.00  0.00    -0.417 A  
HETATM   20  N   UNL     1     -11.450  11.489  63.329  1.00  0.00    -0.852 NA 
HETATM   21  H   UNL     1     -11.365  10.761  62.619  1.00  0.00     0.000 HD 
ENDBRANCH  11  12
ENDBRANCH  10  11
ENDBRANCH   7  10
ENDBRANCH   6   7
ENDBRANCH   4   6
ENDBRANCH   2   4
TORSDOF 6
ENDMDL
MODEL       68
REMARK 921   NORMALIZED FREE ENERGY PREDICTED BY IDOCK:   -4.94 KCAL/MOL
REMARK 922        TOTAL FREE ENERGY PREDICTED BY IDOCK:   -7.04 KCAL/MOL
REMARK 923 INTER-LIGAND FREE ENERGY PREDICTED BY IDOCK:   -6.21 KCAL/MOL
REMARK 924 INTRA-LIGAND FREE ENERGY PREDICTED BY IDOCK:   -0.83 KCAL/MOL
REMARK 927      BINDING AFFINITY PREDICTED BY RF-SCORE:    0.00 PKD
ROOT
HETATM    1  C   UNL     1     -10.525  19.417  66.014  1.00  0.00    -0.596 C  
HETATM    2  C   UNL     1      -9.621  19.996  67.105  1.00  0.00    -0.402 C  
HETATM    3  C   UNL     1     -10.227  19.699  68.480  1.00  0.00    -0.529 C  
ENDROOT
BRANCH   2   4
HETATM    4  N   UNL     1      -8.286  19.409  66.954  1.00  0.00    -0.275 NA 
HETATM    5  H   UNL     1      -7.573  20.137  66.927  1.00  0.00     0.000 HD 
BRANCH   4   6
HETATM    6  C   UNL     1      -7.969  18.409  67.976  1.00  0.00    -0.276 C  
BRANCH   6   7
HETATM    7  C   UNL     1      -7.172  17.232  67.377  1.00  0.00    -0.161 C  
HETATM    8  H   UNL     1      -5.936  15.871  68.058  1.00  0.00     0.000 HD 
HETATM    9  O   UNL     1      -6.427  16.595  68.426  1.00  0.00    -0.130 OA 
BRANCH   7  10
HETATM   10  C   UNL     1      -8.154  16.267  66.688  1.00  0.00    -0.288 C  
BRANCH  10  11
HETATM   11  O   UNL     1      -9.470  16.435  67.219  1.00  0.00    -0.224 OA 
BRANCH  11  12
HETATM   12  C   UNL     1     -10.230  15.293  67.304  1.00  0.00    -0.248 A  
HETATM   13  C   UNL     1     -10.283  14.457  68.432  1.00  0.00    -0.243 A  
HETATM   14  C   UNL     1     -11.103  13.328  68.464  1.00  0.00    -0.294 A  
HETATM   15  C   UNL     1     -11.907  12.991  67.374  1.00  0.00    -0.411 A  
HETATM   16  C   UNL     1     -11.860  13.829  66.258  1.00  0.00    -0.398 A  
HETATM   17  C   UNL     1     -11.048  14.964  66.198  1.00  0.00    -0.335 A  
HETATM   18  C   UNL     1     -11.268  15.555  64.918  1.00  0.00    -0.396 A  
HETATM   19  C   UNL     1     -12.192  14.789  64.248  1.00  0.00    -0.379 A  
HETATM   20  N   UNL     1     -12.544  13.750  65.065  1.00  0.00    -0.631 NA 
HETATM   21  H   UNL     1     -13.216  13.021  64.825  1.00  0.00     0.000 HD 
ENDBRANCH  11  12
ENDBRANCH  10  11
ENDBRANCH   7  10
ENDBRANCH   6   7
ENDBRANCH   4   6
ENDBRANCH   2   4
TORSDOF 6
ENDMDL
MODEL       69
REMARK 921   NORMALIZED FREE ENERGY PREDICTED BY IDOCK:   -4.93 KCAL/MOL
REMARK 922        TOTAL FREE ENERGY PREDICTED BY IDOCK:   -7.04 KCAL/MOL
REMARK 923 INTER-LIGAND FREE ENERGY PREDICTED BY IDOCK:   -6.42 KCAL/MOL
REMARK 924 INTRA-LIGAND FREE ENERGY PREDICTED BY IDOCK:   -0.62 KCAL/MOL
REMARK 927      BINDING AFFINITY PREDICTED BY RF-SCORE:    0.00 PKD
ROOT
HETATM    1  C   UNL     1     -13.464   8.986  72.319  1.00  0.00    -0.529 C  
HETATM    2  C   UNL     1     -12.016   8.886  71.835  1.00  0.00    -0.371 C  
HETATM    3  C   UNL     1     -11.230   7.958  72.766  1.00  0.00    -0.466 C  
ENDROOT
BRANCH   2   4
HETATM    4  N   UNL     1     -12.026   8.397  70.453  1.00  0.00    -0.467 NA 
HETATM    5  H   UNL     1     -12.229   9.157  69.803  1.00  0.00     0.000 HD 
BRANCH   4   6
HETATM    6  C   UNL     1     -10.796   7.701  70.069  1.00  0.00    -0.243 C  
BRANCH   6   7
HETATM    7  C   UNL     1     -10.043   8.467  68.963  1.00  0.00    -0.203 C  
HETATM    8  H   UNL     1     -10.122   8.563  67.007  1.00  0.00     0.000 HD 
HETATM    9  O   UNL     1     -10.585   8.092  67.688  1.00  0.00    -0.235 OA 
BRANCH   7  10
HETATM   10  C   UNL     1     -10.171   9.977  69.231  1.00  0.00    -0.214 C  
BRANCH  10  11
HETATM   11  O   UNL     1     -11.402  10.473  68.703  1.00  0.00    -0.263 OA 
BRANCH  11  12
HETATM   12  C   UNL     1     -11.746  11.748  69.085  1.00  0.00    -0.325 A  
HETATM   13  C   UNL     1     -11.983  12.142  70.413  1.00  0.00    -0.360 A  
HETATM   14  C   UNL     1     -12.297  13.464  70.735  1.00  0.00    -0.433 A  
HETATM   15  C   UNL     1     -12.383  14.445  69.746  1.00  0.00    -0.333 A  
HETATM   16  C   UNL     1     -12.138  14.052  68.430  1.00  0.00    -0.283 A  
HETATM   17  C   UNL     1     -11.823  12.738  68.077  1.00  0.00    -0.386 A  
HETATM   18  C   UNL     1     -11.644  12.726  66.662  1.00  0.00    -0.430 A  
HETATM   19  C   UNL     1     -11.843  14.005  66.197  1.00  0.00    -0.407 A  
HETATM   20  N   UNL     1     -12.140  14.798  67.271  1.00  0.00    -0.476 NA 
HETATM   21  H   UNL     1     -12.335  15.798  67.221  1.00  0.00     0.000 HD 
ENDBRANCH  11  12
ENDBRANCH  10  11
ENDBRANCH   7  10
ENDBRANCH   6   7
ENDBRANCH   4   6
ENDBRANCH   2   4
TORSDOF 6
ENDMDL
MODEL       70
REMARK 921   NORMALIZED FREE ENERGY PREDICTED BY IDOCK:   -4.91 KCAL/MOL
REMARK 922        TOTAL FREE ENERGY PREDICTED BY IDOCK:   -7.01 KCAL/MOL
REMARK 923 INTER-LIGAND FREE ENERGY PREDICTED BY IDOCK:   -6.42 KCAL/MOL
REMARK 924 INTRA-LIGAND FREE ENERGY PREDICTED BY IDOCK:   -0.59 KCAL/MOL
REMARK 927      BINDING AFFINITY PREDICTED BY RF-SCORE:    0.00 PKD
ROOT
HETATM    1  C   UNL     1      -8.330  16.945  66.317  1.00  0.00    -0.331 C  
HETATM    2  C   UNL     1      -9.859  16.966  66.372  1.00  0.00    -0.305 C  
HETATM    3  C   UNL     1     -10.352  18.414  66.293  1.00  0.00    -0.440 C  
ENDROOT
BRANCH   2   4
HETATM    4  N   UNL     1     -10.369  16.152  65.264  1.00  0.00    -0.565 NA 
HETATM    5  H   UNL     1      -9.600  15.781  64.706  1.00  0.00     0.000 HD 
BRANCH   4   6
HETATM    6  C   UNL     1     -11.265  15.075  65.694  1.00  0.00    -0.327 C  
BRANCH   6   7
HETATM    7  C   UNL     1     -12.303  14.745  64.603  1.00  0.00    -0.333 C  
HETATM    8  H   UNL     1     -13.050  15.661  63.039  1.00  0.00     0.000 HD 
HETATM    9  O   UNL     1     -12.410  15.865  63.711  1.00  0.00    -0.791 OA 
BRANCH   7  10
HETATM   10  C   UNL     1     -11.869  13.459  63.878  1.00  0.00    -0.439 C  
BRANCH  10  11
HETATM   11  O   UNL     1     -10.463  13.255  64.025  1.00  0.00    -0.374 OA 
BRANCH  11  12
HETATM   12  C   UNL     1     -10.045  11.945  64.028  1.00  0.00    -0.334 A  
HETATM   13  C   UNL     1      -9.440  11.303  62.935  1.00  0.00    -0.385 A  
HETATM   14  C   UNL     1      -9.009   9.977  63.016  1.00  0.00    -0.272 A  
HETATM   15  C   UNL     1      -9.160   9.243  64.193  1.00  0.00    -0.045 A  
HETATM   16  C   UNL     1      -9.751   9.887  65.281  1.00  0.00    -0.313 A  
HETATM   17  C   UNL     1     -10.193  11.211  65.228  1.00  0.00    -0.337 A  
HETATM   18  C   UNL     1     -10.733  11.513  66.514  1.00  0.00    -0.318 A  
HETATM   19  C   UNL     1     -10.605  10.394  67.303  1.00  0.00    -0.267 A  
HETATM   20  N   UNL     1     -10.010   9.419  66.551  1.00  0.00    -0.251 NA 
HETATM   21  H   UNL     1      -9.790   8.479  66.882  1.00  0.00     0.000 HD 
ENDBRANCH  11  12
ENDBRANCH  10  11
ENDBRANCH   7  10
ENDBRANCH   6   7
ENDBRANCH   4   6
ENDBRANCH   2   4
TORSDOF 6
ENDMDL
MODEL       71
REMARK 921   NORMALIZED FREE ENERGY PREDICTED BY IDOCK:   -4.90 KCAL/MOL
REMARK 922        TOTAL FREE ENERGY PREDICTED BY IDOCK:   -7.00 KCAL/MOL
REMARK 923 INTER-LIGAND FREE ENERGY PREDICTED BY IDOCK:   -6.11 KCAL/MOL
REMARK 924 INTRA-LIGAND FREE ENERGY PREDICTED BY IDOCK:   -0.89 KCAL/MOL
REMARK 927      BINDING AFFINITY PREDICTED BY RF-SCORE:    0.00 PKD
ROOT
HETATM    1  C   UNL     1     -12.180  13.350  70.652  1.00  0.00    -0.427 C  
HETATM    2  C   UNL     1     -12.287  14.766  70.081  1.00  0.00    -0.330 C  
HETATM    3  C   UNL     1     -11.083  15.593  70.541  1.00  0.00    -0.375 C  
ENDROOT
BRANCH   2   4
HETATM    4  N   UNL     1     -12.359  14.667  68.620  1.00  0.00    -0.593 NA 
HETATM    5  H   UNL     1     -11.864  15.444  68.181  1.00  0.00     0.000 HD 
BRANCH   4   6
HETATM    6  C   UNL     1     -11.880  13.386  68.096  1.00  0.00    -0.361 C  
BRANCH   6   7
HETATM    7  C   UNL     1     -11.605  13.470  66.581  1.00  0.00    -0.363 C  
HETATM    8  H   UNL     1     -12.542  14.180  65.012  1.00  0.00     0.000 HD 
HETATM    9  O   UNL     1     -12.712  14.128  65.945  1.00  0.00    -0.487 OA 
BRANCH   7  10
HETATM   10  C   UNL     1     -10.276  14.215  66.359  1.00  0.00    -0.290 C  
BRANCH  10  11
HETATM   11  O   UNL     1     -10.406  15.587  66.738  1.00  0.00    -0.275 OA 
BRANCH  11  12
HETATM   12  C   UNL     1      -9.240  16.222  67.095  1.00  0.00    -0.213 A  
HETATM   13  C   UNL     1      -7.953  15.718  66.842  1.00  0.00    -0.285 A  
HETATM   14  C   UNL     1      -6.808  16.431  67.204  1.00  0.00    -0.238 A  
HETATM   15  C   UNL     1      -6.903  17.676  67.826  1.00  0.00    -0.187 A  
HETATM   16  C   UNL     1      -8.183  18.178  68.067  1.00  0.00    -0.260 A  
HETATM   17  C   UNL     1      -9.345  17.487  67.718  1.00  0.00    -0.257 A  
HETATM   18  C   UNL     1     -10.443  18.307  68.117  1.00  0.00    -0.359 A  
HETATM   19  C   UNL     1      -9.936  19.454  68.680  1.00  0.00    -0.444 A  
HETATM   20  N   UNL     1      -8.571  19.367  68.644  1.00  0.00    -0.363 NA 
HETATM   21  H   UNL     1      -7.932  20.081  68.995  1.00  0.00     0.000 HD 
ENDBRANCH  11  12
ENDBRANCH  10  11
ENDBRANCH   7  10
ENDBRANCH   6   7
ENDBRANCH   4   6
ENDBRANCH   2   4
TORSDOF 6
ENDMDL
MODEL       72
REMARK 921   NORMALIZED FREE ENERGY PREDICTED BY IDOCK:   -4.89 KCAL/MOL
REMARK 922        TOTAL FREE ENERGY PREDICTED BY IDOCK:   -6.99 KCAL/MOL
REMARK 923 INTER-LIGAND FREE ENERGY PREDICTED BY IDOCK:   -6.63 KCAL/MOL
REMARK 924 INTRA-LIGAND FREE ENERGY PREDICTED BY IDOCK:   -0.36 KCAL/MOL
REMARK 927      BINDING AFFINITY PREDICTED BY RF-SCORE:    0.00 PKD
ROOT
HETATM    1  C   UNL     1     -10.246   7.576  73.074  1.00  0.00    -0.360 C  
HETATM    2  C   UNL     1     -11.170   6.585  72.364  1.00  0.00    -0.275 C  
HETATM    3  C   UNL     1     -11.285   5.306  73.199  1.00  0.00    -0.382 C  
ENDROOT
BRANCH   2   4
HETATM    4  N   UNL     1     -12.471   7.231  72.166  1.00  0.00    -0.492 NA 
HETATM    5  H   UNL     1     -12.877   7.505  73.061  1.00  0.00     0.000 HD 
BRANCH   4   6
HETATM    6  C   UNL     1     -12.425   8.370  71.247  1.00  0.00    -0.244 C  
BRANCH   6   7
HETATM    7  C   UNL     1     -13.573   9.360  71.527  1.00  0.00    -0.336 C  
HETATM    8  H   UNL     1     -15.043   9.490  72.819  1.00  0.00     0.000 HD 
HETATM    9  O   UNL     1     -14.335   8.881  72.646  1.00  0.00    -0.613 OA 
BRANCH   7  10
HETATM   10  C   UNL     1     -12.975  10.755  71.783  1.00  0.00    -0.463 C  
BRANCH  10  11
HETATM   11  O   UNL     1     -12.045  11.093  70.753  1.00  0.00    -0.344 OA 
BRANCH  11  12
HETATM   12  C   UNL     1     -12.134  12.375  70.264  1.00  0.00    -0.297 A  
HETATM   13  C   UNL     1     -12.415  13.506  71.049  1.00  0.00    -0.451 A  
HETATM   14  C   UNL     1     -12.459  14.786  70.492  1.00  0.00    -0.411 A  
HETATM   15  C   UNL     1     -12.219  14.988  69.132  1.00  0.00    -0.186 A  
HETATM   16  C   UNL     1     -11.929  13.864  68.357  1.00  0.00    -0.356 A  
HETATM   17  C   UNL     1     -11.880  12.572  68.886  1.00  0.00    -0.346 A  
HETATM   18  C   UNL     1     -11.560  11.700  67.803  1.00  0.00    -0.359 A  
HETATM   19  C   UNL     1     -11.418  12.463  66.668  1.00  0.00    -0.370 A  
HETATM   20  N   UNL     1     -11.642  13.768  67.013  1.00  0.00    -0.345 NA 
HETATM   21  H   UNL     1     -11.602  14.557  66.367  1.00  0.00     0.000 HD 
ENDBRANCH  11  12
ENDBRANCH  10  11
ENDBRANCH   7  10
ENDBRANCH   6   7
ENDBRANCH   4   6
ENDBRANCH   2   4
TORSDOF 6
ENDMDL
MODEL       73
REMARK 921   NORMALIZED FREE ENERGY PREDICTED BY IDOCK:   -4.89 KCAL/MOL
REMARK 922        TOTAL FREE ENERGY PREDICTED BY IDOCK:   -6.98 KCAL/MOL
REMARK 923 INTER-LIGAND FREE ENERGY PREDICTED BY IDOCK:   -6.48 KCAL/MOL
REMARK 924 INTRA-LIGAND FREE ENERGY PREDICTED BY IDOCK:   -0.50 KCAL/MOL
REMARK 927      BINDING AFFINITY PREDICTED BY RF-SCORE:    0.00 PKD
ROOT
HETATM    1  C   UNL     1      -9.643  19.402  68.181  1.00  0.00    -0.437 C  
HETATM    2  C   UNL     1     -10.272  18.646  67.009  1.00  0.00    -0.381 C  
HETATM    3  C   UNL     1     -10.751  19.648  65.954  1.00  0.00    -0.515 C  
ENDROOT
BRANCH   2   4
HETATM    4  N   UNL     1      -9.271  17.719  66.471  1.00  0.00    -0.275 NA 
HETATM    5  H   UNL     1      -8.487  17.621  67.117  1.00  0.00     0.000 HD 
BRANCH   4   6
HETATM    6  C   UNL     1      -9.818  16.408  66.117  1.00  0.00    -0.338 C  
BRANCH   6   7
HETATM    7  C   UNL     1     -10.019  15.530  67.369  1.00  0.00    -0.234 C  
HETATM    8  H   UNL     1     -11.550  14.797  68.350  1.00  0.00     0.000 HD 
HETATM    9  O   UNL     1     -11.426  15.337  67.579  1.00  0.00    -0.333 OA 
BRANCH   7  10
HETATM   10  C   UNL     1      -9.271  14.200  67.167  1.00  0.00    -0.231 C  
BRANCH  10  11
HETATM   11  O   UNL     1     -10.194  13.111  67.130  1.00  0.00    -0.241 OA 
BRANCH  11  12
HETATM   12  C   UNL     1      -9.969  12.168  66.155  1.00  0.00    -0.233 A  
HETATM   13  C   UNL     1      -8.995  11.158  66.238  1.00  0.00    -0.202 A  
HETATM   14  C   UNL     1      -8.840  10.211  65.224  1.00  0.00    -0.201 A  
HETATM   15  C   UNL     1      -9.655  10.231  64.091  1.00  0.00    -0.376 A  
HETATM   16  C   UNL     1     -10.629  11.228  64.017  1.00  0.00    -0.386 A  
HETATM   17  C   UNL     1     -10.805  12.189  65.015  1.00  0.00    -0.344 A  
HETATM   18  C   UNL     1     -11.880  13.027  64.590  1.00  0.00    -0.422 A  
HETATM   19  C   UNL     1     -12.327  12.563  63.375  1.00  0.00    -0.477 A  
HETATM   20  N   UNL     1     -11.566  11.477  63.038  1.00  0.00    -0.856 NA 
HETATM   21  H   UNL     1     -11.677  10.929  62.184  1.00  0.00     0.000 HD 
ENDBRANCH  11  12
ENDBRANCH  10  11
ENDBRANCH   7  10
ENDBRANCH   6   7
ENDBRANCH   4   6
ENDBRANCH   2   4
TORSDOF 6
ENDMDL
MODEL       74
REMARK 921   NORMALIZED FREE ENERGY PREDICTED BY IDOCK:   -4.88 KCAL/MOL
REMARK 922        TOTAL FREE ENERGY PREDICTED BY IDOCK:   -6.97 KCAL/MOL
REMARK 923 INTER-LIGAND FREE ENERGY PREDICTED BY IDOCK:   -6.67 KCAL/MOL
REMARK 924 INTRA-LIGAND FREE ENERGY PREDICTED BY IDOCK:   -0.30 KCAL/MOL
REMARK 927      BINDING AFFINITY PREDICTED BY RF-SCORE:    0.00 PKD
ROOT
HETATM    1  C   UNL     1     -11.407  12.226  65.435  1.00  0.00    -0.389 C  
HETATM    2  C   UNL     1     -11.846  12.824  64.097  1.00  0.00    -0.413 C  
HETATM    3  C   UNL     1     -12.530  11.742  63.255  1.00  0.00    -0.411 C  
ENDROOT
BRANCH   2   4
HETATM    4  N   UNL     1     -12.740  13.954  64.369  1.00  0.00    -0.655 NA 
HETATM    5  H   UNL     1     -13.649  13.624  64.695  1.00  0.00     0.000 HD 
BRANCH   4   6
HETATM    6  C   UNL     1     -12.178  14.932  65.304  1.00  0.00    -0.064 C  
BRANCH   6   7
HETATM    7  C   UNL     1     -10.928  15.614  64.713  1.00  0.00    -0.400 C  
HETATM    8  H   UNL     1     -10.505  17.367  63.943  1.00  0.00     0.000 HD 
HETATM    9  O   UNL     1     -11.275  16.946  64.307  1.00  0.00    -1.204 OA 
BRANCH   7  10
HETATM   10  C   UNL     1      -9.808  15.598  65.770  1.00  0.00    -0.351 C  
BRANCH  10  11
HETATM   11  O   UNL     1      -9.114  16.846  65.776  1.00  0.00    -0.523 OA 
BRANCH  11  12
HETATM   12  C   UNL     1      -8.335  17.092  66.883  1.00  0.00    -0.218 A  
HETATM   13  C   UNL     1      -7.889  16.102  67.775  1.00  0.00    -0.157 A  
HETATM   14  C   UNL     1      -7.072  16.416  68.862  1.00  0.00    -0.195 A  
HETATM   15  C   UNL     1      -6.665  17.730  69.100  1.00  0.00    -0.239 A  
HETATM   16  C   UNL     1      -7.101  18.709  68.207  1.00  0.00    -0.253 A  
HETATM   17  C   UNL     1      -7.919  18.425  67.111  1.00  0.00    -0.237 A  
HETATM   18  C   UNL     1      -8.151  19.663  66.442  1.00  0.00    -0.341 A  
HETATM   19  C   UNL     1      -7.479  20.649  67.125  1.00  0.00    -0.330 A  
HETATM   20  N   UNL     1      -6.848  20.063  68.188  1.00  0.00    -0.285 NA 
HETATM   21  H   UNL     1      -6.272  20.559  68.869  1.00  0.00     0.000 HD 
ENDBRANCH  11  12
ENDBRANCH  10  11
ENDBRANCH   7  10
ENDBRANCH   6   7
ENDBRANCH   4   6
ENDBRANCH   2   4
TORSDOF 6
ENDMDL
MODEL       75
REMARK 921   NORMALIZED FREE ENERGY PREDICTED BY IDOCK:   -4.87 KCAL/MOL
REMARK 922        TOTAL FREE ENERGY PREDICTED BY IDOCK:   -6.95 KCAL/MOL
REMARK 923 INTER-LIGAND FREE ENERGY PREDICTED BY IDOCK:   -6.36 KCAL/MOL
REMARK 924 INTRA-LIGAND FREE ENERGY PREDICTED BY IDOCK:   -0.59 KCAL/MOL
REMARK 927      BINDING AFFINITY PREDICTED BY RF-SCORE:    0.00 PKD
ROOT
HETATM    1  C   UNL     1     -12.686  13.842  71.147  1.00  0.00    -0.441 C  
HETATM    2  C   UNL     1     -12.683  15.278  70.616  1.00  0.00    -0.416 C  
HETATM    3  C   UNL     1     -11.570  16.073  71.304  1.00  0.00    -0.506 C  
ENDROOT
BRANCH   2   4
HETATM    4  N   UNL     1     -12.505  15.229  69.162  1.00  0.00    -0.602 NA 
HETATM    5  H   UNL     1     -13.273  15.705  68.689  1.00  0.00     0.000 HD 
BRANCH   4   6
HETATM    6  C   UNL     1     -11.214  15.754  68.713  1.00  0.00    -0.342 C  
BRANCH   6   7
HETATM    7  C   UNL     1     -11.025  15.549  67.196  1.00  0.00    -0.295 C  
HETATM    8  H   UNL     1      -9.529  15.120  66.003  1.00  0.00     0.000 HD 
HETATM    9  O   UNL     1      -9.645  15.246  66.937  1.00  0.00    -0.220 OA 
BRANCH   7  10
HETATM   10  C   UNL     1     -11.968  14.426  66.726  1.00  0.00    -0.399 C  
BRANCH  10  11
HETATM   11  O   UNL     1     -11.238  13.434  66.003  1.00  0.00    -0.293 OA 
BRANCH  11  12
HETATM   12  C   UNL     1     -11.050  12.237  66.653  1.00  0.00    -0.297 A  
HETATM   13  C   UNL     1     -11.514  11.957  67.949  1.00  0.00    -0.385 A  
HETATM   14  C   UNL     1     -11.317  10.707  68.539  1.00  0.00    -0.348 A  
HETATM   15  C   UNL     1     -10.654   9.686  67.856  1.00  0.00    -0.308 A  
HETATM   16  C   UNL     1     -10.204   9.964  66.565  1.00  0.00    -0.222 A  
HETATM   17  C   UNL     1     -10.385  11.205  65.950  1.00  0.00    -0.314 A  
HETATM   18  C   UNL     1      -9.798  11.109  64.654  1.00  0.00    -0.330 A  
HETATM   19  C   UNL     1      -9.290   9.839  64.509  1.00  0.00    -0.235 A  
HETATM   20  N   UNL     1      -9.541   9.155  65.667  1.00  0.00    -0.405 NA 
HETATM   21  H   UNL     1      -9.275   8.186  65.841  1.00  0.00     0.000 HD 
ENDBRANCH  11  12
ENDBRANCH  10  11
ENDBRANCH   7  10
ENDBRANCH   6   7
ENDBRANCH   4   6
ENDBRANCH   2   4
TORSDOF 6
ENDMDL
MODEL       76
REMARK 921   NORMALIZED FREE ENERGY PREDICTED BY IDOCK:   -4.85 KCAL/MOL
REMARK 922        TOTAL FREE ENERGY PREDICTED BY IDOCK:   -6.93 KCAL/MOL
REMARK 923 INTER-LIGAND FREE ENERGY PREDICTED BY IDOCK:   -6.51 KCAL/MOL
REMARK 924 INTRA-LIGAND FREE ENERGY PREDICTED BY IDOCK:   -0.42 KCAL/MOL
REMARK 927      BINDING AFFINITY PREDICTED BY RF-SCORE:    0.00 PKD
ROOT
HETATM    1  C   UNL     1     -12.533  14.499  70.450  1.00  0.00    -0.407 C  
HETATM    2  C   UNL     1     -11.752  13.886  69.286  1.00  0.00    -0.334 C  
HETATM    3  C   UNL     1     -11.967  12.370  69.270  1.00  0.00    -0.308 C  
ENDROOT
BRANCH   2   4
HETATM    4  N   UNL     1     -12.208  14.518  68.044  1.00  0.00    -0.603 NA 
HETATM    5  H   UNL     1     -12.217  15.534  68.139  1.00  0.00     0.000 HD 
BRANCH   4   6
HETATM    6  C   UNL     1     -11.437  14.115  66.865  1.00  0.00    -0.357 C  
BRANCH   6   7
HETATM    7  C   UNL     1      -9.922  14.174  67.142  1.00  0.00    -0.255 C  
HETATM    8  H   UNL     1      -8.380  13.006  66.819  1.00  0.00     0.000 HD 
HETATM    9  O   UNL     1      -9.313  12.970  66.649  1.00  0.00    -0.245 OA 
BRANCH   7  10
HETATM   10  C   UNL     1      -9.344  15.436  66.477  1.00  0.00    -0.282 C  
BRANCH  10  11
HETATM   11  O   UNL     1      -8.815  16.321  67.465  1.00  0.00    -0.184 OA 
BRANCH  11  12
HETATM   12  C   UNL     1      -9.166  17.644  67.333  1.00  0.00    -0.247 A  
HETATM   13  C   UNL     1     -10.330  18.215  67.875  1.00  0.00    -0.410 A  
HETATM   14  C   UNL     1     -10.610  19.575  67.730  1.00  0.00    -0.542 A  
HETATM   15  C   UNL     1      -9.737  20.420  67.043  1.00  0.00    -0.588 A  
HETATM   16  C   UNL     1      -8.577  19.852  66.514  1.00  0.00    -0.341 A  
HETATM   17  C   UNL     1      -8.271  18.495  66.642  1.00  0.00    -0.288 A  
HETATM   18  C   UNL     1      -7.023  18.293  65.982  1.00  0.00    -0.315 A  
HETATM   19  C   UNL     1      -6.603  19.505  65.485  1.00  0.00    -0.269 A  
HETATM   20  N   UNL     1      -7.547  20.439  65.812  1.00  0.00    -0.535 NA 
HETATM   21  H   UNL     1      -7.496  21.429  65.570  1.00  0.00     0.000 HD 
ENDBRANCH  11  12
ENDBRANCH  10  11
ENDBRANCH   7  10
ENDBRANCH   6   7
ENDBRANCH   4   6
ENDBRANCH   2   4
TORSDOF 6
ENDMDL
MODEL       77
REMARK 921   NORMALIZED FREE ENERGY PREDICTED BY IDOCK:   -4.84 KCAL/MOL
REMARK 922        TOTAL FREE ENERGY PREDICTED BY IDOCK:   -6.91 KCAL/MOL
REMARK 923 INTER-LIGAND FREE ENERGY PREDICTED BY IDOCK:   -6.44 KCAL/MOL
REMARK 924 INTRA-LIGAND FREE ENERGY PREDICTED BY IDOCK:   -0.47 KCAL/MOL
REMARK 927      BINDING AFFINITY PREDICTED BY RF-SCORE:    0.00 PKD
ROOT
HETATM    1  C   UNL     1     -12.469  15.719  71.395  1.00  0.00    -0.513 C  
HETATM    2  C   UNL     1     -12.099  14.238  71.505  1.00  0.00    -0.240 C  
HETATM    3  C   UNL     1     -13.360  13.417  71.787  1.00  0.00    -0.479 C  
ENDROOT
BRANCH   2   4
HETATM    4  N   UNL     1     -11.448  13.834  70.255  1.00  0.00    -0.510 NA 
HETATM    5  H   UNL     1     -10.444  13.718  70.392  1.00  0.00     0.000 HD 
BRANCH   4   6
HETATM    6  C   UNL     1     -12.032  12.633  69.653  1.00  0.00    -0.286 C  
BRANCH   6   7
HETATM    7  C   UNL     1     -10.941  11.611  69.277  1.00  0.00    -0.192 C  
HETATM    8  H   UNL     1     -10.319   9.887  69.974  1.00  0.00     0.000 HD 
HETATM    9  O   UNL     1     -10.991  10.516  70.205  1.00  0.00    -0.292 OA 
BRANCH   7  10
HETATM   10  C   UNL     1     -11.167  11.155  67.824  1.00  0.00    -0.294 C  
BRANCH  10  11
HETATM   11  O   UNL     1     -10.301  11.867  66.939  1.00  0.00    -0.206 OA 
BRANCH  11  12
HETATM   12  C   UNL     1     -10.904  12.436  65.841  1.00  0.00    -0.270 A  
HETATM   13  C   UNL     1     -11.717  11.739  64.932  1.00  0.00    -0.187 A  
HETATM   14  C   UNL     1     -12.325  12.386  63.855  1.00  0.00    -0.602 A  
HETATM   15  C   UNL     1     -12.151  13.755  63.646  1.00  0.00    -0.330 A  
HETATM   16  C   UNL     1     -11.352  14.446  64.557  1.00  0.00    -0.321 A  
HETATM   17  C   UNL     1     -10.729  13.826  65.643  1.00  0.00    -0.288 A  
HETATM   18  C   UNL     1     -10.008  14.843  66.336  1.00  0.00    -0.290 A  
HETATM   19  C   UNL     1     -10.208  16.033  65.677  1.00  0.00    -0.386 A  
HETATM   20  N   UNL     1     -11.022  15.783  64.605  1.00  0.00    -0.755 NA 
HETATM   21  H   UNL     1     -11.338  16.487  63.937  1.00  0.00     0.000 HD 
ENDBRANCH  11  12
ENDBRANCH  10  11
ENDBRANCH   7  10
ENDBRANCH   6   7
ENDBRANCH   4   6
ENDBRANCH   2   4
TORSDOF 6
ENDMDL
MODEL       78
REMARK 921   NORMALIZED FREE ENERGY PREDICTED BY IDOCK:   -4.83 KCAL/MOL
REMARK 922        TOTAL FREE ENERGY PREDICTED BY IDOCK:   -6.90 KCAL/MOL
REMARK 923 INTER-LIGAND FREE ENERGY PREDICTED BY IDOCK:   -5.98 KCAL/MOL
REMARK 924 INTRA-LIGAND FREE ENERGY PREDICTED BY IDOCK:   -0.92 KCAL/MOL
REMARK 927      BINDING AFFINITY PREDICTED BY RF-SCORE:    0.00 PKD
ROOT
HETATM    1  C   UNL     1      -8.305  10.393  63.764  1.00  0.00    -0.149 C  
HETATM    2  C   UNL     1      -9.778  10.770  63.941  1.00  0.00    -0.313 C  
HETATM    3  C   UNL     1     -10.285  10.229  65.281  1.00  0.00    -0.308 C  
ENDROOT
BRANCH   2   4
HETATM    4  N   UNL     1      -9.890  12.230  63.860  1.00  0.00    -0.586 NA 
HETATM    5  H   UNL     1      -9.264  12.600  63.144  1.00  0.00     0.000 HD 
BRANCH   4   6
HETATM    6  C   UNL     1     -11.260  12.700  63.644  1.00  0.00    -0.466 C  
BRANCH   6   7
HETATM    7  C   UNL     1     -11.576  13.924  64.528  1.00  0.00    -0.393 C  
HETATM    8  H   UNL     1     -12.733  15.501  64.395  1.00  0.00     0.000 HD 
HETATM    9  O   UNL     1     -12.538  14.748  63.851  1.00  0.00    -0.834 OA 
BRANCH   7  10
HETATM   10  C   UNL     1     -12.086  13.431  65.894  1.00  0.00    -0.439 C  
BRANCH  10  11
HETATM   11  O   UNL     1     -11.278  13.960  66.946  1.00  0.00    -0.298 OA 
BRANCH  11  12
HETATM   12  C   UNL     1     -10.253  13.152  67.378  1.00  0.00    -0.232 A  
HETATM   13  C   UNL     1      -8.923  13.254  66.937  1.00  0.00    -0.212 A  
HETATM   14  C   UNL     1      -7.923  12.421  67.441  1.00  0.00    -0.178 A  
HETATM   15  C   UNL     1      -8.209  11.457  68.409  1.00  0.00    -0.151 A  
HETATM   16  C   UNL     1      -9.529  11.365  68.853  1.00  0.00    -0.050 A  
HETATM   17  C   UNL     1     -10.551  12.184  68.366  1.00  0.00    -0.243 A  
HETATM   18  C   UNL     1     -11.743  11.799  69.048  1.00  0.00    -0.390 A  
HETATM   19  C   UNL     1     -11.427  10.784  69.919  1.00  0.00    -0.321 A  
HETATM   20  N   UNL     1     -10.088  10.530  69.795  1.00  0.00    -0.419 NA 
HETATM   21  H   UNL     1      -9.578   9.822  70.324  1.00  0.00     0.000 HD 
ENDBRANCH  11  12
ENDBRANCH  10  11
ENDBRANCH   7  10
ENDBRANCH   6   7
ENDBRANCH   4   6
ENDBRANCH   2   4
TORSDOF 6
ENDMDL
MODEL       79
REMARK 921   NORMALIZED FREE ENERGY PREDICTED BY IDOCK:   -4.81 KCAL/MOL
REMARK 922        TOTAL FREE ENERGY PREDICTED BY IDOCK:   -6.88 KCAL/MOL
REMARK 923 INTER-LIGAND FREE ENERGY PREDICTED BY IDOCK:   -6.22 KCAL/MOL
REMARK 924 INTRA-LIGAND FREE ENERGY PREDICTED BY IDOCK:   -0.65 KCAL/MOL
REMARK 927      BINDING AFFINITY PREDICTED BY RF-SCORE:    0.00 PKD
ROOT
HETATM    1  C   UNL     1     -10.267  19.767  68.534  1.00  0.00    -0.547 C  
HETATM    2  C   UNL     1     -10.307  18.755  67.386  1.00  0.00    -0.418 C  
HETATM    3  C   UNL     1      -9.544  19.319  66.183  1.00  0.00    -0.353 C  
ENDROOT
BRANCH   2   4
HETATM    4  N   UNL     1      -9.727  17.497  67.863  1.00  0.00    -0.270 NA 
HETATM    5  H   UNL     1      -8.935  17.676  68.481  1.00  0.00     0.000 HD 
BRANCH   4   6
HETATM    6  C   UNL     1     -10.699  16.612  68.509  1.00  0.00    -0.351 C  
BRANCH   6   7
HETATM    7  C   UNL     1      -9.999  15.588  69.425  1.00  0.00    -0.277 C  
HETATM    8  H   UNL     1     -10.220  14.959  71.269  1.00  0.00     0.000 HD 
HETATM    9  O   UNL     1     -10.651  15.589  70.705  1.00  0.00    -0.308 OA 
BRANCH   7  10
HETATM   10  C   UNL     1     -10.042  14.206  68.749  1.00  0.00    -0.198 C  
BRANCH  10  11
HETATM   11  O   UNL     1      -9.584  14.299  67.399  1.00  0.00    -0.207 OA 
BRANCH  11  12
HETATM   12  C   UNL     1     -10.331  13.619  66.466  1.00  0.00    -0.282 A  
HETATM   13  C   UNL     1     -10.550  12.231  66.483  1.00  0.00    -0.263 A  
HETATM   14  C   UNL     1     -11.347  11.608  65.521  1.00  0.00    -0.224 A  
HETATM   15  C   UNL     1     -11.961  12.346  64.508  1.00  0.00    -0.474 A  
HETATM   16  C   UNL     1     -11.750  13.726  64.500  1.00  0.00    -0.407 A  
HETATM   17  C   UNL     1     -10.957  14.376  65.448  1.00  0.00    -0.343 A  
HETATM   18  C   UNL     1     -10.979  15.763  65.117  1.00  0.00    -0.394 A  
HETATM   19  C   UNL     1     -11.772  15.924  64.005  1.00  0.00     0.141 A  
HETATM   20  N   UNL     1     -12.234  14.688  63.640  1.00  0.00    -1.049 NA 
HETATM   21  H   UNL     1     -12.848  14.506  62.846  1.00  0.00     0.000 HD 
ENDBRANCH  11  12
ENDBRANCH  10  11
ENDBRANCH   7  10
ENDBRANCH   6   7
ENDBRANCH   4   6
ENDBRANCH   2   4
TORSDOF 6
ENDMDL
MODEL       80
REMARK 921   NORMALIZED FREE ENERGY PREDICTED BY IDOCK:   -4.81 KCAL/MOL
REMARK 922        TOTAL FREE ENERGY PREDICTED BY IDOCK:   -6.87 KCAL/MOL
REMARK 923 INTER-LIGAND FREE ENERGY PREDICTED BY IDOCK:   -6.09 KCAL/MOL
REMARK 924 INTRA-LIGAND FREE ENERGY PREDICTED BY IDOCK:   -0.78 KCAL/MOL
REMARK 927      BINDING AFFINITY PREDICTED BY RF-SCORE:    0.00 PKD
ROOT
HETATM    1  C   UNL     1      -8.860  10.912  62.448  1.00  0.00    -0.358 C  
HETATM    2  C   UNL     1      -9.940  10.888  63.532  1.00  0.00    -0.363 C  
HETATM    3  C   UNL     1      -9.469  10.018  64.702  1.00  0.00    -0.367 C  
ENDROOT
BRANCH   2   4
HETATM    4  N   UNL     1     -10.206  12.269  63.946  1.00  0.00    -0.443 NA 
HETATM    5  H   UNL     1      -9.437  12.881  63.671  1.00  0.00     0.000 HD 
BRANCH   4   6
HETATM    6  C   UNL     1     -11.484  12.790  63.458  1.00  0.00    -0.459 C  
BRANCH   6   7
HETATM    7  C   UNL     1     -12.441  13.104  64.626  1.00  0.00    -0.373 C  
HETATM    8  H   UNL     1     -12.737  12.410  66.436  1.00  0.00     0.000 HD 
HETATM    9  O   UNL     1     -12.148  12.217  65.717  1.00  0.00    -0.572 OA 
BRANCH   7  10
HETATM   10  C   UNL     1     -12.278  14.584  65.017  1.00  0.00    -0.373 C  
BRANCH  10  11
HETATM   11  O   UNL     1     -10.918  14.992  64.862  1.00  0.00    -0.388 OA 
BRANCH  11  12
HETATM   12  C   UNL     1     -10.262  15.342  66.019  1.00  0.00    -0.317 A  
HETATM   13  C   UNL     1      -9.640  14.427  66.885  1.00  0.00    -0.263 A  
HETATM   14  C   UNL     1      -8.962  14.853  68.029  1.00  0.00    -0.172 A  
HETATM   15  C   UNL     1      -8.874  16.209  68.350  1.00  0.00    -0.188 A  
HETATM   16  C   UNL     1      -9.485  17.115  67.482  1.00  0.00    -0.247 A  
HETATM   17  C   UNL     1     -10.170  16.718  66.332  1.00  0.00    -0.329 A  
HETATM   18  C   UNL     1     -10.650  17.910  65.710  1.00  0.00    -0.175 A  
HETATM   19  C   UNL     1     -10.248  18.980  66.474  1.00  0.00    -0.421 A  
HETATM   20  N   UNL     1      -9.545  18.490  67.541  1.00  0.00    -0.283 NA 
HETATM   21  H   UNL     1      -9.126  19.062  68.274  1.00  0.00     0.000 HD 
ENDBRANCH  11  12
ENDBRANCH  10  11
ENDBRANCH   7  10
ENDBRANCH   6   7
ENDBRANCH   4   6
ENDBRANCH   2   4
TORSDOF 6
ENDMDL
MODEL       81
REMARK 921   NORMALIZED FREE ENERGY PREDICTED BY IDOCK:   -4.80 KCAL/MOL
REMARK 922        TOTAL FREE ENERGY PREDICTED BY IDOCK:   -6.86 KCAL/MOL
REMARK 923 INTER-LIGAND FREE ENERGY PREDICTED BY IDOCK:   -6.15 KCAL/MOL
REMARK 924 INTRA-LIGAND FREE ENERGY PREDICTED BY IDOCK:   -0.71 KCAL/MOL
REMARK 927      BINDING AFFINITY PREDICTED BY RF-SCORE:    0.00 PKD
ROOT
HETATM    1  C   UNL     1     -10.128  19.510  68.219  1.00  0.00    -0.542 C  
HETATM    2  C   UNL     1     -10.430  18.037  67.935  1.00  0.00    -0.396 C  
HETATM    3  C   UNL     1      -9.190  17.369  67.335  1.00  0.00    -0.236 C  
ENDROOT
BRANCH   2   4
HETATM    4  N   UNL     1     -10.843  17.403  69.190  1.00  0.00    -0.295 NA 
HETATM    5  H   UNL     1     -11.859  17.414  69.283  1.00  0.00     0.000 HD 
BRANCH   4   6
HETATM    6  C   UNL     1     -10.321  16.045  69.359  1.00  0.00    -0.272 C  
BRANCH   6   7
HETATM    7  C   UNL     1     -11.366  15.124  70.019  1.00  0.00    -0.277 C  
HETATM    8  H   UNL     1     -12.980  15.368  71.105  1.00  0.00     0.000 HD 
HETATM    9  O   UNL     1     -12.337  15.935  70.698  1.00  0.00    -0.395 OA 
BRANCH   7  10
HETATM   10  C   UNL     1     -12.003  14.238  68.933  1.00  0.00    -0.320 C  
BRANCH  10  11
HETATM   11  O   UNL     1     -11.758  14.787  67.637  1.00  0.00    -0.349 OA 
BRANCH  11  12
HETATM   12  C   UNL     1     -11.650  13.877  66.612  1.00  0.00    -0.374 A  
HETATM   13  C   UNL     1     -12.619  13.689  65.612  1.00  0.00    -0.531 A  
HETATM   14  C   UNL     1     -12.430  12.768  64.580  1.00  0.00    -0.501 A  
HETATM   15  C   UNL     1     -11.266  12.003  64.502  1.00  0.00    -0.390 A  
HETATM   16  C   UNL     1     -10.301  12.199  65.491  1.00  0.00    -0.263 A  
HETATM   17  C   UNL     1     -10.462  13.112  66.536  1.00  0.00    -0.283 A  
HETATM   18  C   UNL     1      -9.283  13.031  67.334  1.00  0.00    -0.208 A  
HETATM   19  C   UNL     1      -8.447  12.098  66.767  1.00  0.00    -0.138 A  
HETATM   20  N   UNL     1      -9.070  11.602  65.654  1.00  0.00    -0.383 NA 
HETATM   21  H   UNL     1      -8.679  10.892  65.035  1.00  0.00     0.000 HD 
ENDBRANCH  11  12
ENDBRANCH  10  11
ENDBRANCH   7  10
ENDBRANCH   6   7
ENDBRANCH   4   6
ENDBRANCH   2   4
TORSDOF 6
ENDMDL
MODEL       82
REMARK 921   NORMALIZED FREE ENERGY PREDICTED BY IDOCK:   -4.80 KCAL/MOL
REMARK 922        TOTAL FREE ENERGY PREDICTED BY IDOCK:   -6.86 KCAL/MOL
REMARK 923 INTER-LIGAND FREE ENERGY PREDICTED BY IDOCK:   -6.41 KCAL/MOL
REMARK 924 INTRA-LIGAND FREE ENERGY PREDICTED BY IDOCK:   -0.45 KCAL/MOL
REMARK 927      BINDING AFFINITY PREDICTED BY RF-SCORE:    0.00 PKD
ROOT
HETATM    1  C   UNL     1     -12.458  14.063  64.598  1.00  0.00    -0.366 C  
HETATM    2  C   UNL     1     -12.391  12.535  64.658  1.00  0.00    -0.474 C  
HETATM    3  C   UNL     1     -12.746  11.956  63.285  1.00  0.00    -0.407 C  
ENDROOT
BRANCH   2   4
HETATM    4  N   UNL     1     -11.043  12.151  65.084  1.00  0.00    -0.314 NA 
HETATM    5  H   UNL     1     -10.363  12.863  64.815  1.00  0.00     0.000 HD 
BRANCH   4   6
HETATM    6  C   UNL     1     -10.943  11.855  66.515  1.00  0.00    -0.292 C  
BRANCH   6   7
HETATM    7  C   UNL     1     -10.206  12.980  67.268  1.00  0.00    -0.239 C  
HETATM    8  H   UNL     1      -9.025  14.467  66.782  1.00  0.00     0.000 HD 
HETATM    9  O   UNL     1      -9.479  13.775  66.318  1.00  0.00    -0.266 OA 
BRANCH   7  10
HETATM   10  C   UNL     1     -11.237  13.808  68.056  1.00  0.00    -0.267 C  
BRANCH  10  11
HETATM   11  O   UNL     1     -10.814  13.971  69.410  1.00  0.00    -0.206 OA 
BRANCH  11  12
HETATM   12  C   UNL     1     -11.731  13.614  70.371  1.00  0.00    -0.151 A  
HETATM   13  C   UNL     1     -12.366  12.363  70.435  1.00  0.00    -0.307 A  
HETATM   14  C   UNL     1     -13.265  12.054  71.457  1.00  0.00    -0.276 A  
HETATM   15  C   UNL     1     -13.561  12.979  72.459  1.00  0.00    -0.537 A  
HETATM   16  C   UNL     1     -12.920  14.218  72.398  1.00  0.00    -0.393 A  
HETATM   17  C   UNL     1     -12.018  14.555  71.387  1.00  0.00    -0.382 A  
HETATM   18  C   UNL     1     -11.577  15.884  71.659  1.00  0.00    -0.541 A  
HETATM   19  C   UNL     1     -12.201  16.314  72.807  1.00  0.00    -0.500 A  
HETATM   20  N   UNL     1     -13.009  15.300  73.246  1.00  0.00    -0.491 NA 
HETATM   21  H   UNL     1     -13.593  15.341  74.081  1.00  0.00     0.000 HD 
ENDBRANCH  11  12
ENDBRANCH  10  11
ENDBRANCH   7  10
ENDBRANCH   6   7
ENDBRANCH   4   6
ENDBRANCH   2   4
TORSDOF 6
ENDMDL
MODEL       83
REMARK 921   NORMALIZED FREE ENERGY PREDICTED BY IDOCK:   -4.78 KCAL/MOL
REMARK 922        TOTAL FREE ENERGY PREDICTED BY IDOCK:   -6.84 KCAL/MOL
REMARK 923 INTER-LIGAND FREE ENERGY PREDICTED BY IDOCK:   -5.88 KCAL/MOL
REMARK 924 INTRA-LIGAND FREE ENERGY PREDICTED BY IDOCK:   -0.96 KCAL/MOL
REMARK 927      BINDING AFFINITY PREDICTED BY RF-SCORE:    0.00 PKD
ROOT
HETATM    1  C   UNL     1      -9.118   9.505  69.296  1.00  0.00    -0.161 C  
HETATM    2  C   UNL     1     -10.091   8.588  68.551  1.00  0.00    -0.194 C  
HETATM    3  C   UNL     1     -11.016   7.899  69.559  1.00  0.00    -0.078 C  
ENDROOT
BRANCH   2   4
HETATM    4  N   UNL     1     -10.839   9.401  67.587  1.00  0.00    -0.459 NA 
HETATM    5  H   UNL     1     -11.530   9.980  68.063  1.00  0.00     0.000 HD 
BRANCH   4   6
HETATM    6  C   UNL     1      -9.983  10.218  66.723  1.00  0.00    -0.209 C  
BRANCH   6   7
HETATM    7  C   UNL     1     -10.569  11.632  66.535  1.00  0.00    -0.253 C  
HETATM    8  H   UNL     1     -11.471  12.608  65.094  1.00  0.00     0.000 HD 
HETATM    9  O   UNL     1     -11.111  11.737  65.209  1.00  0.00    -0.304 OA 
BRANCH   7  10
HETATM   10  C   UNL     1     -11.632  11.877  67.622  1.00  0.00    -0.312 C  
BRANCH  10  11
HETATM   11  O   UNL     1     -11.009  12.239  68.855  1.00  0.00    -0.221 OA 
BRANCH  11  12
HETATM   12  C   UNL     1     -11.826  12.240  69.961  1.00  0.00    -0.296 A  
HETATM   13  C   UNL     1     -12.279  11.081  70.613  1.00  0.00    -0.481 A  
HETATM   14  C   UNL     1     -13.082  11.154  71.753  1.00  0.00    -0.536 A  
HETATM   15  C   UNL     1     -13.460  12.386  72.289  1.00  0.00    -0.428 A  
HETATM   16  C   UNL     1     -12.999  13.535  71.644  1.00  0.00    -0.359 A  
HETATM   17  C   UNL     1     -12.196  13.493  70.503  1.00  0.00    -0.433 A  
HETATM   18  C   UNL     1     -11.932  14.846  70.138  1.00  0.00    -0.368 A  
HETATM   19  C   UNL     1     -12.560  15.663  71.049  1.00  0.00    -0.459 A  
HETATM   20  N   UNL     1     -13.200  14.862  71.955  1.00  0.00    -0.325 NA 
HETATM   21  H   UNL     1     -13.748  15.200  72.747  1.00  0.00     0.000 HD 
ENDBRANCH  11  12
ENDBRANCH  10  11
ENDBRANCH   7  10
ENDBRANCH   6   7
ENDBRANCH   4   6
ENDBRANCH   2   4
TORSDOF 6
ENDMDL
MODEL       84
REMARK 921   NORMALIZED FREE ENERGY PREDICTED BY IDOCK:   -4.78 KCAL/MOL
REMARK 922        TOTAL FREE ENERGY PREDICTED BY IDOCK:   -6.84 KCAL/MOL
REMARK 923 INTER-LIGAND FREE ENERGY PREDICTED BY IDOCK:   -6.46 KCAL/MOL
REMARK 924 INTRA-LIGAND FREE ENERGY PREDICTED BY IDOCK:   -0.38 KCAL/MOL
REMARK 927      BINDING AFFINITY PREDICTED BY RF-SCORE:    0.00 PKD
ROOT
HETATM    1  C   UNL     1      -9.957  19.494  68.254  1.00  0.00    -0.533 C  
HETATM    2  C   UNL     1      -8.808  19.633  67.253  1.00  0.00    -0.318 C  
HETATM    3  C   UNL     1      -7.479  19.351  67.959  1.00  0.00    -0.316 C  
ENDROOT
BRANCH   2   4
HETATM    4  N   UNL     1      -9.050  18.703  66.146  1.00  0.00    -0.486 NA 
HETATM    5  H   UNL     1      -8.383  17.931  66.172  1.00  0.00     0.000 HD 
BRANCH   4   6
HETATM    6  C   UNL     1     -10.424  18.200  66.093  1.00  0.00    -0.364 C  
BRANCH   6   7
HETATM    7  C   UNL     1     -10.452  16.663  65.966  1.00  0.00    -0.298 C  
HETATM    8  H   UNL     1      -9.150  15.256  65.555  1.00  0.00     0.000 HD 
HETATM    9  O   UNL     1      -9.133  16.202  65.633  1.00  0.00    -0.394 OA 
BRANCH   7  10
HETATM   10  C   UNL     1     -10.964  16.065  67.289  1.00  0.00    -0.207 C  
BRANCH  10  11
HETATM   11  O   UNL     1     -11.055  14.643  67.189  1.00  0.00    -0.307 OA 
BRANCH  11  12
HETATM   12  C   UNL     1     -11.465  13.988  68.326  1.00  0.00    -0.304 A  
HETATM   13  C   UNL     1     -11.939  14.630  69.483  1.00  0.00    -0.361 A  
HETATM   14  C   UNL     1     -12.371  13.902  70.593  1.00  0.00    -0.451 A  
HETATM   15  C   UNL     1     -12.353  12.506  70.591  1.00  0.00    -0.369 A  
HETATM   16  C   UNL     1     -11.891  11.873  69.436  1.00  0.00    -0.327 A  
HETATM   17  C   UNL     1     -11.451  12.574  68.311  1.00  0.00    -0.355 A  
HETATM   18  C   UNL     1     -11.062  11.597  67.347  1.00  0.00    -0.337 A  
HETATM   19  C   UNL     1     -11.275  10.353  67.891  1.00  0.00    -0.263 A  
HETATM   20  N   UNL     1     -11.776  10.529  69.152  1.00  0.00    -0.471 NA 
HETATM   21  H   UNL     1     -12.029   9.774  69.790  1.00  0.00     0.000 HD 
ENDBRANCH  11  12
ENDBRANCH  10  11
ENDBRANCH   7  10
ENDBRANCH   6   7
ENDBRANCH   4   6
ENDBRANCH   2   4
TORSDOF 6
ENDMDL
MODEL       85
REMARK 921   NORMALIZED FREE ENERGY PREDICTED BY IDOCK:   -4.77 KCAL/MOL
REMARK 922        TOTAL FREE ENERGY PREDICTED BY IDOCK:   -6.82 KCAL/MOL
REMARK 923 INTER-LIGAND FREE ENERGY PREDICTED BY IDOCK:   -5.93 KCAL/MOL
REMARK 924 INTRA-LIGAND FREE ENERGY PREDICTED BY IDOCK:   -0.89 KCAL/MOL
REMARK 927      BINDING AFFINITY PREDICTED BY RF-SCORE:    0.00 PKD
ROOT
HETATM    1  C   UNL     1     -12.056  15.365  69.994  1.00  0.00    -0.388 C  
HETATM    2  C   UNL     1     -11.446  14.931  68.659  1.00  0.00    -0.306 C  
HETATM    3  C   UNL     1     -10.981  16.168  67.885  1.00  0.00    -0.318 C  
ENDROOT
BRANCH   2   4
HETATM    4  N   UNL     1     -10.339  14.011  68.938  1.00  0.00    -0.340 NA 
HETATM    5  H   UNL     1     -10.566  13.403  69.726  1.00  0.00     0.000 HD 
BRANCH   4   6
HETATM    6  C   UNL     1      -9.927  13.221  67.775  1.00  0.00    -0.223 C  
BRANCH   6   7
HETATM    7  C   UNL     1     -11.091  12.360  67.245  1.00  0.00    -0.281 C  
HETATM    8  H   UNL     1     -11.929  12.035  65.503  1.00  0.00     0.000 HD 
HETATM    9  O   UNL     1     -11.212  12.565  65.829  1.00  0.00    -0.296 OA 
BRANCH   7  10
HETATM   10  C   UNL     1     -10.819  10.887  67.601  1.00  0.00    -0.266 C  
BRANCH  10  11
HETATM   11  O   UNL     1     -10.219  10.789  68.893  1.00  0.00    -0.186 OA 
BRANCH  11  12
HETATM   12  C   UNL     1     -10.808   9.899  69.760  1.00  0.00    -0.269 A  
HETATM   13  C   UNL     1     -10.481   8.535  69.841  1.00  0.00    -0.219 A  
HETATM   14  C   UNL     1     -11.096   7.692  70.768  1.00  0.00    -0.276 A  
HETATM   15  C   UNL     1     -12.057   8.179  71.656  1.00  0.00    -0.342 A  
HETATM   16  C   UNL     1     -12.372   9.536  71.581  1.00  0.00    -0.398 A  
HETATM   17  C   UNL     1     -11.774  10.403  70.663  1.00  0.00    -0.444 A  
HETATM   18  C   UNL     1     -12.344  11.691  70.886  1.00  0.00    -0.436 A  
HETATM   19  C   UNL     1     -13.249  11.584  71.916  1.00  0.00    -0.374 A  
HETATM   20  N   UNL     1     -13.258  10.280  72.329  1.00  0.00    -0.570 NA 
HETATM   21  H   UNL     1     -13.838   9.911  73.083  1.00  0.00     0.000 HD 
ENDBRANCH  11  12
ENDBRANCH  10  11
ENDBRANCH   7  10
ENDBRANCH   6   7
ENDBRANCH   4   6
ENDBRANCH   2   4
TORSDOF 6
ENDMDL
MODEL       86
REMARK 921   NORMALIZED FREE ENERGY PREDICTED BY IDOCK:   -4.75 KCAL/MOL
REMARK 922        TOTAL FREE ENERGY PREDICTED BY IDOCK:   -6.79 KCAL/MOL
REMARK 923 INTER-LIGAND FREE ENERGY PREDICTED BY IDOCK:   -6.02 KCAL/MOL
REMARK 924 INTRA-LIGAND FREE ENERGY PREDICTED BY IDOCK:   -0.77 KCAL/MOL
REMARK 927      BINDING AFFINITY PREDICTED BY RF-SCORE:    0.00 PKD
ROOT
HETATM    1  C   UNL     1     -10.889   6.616  67.754  1.00  0.00    -0.372 C  
HETATM    2  C   UNL     1      -9.586   7.378  67.502  1.00  0.00    -0.140 C  
HETATM    3  C   UNL     1      -9.049   7.024  66.112  1.00  0.00    -0.149 C  
ENDROOT
BRANCH   2   4
HETATM    4  N   UNL     1      -9.860   8.812  67.636  1.00  0.00    -0.169 NA 
HETATM    5  H   UNL     1     -10.316   9.172  66.797  1.00  0.00     0.000 HD 
BRANCH   4   6
HETATM    6  C   UNL     1     -10.635   9.151  68.832  1.00  0.00    -0.191 C  
BRANCH   6   7
HETATM    7  C   UNL     1     -10.368  10.604  69.276  1.00  0.00    -0.218 C  
HETATM    8  H   UNL     1      -8.975  11.945  68.958  1.00  0.00     0.000 HD 
HETATM    9  O   UNL     1      -9.139  11.051  68.684  1.00  0.00    -0.166 OA 
BRANCH   7  10
HETATM   10  C   UNL     1     -11.567  11.476  68.863  1.00  0.00    -0.320 C  
BRANCH  10  11
HETATM   11  O   UNL     1     -11.864  11.290  67.478  1.00  0.00    -0.613 OA 
BRANCH  11  12
HETATM   12  C   UNL     1     -11.630  12.374  66.665  1.00  0.00    -0.385 A  
HETATM   13  C   UNL     1     -11.993  13.694  66.979  1.00  0.00    -0.448 A  
HETATM   14  C   UNL     1     -11.695  14.755  66.121  1.00  0.00    -0.255 A  
HETATM   15  C   UNL     1     -11.020  14.539  64.919  1.00  0.00    -0.421 A  
HETATM   16  C   UNL     1     -10.652  13.228  64.615  1.00  0.00    -0.404 A  
HETATM   17  C   UNL     1     -10.937  12.148  65.453  1.00  0.00    -0.346 A  
HETATM   18  C   UNL     1     -10.411  10.985  64.814  1.00  0.00    -0.384 A  
HETATM   19  C   UNL     1      -9.826  11.376  63.633  1.00  0.00    -0.348 A  
HETATM   20  N   UNL     1      -9.975  12.731  63.522  1.00  0.00    -0.687 NA 
HETATM   21  H   UNL     1      -9.634  13.294  62.741  1.00  0.00     0.000 HD 
ENDBRANCH  11  12
ENDBRANCH  10  11
ENDBRANCH   7  10
ENDBRANCH   6   7
ENDBRANCH   4   6
ENDBRANCH   2   4
TORSDOF 6
ENDMDL
MODEL       87
REMARK 921   NORMALIZED FREE ENERGY PREDICTED BY IDOCK:   -4.73 KCAL/MOL
REMARK 922        TOTAL FREE ENERGY PREDICTED BY IDOCK:   -6.77 KCAL/MOL
REMARK 923 INTER-LIGAND FREE ENERGY PREDICTED BY IDOCK:   -5.97 KCAL/MOL
REMARK 924 INTRA-LIGAND FREE ENERGY PREDICTED BY IDOCK:   -0.80 KCAL/MOL
REMARK 927      BINDING AFFINITY PREDICTED BY RF-SCORE:    0.00 PKD
ROOT
HETATM    1  C   UNL     1      -8.829   9.585  68.266  1.00  0.00    -0.124 C  
HETATM    2  C   UNL     1     -10.062   9.140  67.477  1.00  0.00    -0.228 C  
HETATM    3  C   UNL     1     -10.152   7.611  67.490  1.00  0.00    -0.264 C  
ENDROOT
BRANCH   2   4
HETATM    4  N   UNL     1     -11.243   9.764  68.082  1.00  0.00    -0.522 NA 
HETATM    5  H   UNL     1     -11.918   9.055  68.369  1.00  0.00     0.000 HD 
BRANCH   4   6
HETATM    6  C   UNL     1     -10.926  10.660  69.196  1.00  0.00    -0.247 C  
BRANCH   6   7
HETATM    7  C   UNL     1     -12.005  11.749  69.360  1.00  0.00    -0.298 C  
HETATM    8  H   UNL     1     -12.930  12.605  70.862  1.00  0.00     0.000 HD 
HETATM    9  O   UNL     1     -12.266  11.935  70.760  1.00  0.00    -0.376 OA 
BRANCH   7  10
HETATM   10  C   UNL     1     -11.514  13.040  68.681  1.00  0.00    -0.307 C  
BRANCH  10  11
HETATM   11  O   UNL     1     -10.593  12.732  67.634  1.00  0.00    -0.215 OA 
BRANCH  11  12
HETATM   12  C   UNL     1     -10.971  13.121  66.371  1.00  0.00    -0.288 A  
HETATM   13  C   UNL     1     -11.608  12.284  65.440  1.00  0.00    -0.412 A  
HETATM   14  C   UNL     1     -11.995  12.753  64.183  1.00  0.00    -0.499 A  
HETATM   15  C   UNL     1     -11.766  14.078  63.808  1.00  0.00    -0.062 A  
HETATM   16  C   UNL     1     -11.143  14.910  64.739  1.00  0.00    -0.383 A  
HETATM   17  C   UNL     1     -10.744  14.468  66.002  1.00  0.00    -0.306 A  
HETATM   18  C   UNL     1     -10.152  15.588  66.659  1.00  0.00    -0.275 A  
HETATM   19  C   UNL     1     -10.209  16.663  65.803  1.00  0.00    -0.307 A  
HETATM   20  N   UNL     1     -10.809  16.244  64.647  1.00  0.00    -0.860 NA 
HETATM   21  H   UNL     1     -10.985  16.835  63.834  1.00  0.00     0.000 HD 
ENDBRANCH  11  12
ENDBRANCH  10  11
ENDBRANCH   7  10
ENDBRANCH   6   7
ENDBRANCH   4   6
ENDBRANCH   2   4
TORSDOF 6
ENDMDL
MODEL       88
REMARK 921   NORMALIZED FREE ENERGY PREDICTED BY IDOCK:   -4.73 KCAL/MOL
REMARK 922        TOTAL FREE ENERGY PREDICTED BY IDOCK:   -6.76 KCAL/MOL
REMARK 923 INTER-LIGAND FREE ENERGY PREDICTED BY IDOCK:   -6.01 KCAL/MOL
REMARK 924 INTRA-LIGAND FREE ENERGY PREDICTED BY IDOCK:   -0.75 KCAL/MOL
REMARK 927      BINDING AFFINITY PREDICTED BY RF-SCORE:    0.00 PKD
ROOT
HETATM    1  C   UNL     1     -10.882   6.253  68.769  1.00  0.00    -0.398 C  
HETATM    2  C   UNL     1     -10.087   7.536  68.518  1.00  0.00    -0.184 C  
HETATM    3  C   UNL     1      -8.706   7.179  67.960  1.00  0.00    -0.127 C  
ENDROOT
BRANCH   2   4
HETATM    4  N   UNL     1     -10.853   8.376  67.591  1.00  0.00    -0.503 NA 
HETATM    5  H   UNL     1     -11.306   9.142  68.090  1.00  0.00     0.000 HD 
BRANCH   4   6
HETATM    6  C   UNL     1     -10.060   8.884  66.470  1.00  0.00    -0.286 C  
BRANCH   6   7
HETATM    7  C   UNL     1     -10.191  10.415  66.343  1.00  0.00    -0.230 C  
HETATM    8  H   UNL     1     -10.626  11.682  64.910  1.00  0.00     0.000 HD 
HETATM    9  O   UNL     1     -10.546  10.739  64.989  1.00  0.00    -0.268 OA 
BRANCH   7  10
HETATM   10  C   UNL     1     -11.239  10.909  67.356  1.00  0.00    -0.273 C  
BRANCH  10  11
HETATM   11  O   UNL     1     -10.606  11.297  68.576  1.00  0.00    -0.181 OA 
BRANCH  11  12
HETATM   12  C   UNL     1     -11.368  12.062  69.428  1.00  0.00    -0.251 A  
HETATM   13  C   UNL     1     -11.539  13.452  69.308  1.00  0.00    -0.365 A  
HETATM   14  C   UNL     1     -12.354  14.164  70.190  1.00  0.00    -0.413 A  
HETATM   15  C   UNL     1     -13.035  13.517  71.222  1.00  0.00    -0.384 A  
HETATM   16  C   UNL     1     -12.871  12.135  71.333  1.00  0.00    -0.276 A  
HETATM   17  C   UNL     1     -12.061  11.397  70.466  1.00  0.00    -0.487 A  
HETATM   18  C   UNL     1     -12.145  10.037  70.889  1.00  0.00    -0.448 A  
HETATM   19  C   UNL     1     -12.988   9.978  71.973  1.00  0.00    -0.416 A  
HETATM   20  N   UNL     1     -13.422  11.249  72.232  1.00  0.00    -0.521 NA 
HETATM   21  H   UNL     1     -14.063  11.504  72.985  1.00  0.00     0.000 HD 
ENDBRANCH  11  12
ENDBRANCH  10  11
ENDBRANCH   7  10
ENDBRANCH   6   7
ENDBRANCH   4   6
ENDBRANCH   2   4
TORSDOF 6
ENDMDL
MODEL       89
REMARK 921   NORMALIZED FREE ENERGY PREDICTED BY IDOCK:   -4.73 KCAL/MOL
REMARK 922        TOTAL FREE ENERGY PREDICTED BY IDOCK:   -6.76 KCAL/MOL
REMARK 923 INTER-LIGAND FREE ENERGY PREDICTED BY IDOCK:   -6.17 KCAL/MOL
REMARK 924 INTRA-LIGAND FREE ENERGY PREDICTED BY IDOCK:   -0.59 KCAL/MOL
REMARK 927      BINDING AFFINITY PREDICTED BY RF-SCORE:    0.00 PKD
ROOT
HETATM    1  C   UNL     1      -7.687  19.248  66.013  1.00  0.00    -0.293 C  
HETATM    2  C   UNL     1      -8.731  19.777  66.999  1.00  0.00    -0.325 C  
HETATM    3  C   UNL     1     -10.090  19.876  66.299  1.00  0.00    -0.613 C  
ENDROOT
BRANCH   2   4
HETATM    4  N   UNL     1      -8.772  18.874  68.153  1.00  0.00    -0.299 NA 
HETATM    5  H   UNL     1      -9.638  18.998  68.678  1.00  0.00     0.000 HD 
BRANCH   4   6
HETATM    6  C   UNL     1      -8.577  17.466  67.800  1.00  0.00    -0.227 C  
BRANCH   6   7
HETATM    7  C   UNL     1      -9.733  16.593  68.329  1.00  0.00    -0.244 C  
HETATM    8  H   UNL     1     -11.281  16.858  69.503  1.00  0.00     0.000 HD 
HETATM    9  O   UNL     1     -10.570  17.396  69.177  1.00  0.00    -0.321 OA 
BRANCH   7  10
HETATM   10  C   UNL     1     -10.503  16.010  67.131  1.00  0.00    -0.308 C  
BRANCH  10  11
HETATM   11  O   UNL     1     -11.731  15.424  67.567  1.00  0.00    -0.241 OA 
BRANCH  11  12
HETATM   12  C   UNL     1     -11.696  14.072  67.810  1.00  0.00    -0.368 A  
HETATM   13  C   UNL     1     -11.333  13.103  66.858  1.00  0.00    -0.355 A  
HETATM   14  C   UNL     1     -11.286  11.746  67.182  1.00  0.00    -0.387 A  
HETATM   15  C   UNL     1     -11.595  11.302  68.469  1.00  0.00    -0.384 A  
HETATM   16  C   UNL     1     -11.945  12.267  69.414  1.00  0.00    -0.259 A  
HETATM   17  C   UNL     1     -12.001  13.631  69.119  1.00  0.00    -0.394 A  
HETATM   18  C   UNL     1     -12.391  14.293  70.321  1.00  0.00    -0.418 A  
HETATM   19  C   UNL     1     -12.552  13.341  71.299  1.00  0.00    -0.308 A  
HETATM   20  N   UNL     1     -12.280  12.121  70.742  1.00  0.00    -0.426 NA 
HETATM   21  H   UNL     1     -12.319  11.231  71.240  1.00  0.00     0.000 HD 
ENDBRANCH  11  12
ENDBRANCH  10  11
ENDBRANCH   7  10
ENDBRANCH   6   7
ENDBRANCH   4   6
ENDBRANCH   2   4
TORSDOF 6
ENDMDL
MODEL       90
REMARK 921   NORMALIZED FREE ENERGY PREDICTED BY IDOCK:   -4.72 KCAL/MOL
REMARK 922        TOTAL FREE ENERGY PREDICTED BY IDOCK:   -6.75 KCAL/MOL
REMARK 923 INTER-LIGAND FREE ENERGY PREDICTED BY IDOCK:   -6.36 KCAL/MOL
REMARK 924 INTRA-LIGAND FREE ENERGY PREDICTED BY IDOCK:   -0.39 KCAL/MOL
REMARK 927      BINDING AFFINITY PREDICTED BY RF-SCORE:    0.00 PKD
ROOT
HETATM    1  C   UNL     1      -6.544  18.565  66.493  1.00  0.00    -0.221 C  
HETATM    2  C   UNL     1      -6.994  17.103  66.448  1.00  0.00    -0.261 C  
HETATM    3  C   UNL     1      -6.995  16.527  67.867  1.00  0.00    -0.155 C  
ENDROOT
BRANCH   2   4
HETATM    4  N   UNL     1      -8.324  17.052  65.834  1.00  0.00    -0.512 NA 
HETATM    5  H   UNL     1      -8.262  17.205  64.827  1.00  0.00     0.000 HD 
BRANCH   4   6
HETATM    6  C   UNL     1      -9.056  15.817  66.126  1.00  0.00    -0.342 C  
BRANCH   6   7
HETATM    7  C   UNL     1     -10.580  16.045  66.070  1.00  0.00    -0.316 C  
HETATM    8  H   UNL     1     -11.931  16.224  64.661  1.00  0.00     0.000 HD 
HETATM    9  O   UNL     1     -10.993  16.083  64.696  1.00  0.00    -0.590 OA 
BRANCH   7  10
HETATM   10  C   UNL     1     -11.279  14.924  66.860  1.00  0.00    -0.343 C  
BRANCH  10  11
HETATM   11  O   UNL     1     -10.672  14.766  68.143  1.00  0.00    -0.240 OA 
BRANCH  11  12
HETATM   12  C   UNL     1     -11.240  13.818  68.961  1.00  0.00    -0.272 A  
HETATM   13  C   UNL     1     -11.058  12.432  68.814  1.00  0.00    -0.307 A  
HETATM   14  C   UNL     1     -11.638  11.524  69.701  1.00  0.00    -0.403 A  
HETATM   15  C   UNL     1     -12.418  11.962  70.772  1.00  0.00    -0.384 A  
HETATM   16  C   UNL     1     -12.588  13.339  70.922  1.00  0.00    -0.306 A  
HETATM   17  C   UNL     1     -12.021  14.271  70.050  1.00  0.00    -0.396 A  
HETATM   18  C   UNL     1     -12.411  15.560  70.519  1.00  0.00    -0.472 A  
HETATM   19  C   UNL     1     -13.183  15.388  71.644  1.00  0.00    -0.478 A  
HETATM   20  N   UNL     1     -13.283  14.044  71.879  1.00  0.00    -0.367 NA 
HETATM   21  H   UNL     1     -13.799  13.625  72.653  1.00  0.00     0.000 HD 
ENDBRANCH  11  12
ENDBRANCH  10  11
ENDBRANCH   7  10
ENDBRANCH   6   7
ENDBRANCH   4   6
ENDBRANCH   2   4
TORSDOF 6
ENDMDL
MODEL       91
REMARK 921   NORMALIZED FREE ENERGY PREDICTED BY IDOCK:   -4.72 KCAL/MOL
REMARK 922        TOTAL FREE ENERGY PREDICTED BY IDOCK:   -6.75 KCAL/MOL
REMARK 923 INTER-LIGAND FREE ENERGY PREDICTED BY IDOCK:   -5.96 KCAL/MOL
REMARK 924 INTRA-LIGAND FREE ENERGY PREDICTED BY IDOCK:   -0.79 KCAL/MOL
REMARK 927      BINDING AFFINITY PREDICTED BY RF-SCORE:    0.00 PKD
ROOT
HETATM    1  C   UNL     1      -7.840   8.416  66.967  1.00  0.00    -0.096 C  
HETATM    2  C   UNL     1      -9.237   8.153  66.398  1.00  0.00    -0.199 C  
HETATM    3  C   UNL     1      -9.637   6.702  66.680  1.00  0.00    -0.207 C  
ENDROOT
BRANCH   2   4
HETATM    4  N   UNL     1     -10.167   9.107  67.008  1.00  0.00    -0.247 NA 
HETATM    5  H   UNL     1      -9.874   9.340  67.958  1.00  0.00     0.000 HD 
BRANCH   4   6
HETATM    6  C   UNL     1     -10.364  10.322  66.214  1.00  0.00    -0.186 C  
BRANCH   6   7
HETATM    7  C   UNL     1     -10.549  11.557  67.119  1.00  0.00    -0.237 C  
HETATM    8  H   UNL     1     -12.048  12.700  67.660  1.00  0.00     0.000 HD 
HETATM    9  O   UNL     1     -11.933  11.940  67.103  1.00  0.00    -0.611 OA 
BRANCH   7  10
HETATM   10  C   UNL     1     -10.055  11.212  68.536  1.00  0.00    -0.201 C  
BRANCH  10  11
HETATM   11  O   UNL     1     -11.149  10.798  69.357  1.00  0.00    -0.229 OA 
BRANCH  11  12
HETATM   12  C   UNL     1     -10.837   9.926  70.373  1.00  0.00    -0.319 A  
HETATM   13  C   UNL     1      -9.539   9.470  70.657  1.00  0.00    -0.292 A  
HETATM   14  C   UNL     1      -9.288   8.608  71.726  1.00  0.00    -0.343 A  
HETATM   15  C   UNL     1     -10.321   8.172  72.557  1.00  0.00    -0.401 A  
HETATM   16  C   UNL     1     -11.608   8.635  72.278  1.00  0.00    -0.354 A  
HETATM   17  C   UNL     1     -11.889   9.496  71.215  1.00  0.00    -0.450 A  
HETATM   18  C   UNL     1     -13.294   9.743  71.251  1.00  0.00    -0.413 A  
HETATM   19  C   UNL     1     -13.822   9.049  72.313  1.00  0.00    -0.484 A  
HETATM   20  N   UNL     1     -12.796   8.384  72.928  1.00  0.00    -0.686 NA 
HETATM   21  H   UNL     1     -12.898   7.788  73.750  1.00  0.00     0.000 HD 
ENDBRANCH  11  12
ENDBRANCH  10  11
ENDBRANCH   7  10
ENDBRANCH   6   7
ENDBRANCH   4   6
ENDBRANCH   2   4
TORSDOF 6
ENDMDL
MODEL       92
REMARK 921   NORMALIZED FREE ENERGY PREDICTED BY IDOCK:   -4.69 KCAL/MOL
REMARK 922        TOTAL FREE ENERGY PREDICTED BY IDOCK:   -6.71 KCAL/MOL
REMARK 923 INTER-LIGAND FREE ENERGY PREDICTED BY IDOCK:   -6.00 KCAL/MOL
REMARK 924 INTRA-LIGAND FREE ENERGY PREDICTED BY IDOCK:   -0.71 KCAL/MOL
REMARK 927      BINDING AFFINITY PREDICTED BY RF-SCORE:    0.00 PKD
ROOT
HETATM    1  C   UNL     1     -11.376  11.402  69.437  1.00  0.00    -0.365 C  
HETATM    2  C   UNL     1     -11.597  10.202  70.360  1.00  0.00    -0.316 C  
HETATM    3  C   UNL     1     -13.035  10.222  70.887  1.00  0.00    -0.456 C  
ENDROOT
BRANCH   2   4
HETATM    4  N   UNL     1     -11.307   8.981  69.602  1.00  0.00    -0.438 NA 
HETATM    5  H   UNL     1     -11.904   8.918  68.777  1.00  0.00     0.000 HD 
BRANCH   4   6
HETATM    6  C   UNL     1      -9.897   8.843  69.232  1.00  0.00    -0.176 C  
BRANCH   6   7
HETATM    7  C   UNL     1      -9.723   7.873  68.046  1.00  0.00    -0.159 C  
HETATM    8  H   UNL     1     -10.047   5.967  67.721  1.00  0.00     0.000 HD 
HETATM    9  O   UNL     1     -10.153   6.564  68.451  1.00  0.00    -0.145 OA 
BRANCH   7  10
HETATM   10  C   UNL     1     -10.527   8.407  66.847  1.00  0.00    -0.289 C  
BRANCH  10  11
HETATM   11  O   UNL     1     -10.274   9.800  66.660  1.00  0.00    -0.226 OA 
BRANCH  11  12
HETATM   12  C   UNL     1      -9.904  10.176  65.389  1.00  0.00    -0.307 A  
HETATM   13  C   UNL     1      -8.875   9.569  64.650  1.00  0.00    -0.250 A  
HETATM   14  C   UNL     1      -8.573   9.978  63.350  1.00  0.00    -0.204 A  
HETATM   15  C   UNL     1      -9.289  11.006  62.735  1.00  0.00    -0.372 A  
HETATM   16  C   UNL     1     -10.317  11.600  63.468  1.00  0.00    -0.441 A  
HETATM   17  C   UNL     1     -10.641  11.212  64.770  1.00  0.00    -0.371 A  
HETATM   18  C   UNL     1     -11.730  12.037  65.183  1.00  0.00    -0.315 A  
HETATM   19  C   UNL     1     -12.041  12.883  64.145  1.00  0.00    -0.432 A  
HETATM   20  N   UNL     1     -11.183  12.612  63.115  1.00  0.00    -0.738 NA 
HETATM   21  H   UNL     1     -11.186  13.090  62.213  1.00  0.00     0.000 HD 
ENDBRANCH  11  12
ENDBRANCH  10  11
ENDBRANCH   7  10
ENDBRANCH   6   7
ENDBRANCH   4   6
ENDBRANCH   2   4
TORSDOF 6
ENDMDL
MODEL       93
REMARK 921   NORMALIZED FREE ENERGY PREDICTED BY IDOCK:   -4.69 KCAL/MOL
REMARK 922        TOTAL FREE ENERGY PREDICTED BY IDOCK:   -6.70 KCAL/MOL
REMARK 923 INTER-LIGAND FREE ENERGY PREDICTED BY IDOCK:   -6.26 KCAL/MOL
REMARK 924 INTRA-LIGAND FREE ENERGY PREDICTED BY IDOCK:   -0.44 KCAL/MOL
REMARK 927      BINDING AFFINITY PREDICTED BY RF-SCORE:    0.00 PKD
ROOT
HETATM    1  C   UNL     1     -10.509  19.955  65.839  1.00  0.00    -0.567 C  
HETATM    2  C   UNL     1      -9.577  19.997  67.052  1.00  0.00    -0.411 C  
HETATM    3  C   UNL     1     -10.365  19.629  68.313  1.00  0.00    -0.539 C  
ENDROOT
BRANCH   2   4
HETATM    4  N   UNL     1      -8.466  19.072  66.809  1.00  0.00    -0.287 NA 
HETATM    5  H   UNL     1      -7.570  19.549  66.918  1.00  0.00     0.000 HD 
BRANCH   4   6
HETATM    6  C   UNL     1      -8.515  17.867  67.640  1.00  0.00    -0.234 C  
BRANCH   6   7
HETATM    7  C   UNL     1      -8.580  16.594  66.772  1.00  0.00    -0.236 C  
HETATM    8  H   UNL     1      -7.415  15.054  66.433  1.00  0.00     0.000 HD 
HETATM    9  O   UNL     1      -7.375  15.838  66.967  1.00  0.00    -0.212 OA 
BRANCH   7  10
HETATM   10  C   UNL     1      -9.839  15.795  67.157  1.00  0.00    -0.226 C  
BRANCH  10  11
HETATM   11  O   UNL     1      -9.703  14.430  66.757  1.00  0.00    -0.251 OA 
BRANCH  11  12
HETATM   12  C   UNL     1     -10.526  14.022  65.734  1.00  0.00    -0.309 A  
HETATM   13  C   UNL     1     -11.496  14.835  65.123  1.00  0.00    -0.371 A  
HETATM   14  C   UNL     1     -12.277  14.366  64.065  1.00  0.00    -0.300 A  
HETATM   15  C   UNL     1     -12.118  13.070  63.573  1.00  0.00    -0.617 A  
HETATM   16  C   UNL     1     -11.148  12.268  64.175  1.00  0.00    -0.366 A  
HETATM   17  C   UNL     1     -10.352  12.710  65.235  1.00  0.00    -0.309 A  
HETATM   18  C   UNL     1      -9.491  11.626  65.578  1.00  0.00    -0.215 A  
HETATM   19  C   UNL     1      -9.770  10.576  64.735  1.00  0.00    -0.305 A  
HETATM   20  N   UNL     1     -10.770  10.974  63.891  1.00  0.00    -0.510 NA 
HETATM   21  H   UNL     1     -11.178  10.395  63.157  1.00  0.00     0.000 HD 
ENDBRANCH  11  12
ENDBRANCH  10  11
ENDBRANCH   7  10
ENDBRANCH   6   7
ENDBRANCH   4   6
ENDBRANCH   2   4
TORSDOF 6
ENDMDL
MODEL       94
REMARK 921   NORMALIZED FREE ENERGY PREDICTED BY IDOCK:   -4.67 KCAL/MOL
REMARK 922        TOTAL FREE ENERGY PREDICTED BY IDOCK:   -6.69 KCAL/MOL
REMARK 923 INTER-LIGAND FREE ENERGY PREDICTED BY IDOCK:   -6.27 KCAL/MOL
REMARK 924 INTRA-LIGAND FREE ENERGY PREDICTED BY IDOCK:   -0.41 KCAL/MOL
REMARK 927      BINDING AFFINITY PREDICTED BY RF-SCORE:    0.00 PKD
ROOT
HETATM    1  C   UNL     1     -12.211  14.254  64.410  1.00  0.00    -0.471 C  
HETATM    2  C   UNL     1     -12.352  12.731  64.367  1.00  0.00    -0.424 C  
HETATM    3  C   UNL     1     -11.160  12.130  63.615  1.00  0.00    -0.528 C  
ENDROOT
BRANCH   2   4
HETATM    4  N   UNL     1     -12.436  12.238  65.745  1.00  0.00    -0.423 NA 
HETATM    5  H   UNL     1     -13.242  11.623  65.859  1.00  0.00     0.000 HD 
BRANCH   4   6
HETATM    6  C   UNL     1     -11.212  11.581  66.208  1.00  0.00    -0.222 C  
BRANCH   6   7
HETATM    7  C   UNL     1     -11.475  10.735  67.470  1.00  0.00    -0.090 C  
HETATM    8  H   UNL     1     -10.709   9.119  68.273  1.00  0.00     0.000 HD 
HETATM    9  O   UNL     1     -10.546   9.640  67.496  1.00  0.00    -0.253 OA 
BRANCH   7  10
HETATM   10  C   UNL     1     -11.348  11.639  68.709  1.00  0.00    -0.264 C  
BRANCH  10  11
HETATM   11  O   UNL     1     -11.999  12.890  68.481  1.00  0.00    -0.309 OA 
BRANCH  11  12
HETATM   12  C   UNL     1     -11.803  13.851  69.445  1.00  0.00    -0.334 A  
HETATM   13  C   UNL     1     -11.045  15.019  69.259  1.00  0.00    -0.280 A  
HETATM   14  C   UNL     1     -10.914  15.971  70.271  1.00  0.00    -0.360 A  
HETATM   15  C   UNL     1     -11.538  15.797  71.507  1.00  0.00    -0.531 A  
HETATM   16  C   UNL     1     -12.299  14.641  71.686  1.00  0.00    -0.351 A  
HETATM   17  C   UNL     1     -12.447  13.671  70.692  1.00  0.00    -0.417 A  
HETATM   18  C   UNL     1     -13.283  12.652  71.237  1.00  0.00    -0.119 A  
HETATM   19  C   UNL     1     -13.623  13.019  72.518  1.00  0.00    -0.434 A  
HETATM   20  N   UNL     1     -13.025  14.222  72.779  1.00  0.00    -0.462 NA 
HETATM   21  H   UNL     1     -13.105  14.734  73.658  1.00  0.00     0.000 HD 
ENDBRANCH  11  12
ENDBRANCH  10  11
ENDBRANCH   7  10
ENDBRANCH   6   7
ENDBRANCH   4   6
ENDBRANCH   2   4
TORSDOF 6
ENDMDL
MODEL       95
REMARK 921   NORMALIZED FREE ENERGY PREDICTED BY IDOCK:   -4.67 KCAL/MOL
REMARK 922        TOTAL FREE ENERGY PREDICTED BY IDOCK:   -6.68 KCAL/MOL
REMARK 923 INTER-LIGAND FREE ENERGY PREDICTED BY IDOCK:   -5.63 KCAL/MOL
REMARK 924 INTRA-LIGAND FREE ENERGY PREDICTED BY IDOCK:   -1.05 KCAL/MOL
REMARK 927      BINDING AFFINITY PREDICTED BY RF-SCORE:    0.00 PKD
ROOT
HETATM    1  C   UNL     1      -8.213   9.803  66.581  1.00  0.00    -0.120 C  
HETATM    2  C   UNL     1      -9.557   9.333  66.022  1.00  0.00    -0.270 C  
HETATM    3  C   UNL     1     -10.198   8.343  67.000  1.00  0.00    -0.377 C  
ENDROOT
BRANCH   2   4
HETATM    4  N   UNL     1     -10.401  10.511  65.802  1.00  0.00    -0.231 NA 
HETATM    5  H   UNL     1     -11.342  10.354  66.163  1.00  0.00     0.000 HD 
BRANCH   4   6
HETATM    6  C   UNL     1      -9.835  11.746  66.350  1.00  0.00    -0.214 C  
BRANCH   6   7
HETATM    7  C   UNL     1     -10.936  12.654  66.934  1.00  0.00    -0.262 C  
HETATM    8  H   UNL     1     -12.882  12.811  66.750  1.00  0.00     0.000 HD 
HETATM    9  O   UNL     1     -12.204  12.252  66.390  1.00  0.00    -0.613 OA 
BRANCH   7  10
HETATM   10  C   UNL     1     -10.900  12.553  68.469  1.00  0.00    -0.243 C  
BRANCH  10  11
HETATM   11  O   UNL     1     -10.428  11.266  68.872  1.00  0.00    -0.201 OA 
BRANCH  11  12
HETATM   12  C   UNL     1     -11.104  10.680  69.916  1.00  0.00    -0.298 A  
HETATM   13  C   UNL     1     -12.445  10.945  70.241  1.00  0.00    -0.383 A  
HETATM   14  C   UNL     1     -13.082  10.290  71.296  1.00  0.00    -0.492 A  
HETATM   15  C   UNL     1     -12.407   9.340  72.065  1.00  0.00    -0.433 A  
HETATM   16  C   UNL     1     -11.078   9.071  71.733  1.00  0.00    -0.374 A  
HETATM   17  C   UNL     1     -10.416   9.712  70.684  1.00  0.00    -0.379 A  
HETATM   18  C   UNL     1      -9.091   9.182  70.653  1.00  0.00    -0.307 A  
HETATM   19  C   UNL     1      -8.983   8.247  71.656  1.00  0.00    -0.180 A  
HETATM   20  N   UNL     1     -10.188   8.187  72.301  1.00  0.00    -0.252 NA 
HETATM   21  H   UNL     1     -10.396   7.575  73.090  1.00  0.00     0.000 HD 
ENDBRANCH  11  12
ENDBRANCH  10  11
ENDBRANCH   7  10
ENDBRANCH   6   7
ENDBRANCH   4   6
ENDBRANCH   2   4
TORSDOF 6
ENDMDL
MODEL       96
REMARK 921   NORMALIZED FREE ENERGY PREDICTED BY IDOCK:   -4.66 KCAL/MOL
REMARK 922        TOTAL FREE ENERGY PREDICTED BY IDOCK:   -6.67 KCAL/MOL
REMARK 923 INTER-LIGAND FREE ENERGY PREDICTED BY IDOCK:   -5.88 KCAL/MOL
REMARK 924 INTRA-LIGAND FREE ENERGY PREDICTED BY IDOCK:   -0.79 KCAL/MOL
REMARK 927      BINDING AFFINITY PREDICTED BY RF-SCORE:    0.00 PKD
ROOT
HETATM    1  C   UNL     1     -12.382  12.162  63.357  1.00  0.00    -0.648 C  
HETATM    2  C   UNL     1     -11.469  13.200  64.014  1.00  0.00    -0.406 C  
HETATM    3  C   UNL     1     -12.235  13.920  65.128  1.00  0.00    -0.443 C  
ENDROOT
BRANCH   2   4
HETATM    4  N   UNL     1     -10.281  12.509  64.523  1.00  0.00    -0.425 NA 
HETATM    5  H   UNL     1      -9.671  13.159  65.020  1.00  0.00     0.000 HD 
BRANCH   4   6
HETATM    6  C   UNL     1     -10.592  11.348  65.360  1.00  0.00    -0.275 C  
BRANCH   6   7
HETATM    7  C   UNL     1      -9.455  11.060  66.361  1.00  0.00    -0.193 C  
HETATM    8  H   UNL     1      -7.682  10.227  66.284  1.00  0.00     0.000 HD 
HETATM    9  O   UNL     1      -8.382  10.405  65.667  1.00  0.00    -0.152 OA 
BRANCH   7  10
HETATM   10  C   UNL     1      -9.012  12.387  67.003  1.00  0.00    -0.209 C  
BRANCH  10  11
HETATM   11  O   UNL     1      -9.827  12.688  68.137  1.00  0.00    -0.215 OA 
BRANCH  11  12
HETATM   12  C   UNL     1     -10.230  13.997  68.253  1.00  0.00    -0.249 A  
HETATM   13  C   UNL     1      -9.712  15.058  67.491  1.00  0.00    -0.215 A  
HETATM   14  C   UNL     1     -10.190  16.361  67.637  1.00  0.00    -0.272 A  
HETATM   15  C   UNL     1     -11.208  16.656  68.545  1.00  0.00    -0.239 A  
HETATM   16  C   UNL     1     -11.728  15.599  69.293  1.00  0.00    -0.375 A  
HETATM   17  C   UNL     1     -11.269  14.286  69.169  1.00  0.00    -0.302 A  
HETATM   18  C   UNL     1     -12.030  13.499  70.084  1.00  0.00    -0.399 A  
HETATM   19  C   UNL     1     -12.920  14.330  70.723  1.00  0.00    -0.304 A  
HETATM   20  N   UNL     1     -12.730  15.596  70.238  1.00  0.00    -0.563 NA 
HETATM   21  H   UNL     1     -13.256  16.418  70.535  1.00  0.00     0.000 HD 
ENDBRANCH  11  12
ENDBRANCH  10  11
ENDBRANCH   7  10
ENDBRANCH   6   7
ENDBRANCH   4   6
ENDBRANCH   2   4
TORSDOF 6
ENDMDL
MODEL       97
REMARK 921   NORMALIZED FREE ENERGY PREDICTED BY IDOCK:   -4.65 KCAL/MOL
REMARK 922        TOTAL FREE ENERGY PREDICTED BY IDOCK:   -6.66 KCAL/MOL
REMARK 923 INTER-LIGAND FREE ENERGY PREDICTED BY IDOCK:   -6.07 KCAL/MOL
REMARK 924 INTRA-LIGAND FREE ENERGY PREDICTED BY IDOCK:   -0.59 KCAL/MOL
REMARK 927      BINDING AFFINITY PREDICTED BY RF-SCORE:    0.00 PKD
ROOT
HETATM    1  C   UNL     1      -7.290  19.927  65.543  1.00  0.00    -0.270 C  
HETATM    2  C   UNL     1      -7.682  19.841  67.020  1.00  0.00    -0.272 C  
HETATM    3  C   UNL     1      -9.132  20.301  67.191  1.00  0.00    -0.499 C  
ENDROOT
BRANCH   2   4
HETATM    4  N   UNL     1      -7.489  18.457  67.466  1.00  0.00    -0.218 NA 
HETATM    5  H   UNL     1      -8.175  18.210  68.180  1.00  0.00     0.000 HD 
BRANCH   4   6
HETATM    6  C   UNL     1      -7.503  17.483  66.372  1.00  0.00    -0.299 C  
BRANCH   6   7
HETATM    7  C   UNL     1      -8.486  16.331  66.665  1.00  0.00    -0.271 C  
HETATM    8  H   UNL     1      -9.182  15.440  68.266  1.00  0.00     0.000 HD 
HETATM    9  O   UNL     1      -8.577  16.149  68.086  1.00  0.00    -0.172 OA 
BRANCH   7  10
HETATM   10  C   UNL     1      -9.848  16.668  66.030  1.00  0.00    -0.309 C  
BRANCH  10  11
HETATM   11  O   UNL     1     -10.901  16.012  66.738  1.00  0.00    -0.294 OA 
BRANCH  11  12
HETATM   12  C   UNL     1     -11.338  14.826  66.196  1.00  0.00    -0.330 A  
HETATM   13  C   UNL     1     -11.730  14.662  64.856  1.00  0.00    -0.403 A  
HETATM   14  C   UNL     1     -12.132  13.420  64.362  1.00  0.00    -0.468 A  
HETATM   15  C   UNL     1     -12.154  12.291  65.184  1.00  0.00    -0.379 A  
HETATM   16  C   UNL     1     -11.755  12.456  66.511  1.00  0.00    -0.379 A  
HETATM   17  C   UNL     1     -11.348  13.685  67.033  1.00  0.00    -0.344 A  
HETATM   18  C   UNL     1     -11.021  13.460  68.403  1.00  0.00    -0.291 A  
HETATM   19  C   UNL     1     -11.224  12.127  68.676  1.00  0.00    -0.269 A  
HETATM   20  N   UNL     1     -11.666  11.529  67.527  1.00  0.00    -0.604 NA 
HETATM   21  H   UNL     1     -11.896  10.540  67.436  1.00  0.00     0.000 HD 
ENDBRANCH  11  12
ENDBRANCH  10  11
ENDBRANCH   7  10
ENDBRANCH   6   7
ENDBRANCH   4   6
ENDBRANCH   2   4
TORSDOF 6
ENDMDL
MODEL       98
REMARK 921   NORMALIZED FREE ENERGY PREDICTED BY IDOCK:   -4.63 KCAL/MOL
REMARK 922        TOTAL FREE ENERGY PREDICTED BY IDOCK:   -6.64 KCAL/MOL
REMARK 923 INTER-LIGAND FREE ENERGY PREDICTED BY IDOCK:   -6.07 KCAL/MOL
REMARK 924 INTRA-LIGAND FREE ENERGY PREDICTED BY IDOCK:   -0.56 KCAL/MOL
REMARK 927      BINDING AFFINITY PREDICTED BY RF-SCORE:    0.00 PKD
ROOT
HETATM    1  C   UNL     1      -9.840  19.920  68.331  1.00  0.00    -0.489 C  
HETATM    2  C   UNL     1      -9.187  19.345  67.072  1.00  0.00    -0.318 C  
HETATM    3  C   UNL     1      -7.668  19.293  67.265  1.00  0.00    -0.269 C  
ENDROOT
BRANCH   2   4
HETATM    4  N   UNL     1      -9.755  18.016  66.827  1.00  0.00    -0.308 NA 
HETATM    5  H   UNL     1      -9.021  17.347  66.593  1.00  0.00     0.000 HD 
BRANCH   4   6
HETATM    6  C   UNL     1     -10.577  17.517  67.933  1.00  0.00    -0.390 C  
BRANCH   6   7
HETATM    7  C   UNL     1     -10.093  16.132  68.406  1.00  0.00    -0.236 C  
HETATM    8  H   UNL     1      -8.555  15.437  69.404  1.00  0.00     0.000 HD 
HETATM    9  O   UNL     1      -8.853  16.290  69.112  1.00  0.00    -0.249 OA 
BRANCH   7  10
HETATM   10  C   UNL     1     -11.188  15.498  69.284  1.00  0.00    -0.310 C  
BRANCH  10  11
HETATM   11  O   UNL     1     -12.132  14.797  68.472  1.00  0.00    -0.272 OA 
BRANCH  11  12
HETATM   12  C   UNL     1     -11.730  13.564  68.017  1.00  0.00    -0.359 A  
HETATM   13  C   UNL     1     -11.321  12.506  68.847  1.00  0.00    -0.346 A  
HETATM   14  C   UNL     1     -10.956  11.266  68.319  1.00  0.00    -0.275 A  
HETATM   15  C   UNL     1     -10.990  11.031  66.944  1.00  0.00    -0.311 A  
HETATM   16  C   UNL     1     -11.408  12.080  66.123  1.00  0.00    -0.351 A  
HETATM   17  C   UNL     1     -11.777  13.331  66.622  1.00  0.00    -0.425 A  
HETATM   18  C   UNL     1     -12.138  14.130  65.496  1.00  0.00    -0.421 A  
HETATM   19  C   UNL     1     -11.990  13.363  64.365  1.00  0.00    -0.411 A  
HETATM   20  N   UNL     1     -11.549  12.127  64.754  1.00  0.00    -0.333 NA 
HETATM   21  H   UNL     1     -11.355  11.351  64.120  1.00  0.00     0.000 HD 
ENDBRANCH  11  12
ENDBRANCH  10  11
ENDBRANCH   7  10
ENDBRANCH   6   7
ENDBRANCH   4   6
ENDBRANCH   2   4
TORSDOF 6
ENDMDL
MODEL       99
REMARK 921   NORMALIZED FREE ENERGY PREDICTED BY IDOCK:   -4.63 KCAL/MOL
REMARK 922        TOTAL FREE ENERGY PREDICTED BY IDOCK:   -6.63 KCAL/MOL
REMARK 923 INTER-LIGAND FREE ENERGY PREDICTED BY IDOCK:   -6.05 KCAL/MOL
REMARK 924 INTRA-LIGAND FREE ENERGY PREDICTED BY IDOCK:   -0.59 KCAL/MOL
REMARK 927      BINDING AFFINITY PREDICTED BY RF-SCORE:    0.00 PKD
ROOT
HETATM    1  C   UNL     1     -12.523  12.516  64.688  1.00  0.00    -0.539 C  
HETATM    2  C   UNL     1     -11.402  12.334  65.713  1.00  0.00    -0.355 C  
HETATM    3  C   UNL     1     -10.531  13.594  65.745  1.00  0.00    -0.296 C  
ENDROOT
BRANCH   2   4
HETATM    4  N   UNL     1     -12.013  12.055  67.016  1.00  0.00    -0.606 NA 
HETATM    5  H   UNL     1     -11.664  11.175  67.397  1.00  0.00     0.000 HD 
BRANCH   4   6
HETATM    6  C   UNL     1     -11.846  13.141  67.985  1.00  0.00    -0.358 C  
BRANCH   6   7
HETATM    7  C   UNL     1     -11.602  12.590  69.404  1.00  0.00    -0.305 C  
HETATM    8  H   UNL     1     -12.137  13.087  71.224  1.00  0.00     0.000 HD 
HETATM    9  O   UNL     1     -12.287  13.426  70.350  1.00  0.00    -0.336 OA 
BRANCH   7  10
HETATM   10  C   UNL     1     -12.083  11.129  69.459  1.00  0.00    -0.326 C  
BRANCH  10  11
HETATM   11  O   UNL     1     -10.967  10.238  69.469  1.00  0.00    -0.226 OA 
BRANCH  11  12
HETATM   12  C   UNL     1     -11.090   9.133  70.277  1.00  0.00    -0.239 A  
HETATM   13  C   UNL     1     -11.445   9.180  71.636  1.00  0.00    -0.451 A  
HETATM   14  C   UNL     1     -11.585   8.015  72.393  1.00  0.00    -0.450 A  
HETATM   15  C   UNL     1     -11.381   6.758  71.822  1.00  0.00    -0.307 A  
HETATM   16  C   UNL     1     -11.039   6.714  70.470  1.00  0.00    -0.307 A  
HETATM   17  C   UNL     1     -10.891   7.862  69.689  1.00  0.00    -0.177 A  
HETATM   18  C   UNL     1     -10.542   7.422  68.378  1.00  0.00    -0.192 A  
HETATM   19  C   UNL     1     -10.493   6.048  68.388  1.00  0.00    -0.238 A  
HETATM   20  N   UNL     1     -10.796   5.630  69.656  1.00  0.00    -0.337 NA 
HETATM   21  H   UNL     1     -10.835   4.655  69.954  1.00  0.00     0.000 HD 
ENDBRANCH  11  12
ENDBRANCH  10  11
ENDBRANCH   7  10
ENDBRANCH   6   7
ENDBRANCH   4   6
ENDBRANCH   2   4
TORSDOF 6
ENDMDL
MODEL      100
REMARK 921   NORMALIZED FREE ENERGY PREDICTED BY IDOCK:   -4.62 KCAL/MOL
REMARK 922        TOTAL FREE ENERGY PREDICTED BY IDOCK:   -6.62 KCAL/MOL
REMARK 923 INTER-LIGAND FREE ENERGY PREDICTED BY IDOCK:   -6.15 KCAL/MOL
REMARK 924 INTRA-LIGAND FREE ENERGY PREDICTED BY IDOCK:   -0.47 KCAL/MOL
REMARK 927      BINDING AFFINITY PREDICTED BY RF-SCORE:    0.00 PKD
ROOT
HETATM    1  C   UNL     1     -13.815  13.030  72.209  1.00  0.00    -0.529 C  
HETATM    2  C   UNL     1     -12.764  11.993  71.807  1.00  0.00    -0.168 C  
HETATM    3  C   UNL     1     -13.414  10.607  71.741  1.00  0.00    -0.325 C  
ENDROOT
BRANCH   2   4
HETATM    4  N   UNL     1     -12.194  12.394  70.518  1.00  0.00    -0.391 NA 
HETATM    5  H   UNL     1     -12.545  11.798  69.767  1.00  0.00     0.000 HD 
BRANCH   4   6
HETATM    6  C   UNL     1     -12.406  13.808  70.199  1.00  0.00    -0.323 C  
BRANCH   6   7
HETATM    7  C   UNL     1     -11.924  14.136  68.771  1.00  0.00    -0.332 C  
HETATM    8  H   UNL     1     -11.658  15.762  67.708  1.00  0.00     0.000 HD 
HETATM    9  O   UNL     1     -11.955  15.560  68.587  1.00  0.00    -0.335 OA 
BRANCH   7  10
HETATM   10  C   UNL     1     -10.513  13.552  68.577  1.00  0.00    -0.244 C  
BRANCH  10  11
HETATM   11  O   UNL     1      -9.973  13.963  67.320  1.00  0.00    -0.237 OA 
BRANCH  11  12
HETATM   12  C   UNL     1     -10.352  13.213  66.232  1.00  0.00    -0.287 A  
HETATM   13  C   UNL     1     -10.007  11.865  66.038  1.00  0.00    -0.258 A  
HETATM   14  C   UNL     1     -10.454  11.152  64.924  1.00  0.00    -0.372 A  
HETATM   15  C   UNL     1     -11.268  11.755  63.963  1.00  0.00    -0.461 A  
HETATM   16  C   UNL     1     -11.618  13.090  64.165  1.00  0.00    -0.407 A  
HETATM   17  C   UNL     1     -11.185  13.829  65.268  1.00  0.00    -0.311 A  
HETATM   18  C   UNL     1     -11.739  15.136  65.128  1.00  0.00    -0.179 A  
HETATM   19  C   UNL     1     -12.485  15.161  63.974  1.00  0.00     0.149 A  
HETATM   20  N   UNL     1     -12.407  13.921  63.400  1.00  0.00    -1.139 NA 
HETATM   21  H   UNL     1     -12.867  13.651  62.530  1.00  0.00     0.000 HD 
ENDBRANCH  11  12
ENDBRANCH  10  11
ENDBRANCH   7  10
ENDBRANCH   6   7
ENDBRANCH   4   6
ENDBRANCH   2   4
TORSDOF 6
ENDMDL
MODEL      101
REMARK 921   NORMALIZED FREE ENERGY PREDICTED BY IDOCK:   -4.61 KCAL/MOL
REMARK 922        TOTAL FREE ENERGY PREDICTED BY IDOCK:   -6.60 KCAL/MOL
REMARK 923 INTER-LIGAND FREE ENERGY PREDICTED BY IDOCK:   -6.28 KCAL/MOL
REMARK 924 INTRA-LIGAND FREE ENERGY PREDICTED BY IDOCK:   -0.32 KCAL/MOL
REMARK 927      BINDING AFFINITY PREDICTED BY RF-SCORE:    0.00 PKD
ROOT
HETATM    1  C   UNL     1      -7.274  20.885  67.186  1.00  0.00    -0.395 C  
HETATM    2  C   UNL     1      -7.141  19.670  68.106  1.00  0.00    -0.292 C  
HETATM    3  C   UNL     1      -6.240  20.026  69.293  1.00  0.00    -0.360 C  
ENDROOT
BRANCH   2   4
HETATM    4  N   UNL     1      -8.484  19.271  68.537  1.00  0.00    -0.358 NA 
HETATM    5  H   UNL     1      -9.157  20.016  68.354  1.00  0.00     0.000 HD 
BRANCH   4   6
HETATM    6  C   UNL     1      -8.936  18.008  67.948  1.00  0.00    -0.265 C  
BRANCH   6   7
HETATM    7  C   UNL     1     -10.399  18.107  67.471  1.00  0.00    -0.392 C  
HETATM    8  H   UNL     1     -11.626  19.551  66.967  1.00  0.00     0.000 HD 
HETATM    9  O   UNL     1     -10.726  19.489  67.260  1.00  0.00    -0.471 OA 
BRANCH   7  10
HETATM   10  C   UNL     1     -10.562  17.267  66.192  1.00  0.00    -0.204 C  
BRANCH  10  11
HETATM   11  O   UNL     1      -9.770  16.080  66.272  1.00  0.00    -0.263 OA 
BRANCH  11  12
HETATM   12  C   UNL     1     -10.410  14.967  66.764  1.00  0.00    -0.269 A  
HETATM   13  C   UNL     1     -10.401  14.578  68.114  1.00  0.00    -0.232 A  
HETATM   14  C   UNL     1     -11.100  13.452  68.553  1.00  0.00    -0.299 A  
HETATM   15  C   UNL     1     -11.840  12.673  67.662  1.00  0.00    -0.390 A  
HETATM   16  C   UNL     1     -11.856  13.068  66.324  1.00  0.00    -0.408 A  
HETATM   17  C   UNL     1     -11.165  14.188  65.856  1.00  0.00    -0.313 A  
HETATM   18  C   UNL     1     -11.418  14.268  64.455  1.00  0.00    -0.321 A  
HETATM   19  C   UNL     1     -12.242  13.223  64.110  1.00  0.00    -0.401 A  
HETATM   20  N   UNL     1     -12.502  12.505  65.245  1.00  0.00    -0.647 NA 
HETATM   21  H   UNL     1     -13.090  11.672  65.286  1.00  0.00     0.000 HD 
ENDBRANCH  11  12
ENDBRANCH  10  11
ENDBRANCH   7  10
ENDBRANCH   6   7
ENDBRANCH   4   6
ENDBRANCH   2   4
TORSDOF 6
ENDMDL
MODEL      102
REMARK 921   NORMALIZED FREE ENERGY PREDICTED BY IDOCK:   -4.59 KCAL/MOL
REMARK 922        TOTAL FREE ENERGY PREDICTED BY IDOCK:   -6.58 KCAL/MOL
REMARK 923 INTER-LIGAND FREE ENERGY PREDICTED BY IDOCK:   -5.91 KCAL/MOL
REMARK 924 INTRA-LIGAND FREE ENERGY PREDICTED BY IDOCK:   -0.68 KCAL/MOL
REMARK 927      BINDING AFFINITY PREDICTED BY RF-SCORE:    0.00 PKD
ROOT
HETATM    1  C   UNL     1      -9.714  14.078  68.175  1.00  0.00    -0.220 C  
HETATM    2  C   UNL     1     -10.959  14.921  67.889  1.00  0.00    -0.286 C  
HETATM    3  C   UNL     1     -12.125  14.000  67.521  1.00  0.00    -0.361 C  
ENDROOT
BRANCH   2   4
HETATM    4  N   UNL     1     -11.250  15.728  69.078  1.00  0.00    -0.296 NA 
HETATM    5  H   UNL     1     -11.299  16.719  68.838  1.00  0.00     0.000 HD 
BRANCH   4   6
HETATM    6  C   UNL     1     -12.459  15.307  69.789  1.00  0.00    -0.188 C  
BRANCH   6   7
HETATM    7  C   UNL     1     -12.138  14.903  71.243  1.00  0.00    -0.330 C  
HETATM    8  H   UNL     1     -12.451  15.665  73.022  1.00  0.00     0.000 HD 
HETATM    9  O   UNL     1     -12.649  15.913  72.127  1.00  0.00    -0.424 OA 
BRANCH   7  10
HETATM   10  C   UNL     1     -12.752  13.519  71.520  1.00  0.00    -0.322 C  
BRANCH  10  11
HETATM   11  O   UNL     1     -12.210  12.546  70.626  1.00  0.00    -0.369 OA 
BRANCH  11  12
HETATM   12  C   UNL     1     -12.334  11.235  71.022  1.00  0.00    -0.366 A  
HETATM   13  C   UNL     1     -13.238  10.783  71.998  1.00  0.00    -0.466 A  
HETATM   14  C   UNL     1     -13.335   9.431  72.329  1.00  0.00    -0.539 A  
HETATM   15  C   UNL     1     -12.539   8.475  71.696  1.00  0.00    -0.369 A  
HETATM   16  C   UNL     1     -11.649   8.926  70.720  1.00  0.00    -0.259 A  
HETATM   17  C   UNL     1     -11.529  10.273  70.369  1.00  0.00    -0.415 A  
HETATM   18  C   UNL     1     -10.532  10.342  69.350  1.00  0.00    -0.259 A  
HETATM   19  C   UNL     1     -10.084   9.065  69.105  1.00  0.00    -0.195 A  
HETATM   20  N   UNL     1     -10.765   8.218  69.937  1.00  0.00    -0.240 NA 
HETATM   21  H   UNL     1     -10.635   7.206  69.971  1.00  0.00     0.000 HD 
ENDBRANCH  11  12
ENDBRANCH  10  11
ENDBRANCH   7  10
ENDBRANCH   6   7
ENDBRANCH   4   6
ENDBRANCH   2   4
TORSDOF 6
ENDMDL
MODEL      103
REMARK 921   NORMALIZED FREE ENERGY PREDICTED BY IDOCK:   -4.58 KCAL/MOL
REMARK 922        TOTAL FREE ENERGY PREDICTED BY IDOCK:   -6.56 KCAL/MOL
REMARK 923 INTER-LIGAND FREE ENERGY PREDICTED BY IDOCK:   -5.69 KCAL/MOL
REMARK 924 INTRA-LIGAND FREE ENERGY PREDICTED BY IDOCK:   -0.87 KCAL/MOL
REMARK 927      BINDING AFFINITY PREDICTED BY RF-SCORE:    0.00 PKD
ROOT
HETATM    1  C   UNL     1      -9.345  10.163  63.919  1.00  0.00    -0.336 C  
HETATM    2  C   UNL     1     -10.406  11.008  64.628  1.00  0.00    -0.345 C  
HETATM    3  C   UNL     1     -10.129  11.014  66.135  1.00  0.00    -0.286 C  
ENDROOT
BRANCH   2   4
HETATM    4  N   UNL     1     -10.373  12.358  64.058  1.00  0.00    -0.390 NA 
HETATM    5  H   UNL     1      -9.659  12.426  63.332  1.00  0.00     0.000 HD 
BRANCH   4   6
HETATM    6  C   UNL     1     -11.671  12.811  63.552  1.00  0.00    -0.530 C  
BRANCH   6   7
HETATM    7  C   UNL     1     -12.126  14.103  64.262  1.00  0.00    -0.444 C  
HETATM    8  H   UNL     1     -13.404  14.562  65.677  1.00  0.00     0.000 HD 
HETATM    9  O   UNL     1     -13.123  13.767  65.240  1.00  0.00    -0.756 OA 
BRANCH   7  10
HETATM   10  C   UNL     1     -10.897  14.783  64.890  1.00  0.00    -0.416 C  
BRANCH  10  11
HETATM   11  O   UNL     1     -10.838  14.508  66.291  1.00  0.00    -0.306 OA 
BRANCH  11  12
HETATM   12  C   UNL     1     -10.150  15.424  67.052  1.00  0.00    -0.249 A  
HETATM   13  C   UNL     1     -10.680  16.649  67.490  1.00  0.00    -0.278 A  
HETATM   14  C   UNL     1      -9.937  17.519  68.290  1.00  0.00    -0.330 A  
HETATM   15  C   UNL     1      -8.638  17.199  68.687  1.00  0.00    -0.260 A  
HETATM   16  C   UNL     1      -8.118  15.977  68.258  1.00  0.00    -0.150 A  
HETATM   17  C   UNL     1      -8.837  15.087  67.458  1.00  0.00    -0.193 A  
HETATM   18  C   UNL     1      -7.987  13.965  67.229  1.00  0.00    -0.147 A  
HETATM   19  C   UNL     1      -6.800  14.188  67.886  1.00  0.00    -0.165 A  
HETATM   20  N   UNL     1      -6.889  15.405  68.505  1.00  0.00    -0.110 NA 
HETATM   21  H   UNL     1      -6.151  15.828  69.069  1.00  0.00     0.000 HD 
ENDBRANCH  11  12
ENDBRANCH  10  11
ENDBRANCH   7  10
ENDBRANCH   6   7
ENDBRANCH   4   6
ENDBRANCH   2   4
TORSDOF 6
ENDMDL
MODEL      104
REMARK 921   NORMALIZED FREE ENERGY PREDICTED BY IDOCK:   -4.55 KCAL/MOL
REMARK 922        TOTAL FREE ENERGY PREDICTED BY IDOCK:   -6.52 KCAL/MOL
REMARK 923 INTER-LIGAND FREE ENERGY PREDICTED BY IDOCK:   -6.16 KCAL/MOL
REMARK 924 INTRA-LIGAND FREE ENERGY PREDICTED BY IDOCK:   -0.36 KCAL/MOL
REMARK 927      BINDING AFFINITY PREDICTED BY RF-SCORE:    0.00 PKD
ROOT
HETATM    1  C   UNL     1     -12.719  14.540  70.884  1.00  0.00    -0.411 C  
HETATM    2  C   UNL     1     -11.802  13.787  69.917  1.00  0.00    -0.327 C  
HETATM    3  C   UNL     1     -11.928  12.281  70.165  1.00  0.00    -0.377 C  
ENDROOT
BRANCH   2   4
HETATM    4  N   UNL     1     -12.181  14.152  68.549  1.00  0.00    -0.561 NA 
HETATM    5  H   UNL     1     -12.717  15.020  68.542  1.00  0.00     0.000 HD 
BRANCH   4   6
HETATM    6  C   UNL     1     -11.043  14.239  67.630  1.00  0.00    -0.292 C  
BRANCH   6   7
HETATM    7  C   UNL     1      -9.704  14.194  68.395  1.00  0.00    -0.226 C  
HETATM    8  H   UNL     1      -8.224  12.921  68.578  1.00  0.00     0.000 HD 
HETATM    9  O   UNL     1      -9.048  12.949  68.108  1.00  0.00    -0.199 OA 
BRANCH   7  10
HETATM   10  C   UNL     1      -8.856  15.410  67.982  1.00  0.00    -0.165 C  
BRANCH  10  11
HETATM   11  O   UNL     1      -9.261  16.570  68.711  1.00  0.00    -0.234 OA 
BRANCH  11  12
HETATM   12  C   UNL     1      -8.594  17.732  68.405  1.00  0.00    -0.292 A  
HETATM   13  C   UNL     1      -7.335  18.084  68.923  1.00  0.00    -0.249 A  
HETATM   14  C   UNL     1      -6.698  19.267  68.544  1.00  0.00    -0.305 A  
HETATM   15  C   UNL     1      -7.288  20.142  67.631  1.00  0.00    -0.328 A  
HETATM   16  C   UNL     1      -8.533  19.785  67.112  1.00  0.00    -0.317 A  
HETATM   17  C   UNL     1      -9.195  18.609  67.472  1.00  0.00    -0.295 A  
HETATM   18  C   UNL     1     -10.422  18.591  66.745  1.00  0.00    -0.432 A  
HETATM   19  C   UNL     1     -10.475  19.726  65.970  1.00  0.00    -0.506 A  
HETATM   20  N   UNL     1      -9.330  20.440  66.198  1.00  0.00    -0.642 NA 
HETATM   21  H   UNL     1      -9.099  21.329  65.755  1.00  0.00     0.000 HD 
ENDBRANCH  11  12
ENDBRANCH  10  11
ENDBRANCH   7  10
ENDBRANCH   6   7
ENDBRANCH   4   6
ENDBRANCH   2   4
TORSDOF 6
ENDMDL
MODEL      105
REMARK 921   NORMALIZED FREE ENERGY PREDICTED BY IDOCK:   -4.54 KCAL/MOL
REMARK 922        TOTAL FREE ENERGY PREDICTED BY IDOCK:   -6.51 KCAL/MOL
REMARK 923 INTER-LIGAND FREE ENERGY PREDICTED BY IDOCK:   -5.72 KCAL/MOL
REMARK 924 INTRA-LIGAND FREE ENERGY PREDICTED BY IDOCK:   -0.78 KCAL/MOL
REMARK 927      BINDING AFFINITY PREDICTED BY RF-SCORE:    0.00 PKD
ROOT
HETATM    1  C   UNL     1      -8.853   9.778  67.880  1.00  0.00    -0.122 C  
HETATM    2  C   UNL     1     -10.063   9.049  67.292  1.00  0.00    -0.234 C  
HETATM    3  C   UNL     1      -9.886   7.538  67.474  1.00  0.00    -0.209 C  
ENDROOT
BRANCH   2   4
HETATM    4  N   UNL     1     -11.268   9.545  67.963  1.00  0.00    -0.509 NA 
HETATM    5  H   UNL     1     -11.925   8.784  68.135  1.00  0.00     0.000 HD 
BRANCH   4   6
HETATM    6  C   UNL     1     -10.989  10.278  69.201  1.00  0.00    -0.238 C  
BRANCH   6   7
HETATM    7  C   UNL     1     -12.149  11.228  69.560  1.00  0.00    -0.317 C  
HETATM    8  H   UNL     1     -12.978  11.884  71.211  1.00  0.00     0.000 HD 
HETATM    9  O   UNL     1     -12.264  11.299  70.990  1.00  0.00    -0.354 OA 
BRANCH   7  10
HETATM   10  C   UNL     1     -11.877  12.605  68.927  1.00  0.00    -0.302 C  
BRANCH  10  11
HETATM   11  O   UNL     1     -11.359  12.450  67.604  1.00  0.00    -0.271 OA 
BRANCH  11  12
HETATM   12  C   UNL     1     -10.685  13.535  67.095  1.00  0.00    -0.279 A  
HETATM   13  C   UNL     1      -9.448  13.997  67.574  1.00  0.00    -0.221 A  
HETATM   14  C   UNL     1      -8.801  15.088  66.989  1.00  0.00    -0.257 A  
HETATM   15  C   UNL     1      -9.362  15.756  65.899  1.00  0.00    -0.356 A  
HETATM   16  C   UNL     1     -10.586  15.289  65.420  1.00  0.00    -0.394 A  
HETATM   17  C   UNL     1     -11.256  14.202  65.986  1.00  0.00    -0.319 A  
HETATM   18  C   UNL     1     -12.457  14.026  65.235  1.00  0.00    -0.495 A  
HETATM   19  C   UNL     1     -12.486  14.983  64.248  1.00  0.00    -0.107 A  
HETATM   20  N   UNL     1     -11.352  15.740  64.367  1.00  0.00    -0.742 NA 
HETATM   21  H   UNL     1     -11.110  16.525  63.763  1.00  0.00     0.000 HD 
ENDBRANCH  11  12
ENDBRANCH  10  11
ENDBRANCH   7  10
ENDBRANCH   6   7
ENDBRANCH   4   6
ENDBRANCH   2   4
TORSDOF 6
ENDMDL
MODEL      106
REMARK 921   NORMALIZED FREE ENERGY PREDICTED BY IDOCK:   -4.54 KCAL/MOL
REMARK 922        TOTAL FREE ENERGY PREDICTED BY IDOCK:   -6.51 KCAL/MOL
REMARK 923 INTER-LIGAND FREE ENERGY PREDICTED BY IDOCK:   -6.06 KCAL/MOL
REMARK 924 INTRA-LIGAND FREE ENERGY PREDICTED BY IDOCK:   -0.44 KCAL/MOL
REMARK 927      BINDING AFFINITY PREDICTED BY RF-SCORE:    0.00 PKD
ROOT
HETATM    1  C   UNL     1      -9.330   6.315  68.244  1.00  0.00    -0.112 C  
HETATM    2  C   UNL     1     -10.807   6.664  68.444  1.00  0.00    -0.255 C  
HETATM    3  C   UNL     1     -11.226   6.305  69.873  1.00  0.00    -0.498 C  
ENDROOT
BRANCH   2   4
HETATM    4  N   UNL     1     -10.983   8.092  68.162  1.00  0.00    -0.441 NA 
HETATM    5  H   UNL     1     -10.572   8.659  68.904  1.00  0.00     0.000 HD 
BRANCH   4   6
HETATM    6  C   UNL     1     -10.467   8.498  66.853  1.00  0.00    -0.275 C  
BRANCH   6   7
HETATM    7  C   UNL     1     -10.292  10.028  66.773  1.00  0.00    -0.217 C  
HETATM    8  H   UNL     1     -10.426  11.394  65.372  1.00  0.00     0.000 HD 
HETATM    9  O   UNL     1     -10.534  10.452  65.422  1.00  0.00    -0.237 OA 
BRANCH   7  10
HETATM   10  C   UNL     1     -11.256  10.691  67.774  1.00  0.00    -0.313 C  
BRANCH  10  11
HETATM   11  O   UNL     1     -11.972  11.754  67.145  1.00  0.00    -0.617 OA 
BRANCH  11  12
HETATM   12  C   UNL     1     -11.717  13.016  67.628  1.00  0.00    -0.366 A  
HETATM   13  C   UNL     1     -11.746  13.365  68.989  1.00  0.00    -0.368 A  
HETATM   14  C   UNL     1     -11.444  14.659  69.415  1.00  0.00    -0.330 A  
HETATM   15  C   UNL     1     -11.098  15.655  68.501  1.00  0.00    -0.322 A  
HETATM   16  C   UNL     1     -11.061  15.303  67.151  1.00  0.00    -0.323 A  
HETATM   17  C   UNL     1     -11.358  14.017  66.696  1.00  0.00    -0.345 A  
HETATM   18  C   UNL     1     -11.214  14.043  65.277  1.00  0.00    -0.319 A  
HETATM   19  C   UNL     1     -10.834  15.312  64.910  1.00  0.00    -0.425 A  
HETATM   20  N   UNL     1     -10.743  16.066  66.048  1.00  0.00    -0.301 NA 
HETATM   21  H   UNL     1     -10.478  17.050  66.076  1.00  0.00     0.000 HD 
ENDBRANCH  11  12
ENDBRANCH  10  11
ENDBRANCH   7  10
ENDBRANCH   6   7
ENDBRANCH   4   6
ENDBRANCH   2   4
TORSDOF 6
ENDMDL
MODEL      107
REMARK 921   NORMALIZED FREE ENERGY PREDICTED BY IDOCK:   -4.54 KCAL/MOL
REMARK 922        TOTAL FREE ENERGY PREDICTED BY IDOCK:   -6.50 KCAL/MOL
REMARK 923 INTER-LIGAND FREE ENERGY PREDICTED BY IDOCK:   -6.07 KCAL/MOL
REMARK 924 INTRA-LIGAND FREE ENERGY PREDICTED BY IDOCK:   -0.43 KCAL/MOL
REMARK 927      BINDING AFFINITY PREDICTED BY RF-SCORE:    0.00 PKD
ROOT
HETATM    1  C   UNL     1     -11.183   6.098  70.355  1.00  0.00    -0.423 C  
HETATM    2  C   UNL     1     -10.767   7.537  70.668  1.00  0.00    -0.230 C  
HETATM    3  C   UNL     1      -9.550   7.912  69.818  1.00  0.00    -0.167 C  
ENDROOT
BRANCH   2   4
HETATM    4  N   UNL     1     -11.913   8.414  70.403  1.00  0.00    -0.467 NA 
HETATM    5  H   UNL     1     -12.749   7.864  70.206  1.00  0.00     0.000 HD 
BRANCH   4   6
HETATM    6  C   UNL     1     -12.168   9.382  71.472  1.00  0.00    -0.369 C  
BRANCH   6   7
HETATM    7  C   UNL     1     -12.778  10.683  70.913  1.00  0.00    -0.404 C  
HETATM    8  H   UNL     1     -13.562  12.314  71.667  1.00  0.00     0.000 HD 
HETATM    9  O   UNL     1     -13.187  11.513  72.011  1.00  0.00    -0.509 OA 
BRANCH   7  10
HETATM   10  C   UNL     1     -11.734  11.374  70.016  1.00  0.00    -0.334 C  
BRANCH  10  11
HETATM   11  O   UNL     1     -12.378  12.248  69.088  1.00  0.00    -0.096 OA 
BRANCH  11  12
HETATM   12  C   UNL     1     -11.926  13.547  69.077  1.00  0.00    -0.335 A  
HETATM   13  C   UNL     1     -11.713  14.322  70.230  1.00  0.00    -0.343 A  
HETATM   14  C   UNL     1     -11.221  15.626  70.150  1.00  0.00    -0.346 A  
HETATM   15  C   UNL     1     -10.917  16.206  68.917  1.00  0.00    -0.324 A  
HETATM   16  C   UNL     1     -11.120  15.429  67.775  1.00  0.00    -0.320 A  
HETATM   17  C   UNL     1     -11.612  14.123  67.824  1.00  0.00    -0.379 A  
HETATM   18  C   UNL     1     -11.682  13.662  66.476  1.00  0.00    -0.414 A  
HETATM   19  C   UNL     1     -11.235  14.671  65.657  1.00  0.00    -0.342 A  
HETATM   20  N   UNL     1     -10.897  15.734  66.450  1.00  0.00    -0.273 NA 
HETATM   21  H   UNL     1     -10.532  16.623  66.108  1.00  0.00     0.000 HD 
ENDBRANCH  11  12
ENDBRANCH  10  11
ENDBRANCH   7  10
ENDBRANCH   6   7
ENDBRANCH   4   6
ENDBRANCH   2   4
TORSDOF 6
ENDMDL
MODEL      108
REMARK 921   NORMALIZED FREE ENERGY PREDICTED BY IDOCK:   -4.52 KCAL/MOL
REMARK 922        TOTAL FREE ENERGY PREDICTED BY IDOCK:   -6.48 KCAL/MOL
REMARK 923 INTER-LIGAND FREE ENERGY PREDICTED BY IDOCK:   -5.80 KCAL/MOL
REMARK 924 INTRA-LIGAND FREE ENERGY PREDICTED BY IDOCK:   -0.67 KCAL/MOL
REMARK 927      BINDING AFFINITY PREDICTED BY RF-SCORE:    0.00 PKD
ROOT
HETATM    1  C   UNL     1     -10.961  15.535  67.452  1.00  0.00    -0.306 C  
HETATM    2  C   UNL     1     -11.213  14.029  67.561  1.00  0.00    -0.309 C  
HETATM    3  C   UNL     1     -12.395  13.644  66.667  1.00  0.00    -0.381 C  
ENDROOT
BRANCH   2   4
HETATM    4  N   UNL     1      -9.984  13.329  67.178  1.00  0.00    -0.234 NA 
HETATM    5  H   UNL     1      -9.497  12.976  68.002  1.00  0.00     0.000 HD 
BRANCH   4   6
HETATM    6  C   UNL     1     -10.201  12.255  66.205  1.00  0.00    -0.229 C  
BRANCH   6   7
HETATM    7  C   UNL     1      -9.633  10.916  66.717  1.00  0.00    -0.183 C  
HETATM    8  H   UNL     1      -8.071  10.349  67.757  1.00  0.00     0.000 HD 
HETATM    9  O   UNL     1      -8.421  11.173  67.442  1.00  0.00    -0.130 OA 
BRANCH   7  10
HETATM   10  C   UNL     1     -10.699  10.225  67.586  1.00  0.00    -0.288 C  
BRANCH  10  11
HETATM   11  O   UNL     1     -10.238  10.099  68.932  1.00  0.00    -0.179 OA 
BRANCH  11  12
HETATM   12  C   UNL     1     -11.169  10.356  69.911  1.00  0.00    -0.306 A  
HETATM   13  C   UNL     1     -11.790  11.601  70.107  1.00  0.00    -0.428 A  
HETATM   14  C   UNL     1     -12.753  11.785  71.101  1.00  0.00    -0.405 A  
HETATM   15  C   UNL     1     -13.137  10.733  71.934  1.00  0.00    -0.557 A  
HETATM   16  C   UNL     1     -12.526   9.495  71.730  1.00  0.00    -0.401 A  
HETATM   17  C   UNL     1     -11.559   9.282  70.745  1.00  0.00    -0.345 A  
HETATM   18  C   UNL     1     -11.174   7.912  70.841  1.00  0.00    -0.284 A  
HETATM   19  C   UNL     1     -11.902   7.334  71.853  1.00  0.00    -0.297 A  
HETATM   20  N   UNL     1     -12.716   8.298  72.383  1.00  0.00    -0.542 NA 
HETATM   21  H   UNL     1     -13.371   8.150  73.152  1.00  0.00     0.000 HD 
ENDBRANCH  11  12
ENDBRANCH  10  11
ENDBRANCH   7  10
ENDBRANCH   6   7
ENDBRANCH   4   6
ENDBRANCH   2   4
TORSDOF 6
ENDMDL
MODEL      109
REMARK 921   NORMALIZED FREE ENERGY PREDICTED BY IDOCK:   -4.51 KCAL/MOL
REMARK 922        TOTAL FREE ENERGY PREDICTED BY IDOCK:   -6.47 KCAL/MOL
REMARK 923 INTER-LIGAND FREE ENERGY PREDICTED BY IDOCK:   -6.05 KCAL/MOL
REMARK 924 INTRA-LIGAND FREE ENERGY PREDICTED BY IDOCK:   -0.42 KCAL/MOL
REMARK 927      BINDING AFFINITY PREDICTED BY RF-SCORE:    0.00 PKD
ROOT
HETATM    1  C   UNL     1     -10.231  19.839  68.305  1.00  0.00    -0.569 C  
HETATM    2  C   UNL     1      -9.043  19.090  67.698  1.00  0.00    -0.291 C  
HETATM    3  C   UNL     1      -7.831  19.219  68.626  1.00  0.00    -0.396 C  
ENDROOT
BRANCH   2   4
HETATM    4  N   UNL     1      -9.436  17.691  67.500  1.00  0.00    -0.254 NA 
HETATM    5  H   UNL     1      -8.761  17.062  67.934  1.00  0.00     0.000 HD 
BRANCH   4   6
HETATM    6  C   UNL     1     -10.794  17.394  67.962  1.00  0.00    -0.281 C  
BRANCH   6   7
HETATM    7  C   UNL     1     -10.790  16.273  69.020  1.00  0.00    -0.315 C  
HETATM    8  H   UNL     1     -10.817  16.178  70.979  1.00  0.00     0.000 HD 
HETATM    9  O   UNL     1     -10.820  16.868  70.327  1.00  0.00    -0.133 OA 
BRANCH   7  10
HETATM   10  C   UNL     1     -11.997  15.351  68.771  1.00  0.00    -0.253 C  
BRANCH  10  11
HETATM   11  O   UNL     1     -11.579  13.986  68.724  1.00  0.00    -0.286 OA 
BRANCH  11  12
HETATM   12  C   UNL     1     -12.036  13.184  69.744  1.00  0.00    -0.270 A  
HETATM   13  C   UNL     1     -12.747  13.652  70.862  1.00  0.00    -0.382 A  
HETATM   14  C   UNL     1     -13.211  12.778  71.847  1.00  0.00    -0.511 A  
HETATM   15  C   UNL     1     -12.989  11.403  71.752  1.00  0.00    -0.519 A  
HETATM   16  C   UNL     1     -12.292  10.941  70.635  1.00  0.00    -0.376 A  
HETATM   17  C   UNL     1     -11.815  11.792  69.635  1.00  0.00    -0.407 A  
HETATM   18  C   UNL     1     -11.163  10.965  68.672  1.00  0.00    -0.326 A  
HETATM   19  C   UNL     1     -11.262   9.660  69.094  1.00  0.00    -0.019 A  
HETATM   20  N   UNL     1     -11.946   9.656  70.279  1.00  0.00    -0.463 NA 
HETATM   21  H   UNL     1     -12.168   8.821  70.821  1.00  0.00     0.000 HD 
ENDBRANCH  11  12
ENDBRANCH  10  11
ENDBRANCH   7  10
ENDBRANCH   6   7
ENDBRANCH   4   6
ENDBRANCH   2   4
TORSDOF 6
ENDMDL
MODEL      110
REMARK 921   NORMALIZED FREE ENERGY PREDICTED BY IDOCK:   -4.49 KCAL/MOL
REMARK 922        TOTAL FREE ENERGY PREDICTED BY IDOCK:   -6.44 KCAL/MOL
REMARK 923 INTER-LIGAND FREE ENERGY PREDICTED BY IDOCK:   -5.73 KCAL/MOL
REMARK 924 INTRA-LIGAND FREE ENERGY PREDICTED BY IDOCK:   -0.71 KCAL/MOL
REMARK 927      BINDING AFFINITY PREDICTED BY RF-SCORE:    0.00 PKD
ROOT
HETATM    1  C   UNL     1     -13.369  10.171  71.847  1.00  0.00    -0.505 C  
HETATM    2  C   UNL     1     -12.938   8.704  71.784  1.00  0.00    -0.359 C  
HETATM    3  C   UNL     1     -14.172   7.818  71.584  1.00  0.00    -0.572 C  
ENDROOT
BRANCH   2   4
HETATM    4  N   UNL     1     -11.973   8.555  70.691  1.00  0.00    -0.486 NA 
HETATM    5  H   UNL     1     -11.295   9.318  70.703  1.00  0.00     0.000 HD 
BRANCH   4   6
HETATM    6  C   UNL     1     -11.293   7.258  70.682  1.00  0.00    -0.284 C  
BRANCH   6   7
HETATM    7  C   UNL     1     -10.440   7.083  69.410  1.00  0.00    -0.214 C  
HETATM    8  H   UNL     1     -10.646   6.177  67.684  1.00  0.00     0.000 HD 
HETATM    9  O   UNL     1     -11.172   6.284  68.467  1.00  0.00    -0.352 OA 
BRANCH   7  10
HETATM   10  C   UNL     1     -10.092   8.475  68.851  1.00  0.00    -0.203 C  
BRANCH  10  11
HETATM   11  O   UNL     1     -11.010   8.840  67.819  1.00  0.00    -0.093 OA 
BRANCH  11  12
HETATM   12  C   UNL     1     -10.695   9.977  67.113  1.00  0.00    -0.212 A  
HETATM   13  C   UNL     1      -9.999   9.986  65.893  1.00  0.00    -0.339 A  
HETATM   14  C   UNL     1      -9.741  11.176  65.211  1.00  0.00    -0.285 A  
HETATM   15  C   UNL     1     -10.171  12.404  65.717  1.00  0.00    -0.283 A  
HETATM   16  C   UNL     1     -10.872  12.390  66.924  1.00  0.00    -0.251 A  
HETATM   17  C   UNL     1     -11.144  11.215  67.629  1.00  0.00    -0.348 A  
HETATM   18  C   UNL     1     -11.867  11.598  68.797  1.00  0.00    -0.387 A  
HETATM   19  C   UNL     1     -12.022  12.964  68.774  1.00  0.00    -0.253 A  
HETATM   20  N   UNL     1     -11.418  13.433  67.639  1.00  0.00    -0.301 NA 
HETATM   21  H   UNL     1     -11.379  14.414  67.363  1.00  0.00     0.000 HD 
ENDBRANCH  11  12
ENDBRANCH  10  11
ENDBRANCH   7  10
ENDBRANCH   6   7
ENDBRANCH   4   6
ENDBRANCH   2   4
TORSDOF 6
ENDMDL
MODEL      111
REMARK 921   NORMALIZED FREE ENERGY PREDICTED BY IDOCK:   -4.49 KCAL/MOL
REMARK 922        TOTAL FREE ENERGY PREDICTED BY IDOCK:   -6.44 KCAL/MOL
REMARK 923 INTER-LIGAND FREE ENERGY PREDICTED BY IDOCK:   -6.09 KCAL/MOL
REMARK 924 INTRA-LIGAND FREE ENERGY PREDICTED BY IDOCK:   -0.34 KCAL/MOL
REMARK 927      BINDING AFFINITY PREDICTED BY RF-SCORE:    0.00 PKD
ROOT
HETATM    1  C   UNL     1      -9.376  17.271  68.018  1.00  0.00    -0.264 C  
HETATM    2  C   UNL     1     -10.613  16.874  67.209  1.00  0.00    -0.270 C  
HETATM    3  C   UNL     1     -10.271  16.886  65.716  1.00  0.00    -0.287 C  
ENDROOT
BRANCH   2   4
HETATM    4  N   UNL     1     -11.051  15.550  67.662  1.00  0.00    -0.319 NA 
HETATM    5  H   UNL     1     -12.014  15.584  67.996  1.00  0.00     0.000 HD 
BRANCH   4   6
HETATM    6  C   UNL     1     -10.889  14.503  66.650  1.00  0.00    -0.311 C  
BRANCH   6   7
HETATM    7  C   UNL     1     -12.030  13.468  66.731  1.00  0.00    -0.404 C  
HETATM    8  H   UNL     1     -13.481  12.871  65.556  1.00  0.00     0.000 HD 
HETATM    9  O   UNL     1     -12.779  13.508  65.506  1.00  0.00    -0.491 OA 
BRANCH   7  10
HETATM   10  C   UNL     1     -11.422  12.079  66.999  1.00  0.00    -0.338 C  
BRANCH  10  11
HETATM   11  O   UNL     1     -12.077  11.455  68.105  1.00  0.00    -0.623 OA 
BRANCH  11  12
HETATM   12  C   UNL     1     -11.266  10.738  68.953  1.00  0.00    -0.268 A  
HETATM   13  C   UNL     1      -9.895  10.517  68.742  1.00  0.00    -0.191 A  
HETATM   14  C   UNL     1      -9.122   9.806  69.662  1.00  0.00    -0.235 A  
HETATM   15  C   UNL     1      -9.686   9.292  70.830  1.00  0.00    -0.346 A  
HETATM   16  C   UNL     1     -11.046   9.522  71.042  1.00  0.00    -0.363 A  
HETATM   17  C   UNL     1     -11.844  10.228  70.139  1.00  0.00    -0.343 A  
HETATM   18  C   UNL     1     -13.159  10.256  70.692  1.00  0.00    -0.292 A  
HETATM   19  C   UNL     1     -13.131   9.588  71.893  1.00  0.00    -0.428 A  
HETATM   20  N   UNL     1     -11.851   9.149  72.096  1.00  0.00    -0.319 NA 
HETATM   21  H   UNL     1     -11.538   8.621  72.911  1.00  0.00     0.000 HD 
ENDBRANCH  11  12
ENDBRANCH  10  11
ENDBRANCH   7  10
ENDBRANCH   6   7
ENDBRANCH   4   6
ENDBRANCH   2   4
TORSDOF 6
ENDMDL
MODEL      112
REMARK 921   NORMALIZED FREE ENERGY PREDICTED BY IDOCK:   -4.48 KCAL/MOL
REMARK 922        TOTAL FREE ENERGY PREDICTED BY IDOCK:   -6.43 KCAL/MOL
REMARK 923 INTER-LIGAND FREE ENERGY PREDICTED BY IDOCK:   -5.84 KCAL/MOL
REMARK 924 INTRA-LIGAND FREE ENERGY PREDICTED BY IDOCK:   -0.59 KCAL/MOL
REMARK 927      BINDING AFFINITY PREDICTED BY RF-SCORE:    0.00 PKD
ROOT
HETATM    1  C   UNL     1     -11.931  15.091  72.187  1.00  0.00    -0.456 C  
HETATM    2  C   UNL     1     -12.835  14.748  71.001  1.00  0.00    -0.352 C  
HETATM    3  C   UNL     1     -14.267  15.201  71.304  1.00  0.00    -0.527 C  
ENDROOT
BRANCH   2   4
HETATM    4  N   UNL     1     -12.293  15.404  69.806  1.00  0.00    -0.551 NA 
HETATM    5  H   UNL     1     -13.019  15.939  69.329  1.00  0.00     0.000 HD 
BRANCH   4   6
HETATM    6  C   UNL     1     -11.124  16.242  70.079  1.00  0.00    -0.348 C  
BRANCH   6   7
HETATM    7  C   UNL     1     -10.571  16.867  68.782  1.00  0.00    -0.355 C  
HETATM    8  H   UNL     1     -10.035  18.659  68.194  1.00  0.00     0.000 HD 
HETATM    9  O   UNL     1     -10.376  18.274  68.992  1.00  0.00    -0.320 OA 
BRANCH   7  10
HETATM   10  C   UNL     1      -9.264  16.147  68.403  1.00  0.00    -0.203 C  
BRANCH  10  11
HETATM   11  O   UNL     1      -9.452  14.731  68.427  1.00  0.00    -0.199 OA 
BRANCH  11  12
HETATM   12  C   UNL     1      -9.910  14.168  67.259  1.00  0.00    -0.238 A  
HETATM   13  C   UNL     1      -9.929  14.824  66.016  1.00  0.00    -0.336 A  
HETATM   14  C   UNL     1     -10.378  14.182  64.860  1.00  0.00    -0.435 A  
HETATM   15  C   UNL     1     -10.821  12.859  64.899  1.00  0.00    -0.331 A  
HETATM   16  C   UNL     1     -10.792  12.208  66.132  1.00  0.00    -0.282 A  
HETATM   17  C   UNL     1     -10.349  12.824  67.304  1.00  0.00    -0.235 A  
HETATM   18  C   UNL     1     -10.466  11.855  68.345  1.00  0.00    -0.231 A  
HETATM   19  C   UNL     1     -10.959  10.696  67.794  1.00  0.00    -0.306 A  
HETATM   20  N   UNL     1     -11.151  10.918  66.458  1.00  0.00    -0.134 NA 
HETATM   21  H   UNL     1     -11.510  10.227  65.798  1.00  0.00     0.000 HD 
ENDBRANCH  11  12
ENDBRANCH  10  11
ENDBRANCH   7  10
ENDBRANCH   6   7
ENDBRANCH   4   6
ENDBRANCH   2   4
TORSDOF 6
ENDMDL
MODEL      113
REMARK 921   NORMALIZED FREE ENERGY PREDICTED BY IDOCK:   -4.46 KCAL/MOL
REMARK 922        TOTAL FREE ENERGY PREDICTED BY IDOCK:   -6.39 KCAL/MOL
REMARK 923 INTER-LIGAND FREE ENERGY PREDICTED BY IDOCK:   -5.68 KCAL/MOL
REMARK 924 INTRA-LIGAND FREE ENERGY PREDICTED BY IDOCK:   -0.72 KCAL/MOL
REMARK 927      BINDING AFFINITY PREDICTED BY RF-SCORE:    0.00 PKD
ROOT
HETATM    1  C   UNL     1     -11.139  15.158  64.685  1.00  0.00    -0.338 C  
HETATM    2  C   UNL     1     -12.360  14.239  64.774  1.00  0.00    -0.426 C  
HETATM    3  C   UNL     1     -12.261  13.154  63.698  1.00  0.00    -0.553 C  
ENDROOT
BRANCH   2   4
HETATM    4  N   UNL     1     -12.409  13.671  66.125  1.00  0.00    -0.436 NA 
HETATM    5  H   UNL     1     -12.003  12.735  66.137  1.00  0.00     0.000 HD 
BRANCH   4   6
HETATM    6  C   UNL     1     -11.783  14.521  67.140  1.00  0.00    -0.399 C  
BRANCH   6   7
HETATM    7  C   UNL     1     -11.168  13.675  68.274  1.00  0.00    -0.273 C  
HETATM    8  H   UNL     1     -11.848  12.671  69.815  1.00  0.00     0.000 HD 
HETATM    9  O   UNL     1     -12.226  13.191  69.117  1.00  0.00    -0.247 OA 
BRANCH   7  10
HETATM   10  C   UNL     1     -10.348  12.531  67.651  1.00  0.00    -0.218 C  
BRANCH  10  11
HETATM   11  O   UNL     1     -11.198  11.430  67.325  1.00  0.00    -0.285 OA 
BRANCH  11  12
HETATM   12  C   UNL     1     -10.568  10.221  67.146  1.00  0.00    -0.260 A  
HETATM   13  C   UNL     1     -10.492   9.213  68.122  1.00  0.00    -0.260 A  
HETATM   14  C   UNL     1      -9.864   7.994  67.862  1.00  0.00    -0.204 A  
HETATM   15  C   UNL     1      -9.292   7.730  66.616  1.00  0.00    -0.238 A  
HETATM   16  C   UNL     1      -9.378   8.729  65.646  1.00  0.00    -0.150 A  
HETATM   17  C   UNL     1      -9.999   9.959  65.878  1.00  0.00    -0.347 A  
HETATM   18  C   UNL     1      -9.888  10.707  64.668  1.00  0.00    -0.382 A  
HETATM   19  C   UNL     1      -9.225   9.932  63.746  1.00  0.00    -0.243 A  
HETATM   20  N   UNL     1      -8.922   8.739  64.346  1.00  0.00    -0.416 NA 
HETATM   21  H   UNL     1      -8.429   7.969  63.894  1.00  0.00     0.000 HD 
ENDBRANCH  11  12
ENDBRANCH  10  11
ENDBRANCH   7  10
ENDBRANCH   6   7
ENDBRANCH   4   6
ENDBRANCH   2   4
TORSDOF 6
ENDMDL
MODEL      114
REMARK 921   NORMALIZED FREE ENERGY PREDICTED BY IDOCK:   -4.44 KCAL/MOL
REMARK 922        TOTAL FREE ENERGY PREDICTED BY IDOCK:   -6.37 KCAL/MOL
REMARK 923 INTER-LIGAND FREE ENERGY PREDICTED BY IDOCK:   -5.61 KCAL/MOL
REMARK 924 INTRA-LIGAND FREE ENERGY PREDICTED BY IDOCK:   -0.77 KCAL/MOL
REMARK 927      BINDING AFFINITY PREDICTED BY RF-SCORE:    0.00 PKD
ROOT
HETATM    1  C   UNL     1      -9.786   9.547  65.849  1.00  0.00    -0.360 C  
HETATM    2  C   UNL     1      -9.674  10.588  64.733  1.00  0.00    -0.305 C  
HETATM    3  C   UNL     1      -9.028   9.947  63.501  1.00  0.00    -0.277 C  
ENDROOT
BRANCH   2   4
HETATM    4  N   UNL     1     -11.018  11.099  64.445  1.00  0.00    -0.279 NA 
HETATM    5  H   UNL     1     -11.662  10.867  65.202  1.00  0.00     0.000 HD 
BRANCH   4   6
HETATM    6  C   UNL     1     -11.050  12.535  64.159  1.00  0.00    -0.376 C  
BRANCH   6   7
HETATM    7  C   UNL     1     -12.489  13.085  64.220  1.00  0.00    -0.315 C  
HETATM    8  H   UNL     1     -14.295  12.321  64.208  1.00  0.00     0.000 HD 
HETATM    9  O   UNL     1     -13.409  11.983  64.170  1.00  0.00    -0.725 OA 
BRANCH   7  10
HETATM   10  C   UNL     1     -12.647  13.919  65.504  1.00  0.00    -0.526 C  
BRANCH  10  11
HETATM   11  O   UNL     1     -11.965  13.293  66.592  1.00  0.00    -0.381 OA 
BRANCH  11  12
HETATM   12  C   UNL     1     -11.397  14.142  67.511  1.00  0.00    -0.322 A  
HETATM   13  C   UNL     1     -12.123  15.017  68.338  1.00  0.00    -0.139 A  
HETATM   14  C   UNL     1     -11.484  15.831  69.275  1.00  0.00    -0.368 A  
HETATM   15  C   UNL     1     -10.097  15.801  69.427  1.00  0.00    -0.268 A  
HETATM   16  C   UNL     1      -9.380  14.924  68.612  1.00  0.00    -0.194 A  
HETATM   17  C   UNL     1      -9.992  14.099  67.665  1.00  0.00    -0.233 A  
HETATM   18  C   UNL     1      -8.949  13.356  67.036  1.00  0.00    -0.228 A  
HETATM   19  C   UNL     1      -7.755  13.733  67.604  1.00  0.00    -0.179 A  
HETATM   20  N   UNL     1      -8.025  14.679  68.555  1.00  0.00    -0.130 NA 
HETATM   21  H   UNL     1      -7.325  15.136  69.138  1.00  0.00     0.000 HD 
ENDBRANCH  11  12
ENDBRANCH  10  11
ENDBRANCH   7  10
ENDBRANCH   6   7
ENDBRANCH   4   6
ENDBRANCH   2   4
TORSDOF 6
ENDMDL
MODEL      115
REMARK 921   NORMALIZED FREE ENERGY PREDICTED BY IDOCK:   -4.44 KCAL/MOL
REMARK 922        TOTAL FREE ENERGY PREDICTED BY IDOCK:   -6.37 KCAL/MOL
REMARK 923 INTER-LIGAND FREE ENERGY PREDICTED BY IDOCK:   -5.90 KCAL/MOL
REMARK 924 INTRA-LIGAND FREE ENERGY PREDICTED BY IDOCK:   -0.47 KCAL/MOL
REMARK 927      BINDING AFFINITY PREDICTED BY RF-SCORE:    0.00 PKD
ROOT
HETATM    1  C   UNL     1      -9.537  19.056  68.438  1.00  0.00    -0.429 C  
HETATM    2  C   UNL     1     -10.641  18.747  67.424  1.00  0.00    -0.443 C  
HETATM    3  C   UNL     1     -10.405  19.562  66.149  1.00  0.00    -0.614 C  
ENDROOT
BRANCH   2   4
HETATM    4  N   UNL     1     -10.632  17.304  67.163  1.00  0.00    -0.298 NA 
HETATM    5  H   UNL     1     -11.552  16.900  67.341  1.00  0.00     0.000 HD 
BRANCH   4   6
HETATM    6  C   UNL     1     -10.164  16.955  65.820  1.00  0.00    -0.268 C  
BRANCH   6   7
HETATM    7  C   UNL     1     -11.158  16.015  65.109  1.00  0.00    -0.283 C  
HETATM    8  H   UNL     1     -12.020  15.938  63.349  1.00  0.00     0.000 HD 
HETATM    9  O   UNL     1     -11.408  16.517  63.787  1.00  0.00    -0.966 OA 
BRANCH   7  10
HETATM   10  C   UNL     1     -10.570  14.592  65.092  1.00  0.00    -0.421 C  
BRANCH  10  11
HETATM   11  O   UNL     1     -10.428  14.097  66.425  1.00  0.00    -0.276 OA 
BRANCH  11  12
HETATM   12  C   UNL     1      -9.327  13.306  66.654  1.00  0.00    -0.242 A  
HETATM   13  C   UNL     1      -8.173  13.729  67.335  1.00  0.00    -0.194 A  
HETATM   14  C   UNL     1      -7.103  12.862  67.562  1.00  0.00    -0.153 A  
HETATM   15  C   UNL     1      -7.144  11.538  67.125  1.00  0.00    -0.140 A  
HETATM   16  C   UNL     1      -8.296  11.117  66.458  1.00  0.00    -0.166 A  
HETATM   17  C   UNL     1      -9.381  11.962  66.215  1.00  0.00    -0.234 A  
HETATM   18  C   UNL     1     -10.356  11.186  65.520  1.00  0.00    -0.326 A  
HETATM   19  C   UNL     1      -9.856   9.914  65.365  1.00  0.00    -0.313 A  
HETATM   20  N   UNL     1      -8.613   9.883  65.935  1.00  0.00    -0.134 NA 
HETATM   21  H   UNL     1      -8.007   9.062  65.969  1.00  0.00     0.000 HD 
ENDBRANCH  11  12
ENDBRANCH  10  11
ENDBRANCH   7  10
ENDBRANCH   6   7
ENDBRANCH   4   6
ENDBRANCH   2   4
TORSDOF 6
ENDMDL
MODEL      116
REMARK 921   NORMALIZED FREE ENERGY PREDICTED BY IDOCK:   -4.44 KCAL/MOL
REMARK 922        TOTAL FREE ENERGY PREDICTED BY IDOCK:   -6.37 KCAL/MOL
REMARK 923 INTER-LIGAND FREE ENERGY PREDICTED BY IDOCK:   -5.67 KCAL/MOL
REMARK 924 INTRA-LIGAND FREE ENERGY PREDICTED BY IDOCK:   -0.71 KCAL/MOL
REMARK 927      BINDING AFFINITY PREDICTED BY RF-SCORE:    0.00 PKD
ROOT
HETATM    1  C   UNL     1     -11.746   6.481  70.169  1.00  0.00    -0.419 C  
HETATM    2  C   UNL     1     -10.551   6.225  69.247  1.00  0.00    -0.273 C  
HETATM    3  C   UNL     1     -11.025   6.206  67.791  1.00  0.00    -0.400 C  
ENDROOT
BRANCH   2   4
HETATM    4  N   UNL     1      -9.555   7.273  69.487  1.00  0.00    -0.155 NA 
HETATM    5  H   UNL     1      -9.696   8.057  68.849  1.00  0.00     0.000 HD 
BRANCH   4   6
HETATM    6  C   UNL     1      -9.514   7.736  70.876  1.00  0.00    -0.160 C  
BRANCH   6   7
HETATM    7  C   UNL     1      -9.168   9.236  70.954  1.00  0.00    -0.233 C  
HETATM    8  H   UNL     1      -7.546  10.299  71.246  1.00  0.00     0.000 HD 
HETATM    9  O   UNL     1      -7.759   9.375  71.197  1.00  0.00    -0.318 OA 
BRANCH   7  10
HETATM   10  C   UNL     1      -9.604   9.915  69.644  1.00  0.00    -0.227 C  
BRANCH  10  11
HETATM   11  O   UNL     1     -11.020   9.821  69.483  1.00  0.00    -0.232 OA 
BRANCH  11  12
HETATM   12  C   UNL     1     -11.768  10.698  70.233  1.00  0.00    -0.344 A  
HETATM   13  C   UNL     1     -12.436  10.357  71.421  1.00  0.00    -0.521 A  
HETATM   14  C   UNL     1     -13.152  11.307  72.152  1.00  0.00    -0.272 A  
HETATM   15  C   UNL     1     -13.224  12.635  71.730  1.00  0.00    -0.457 A  
HETATM   16  C   UNL     1     -12.551  12.973  70.555  1.00  0.00    -0.147 A  
HETATM   17  C   UNL     1     -11.828  12.045  69.803  1.00  0.00    -0.401 A  
HETATM   18  C   UNL     1     -11.288  12.754  68.689  1.00  0.00    -0.333 A  
HETATM   19  C   UNL     1     -11.679  14.068  68.790  1.00  0.00    -0.353 A  
HETATM   20  N   UNL     1     -12.440  14.191  69.920  1.00  0.00    -0.423 NA 
HETATM   21  H   UNL     1     -12.864  15.059  70.246  1.00  0.00     0.000 HD 
ENDBRANCH  11  12
ENDBRANCH  10  11
ENDBRANCH   7  10
ENDBRANCH   6   7
ENDBRANCH   4   6
ENDBRANCH   2   4
TORSDOF 6
ENDMDL
MODEL      117
REMARK 921   NORMALIZED FREE ENERGY PREDICTED BY IDOCK:   -4.44 KCAL/MOL
REMARK 922        TOTAL FREE ENERGY PREDICTED BY IDOCK:   -6.37 KCAL/MOL
REMARK 923 INTER-LIGAND FREE ENERGY PREDICTED BY IDOCK:   -5.79 KCAL/MOL
REMARK 924 INTRA-LIGAND FREE ENERGY PREDICTED BY IDOCK:   -0.58 KCAL/MOL
REMARK 927      BINDING AFFINITY PREDICTED BY RF-SCORE:    0.00 PKD
ROOT
HETATM    1  C   UNL     1     -10.423  19.856  66.271  1.00  0.00    -0.590 C  
HETATM    2  C   UNL     1      -9.045  19.677  66.912  1.00  0.00    -0.342 C  
HETATM    3  C   UNL     1      -9.202  19.545  68.430  1.00  0.00    -0.412 C  
ENDROOT
BRANCH   2   4
HETATM    4  N   UNL     1      -8.414  18.493  66.320  1.00  0.00    -0.429 NA 
HETATM    5  H   UNL     1      -7.726  18.765  65.617  1.00  0.00     0.000 HD 
BRANCH   4   6
HETATM    6  C   UNL     1      -7.816  17.593  67.309  1.00  0.00    -0.205 C  
BRANCH   6   7
HETATM    7  C   UNL     1      -7.261  16.319  66.640  1.00  0.00    -0.125 C  
HETATM    8  H   UNL     1      -5.521  15.421  66.537  1.00  0.00     0.000 HD 
HETATM    9  O   UNL     1      -5.863  16.205  66.949  1.00  0.00    -0.336 OA 
BRANCH   7  10
HETATM   10  C   UNL     1      -8.070  15.107  67.134  1.00  0.00    -0.214 C  
BRANCH  10  11
HETATM   11  O   UNL     1      -9.432  15.474  67.357  1.00  0.00    -0.209 OA 
BRANCH  11  12
HETATM   12  C   UNL     1     -10.243  14.487  67.866  1.00  0.00    -0.231 A  
HETATM   13  C   UNL     1     -10.567  13.299  67.190  1.00  0.00    -0.259 A  
HETATM   14  C   UNL     1     -11.371  12.322  67.780  1.00  0.00    -0.362 A  
HETATM   15  C   UNL     1     -11.879  12.490  69.069  1.00  0.00    -0.344 A  
HETATM   16  C   UNL     1     -11.546  13.667  69.742  1.00  0.00    -0.254 A  
HETATM   17  C   UNL     1     -10.746  14.662  69.177  1.00  0.00    -0.263 A  
HETATM   18  C   UNL     1     -10.630  15.696  70.152  1.00  0.00    -0.348 A  
HETATM   19  C   UNL     1     -11.341  15.314  71.265  1.00  0.00    -0.365 A  
HETATM   20  N   UNL     1     -11.890  14.087  71.008  1.00  0.00    -0.499 NA 
HETATM   21  H   UNL     1     -12.470  13.559  71.661  1.00  0.00     0.000 HD 
ENDBRANCH  11  12
ENDBRANCH  10  11
ENDBRANCH   7  10
ENDBRANCH   6   7
ENDBRANCH   4   6
ENDBRANCH   2   4
TORSDOF 6
ENDMDL
MODEL      118
REMARK 921   NORMALIZED FREE ENERGY PREDICTED BY IDOCK:   -4.43 KCAL/MOL
REMARK 922        TOTAL FREE ENERGY PREDICTED BY IDOCK:   -6.37 KCAL/MOL
REMARK 923 INTER-LIGAND FREE ENERGY PREDICTED BY IDOCK:   -5.80 KCAL/MOL
REMARK 924 INTRA-LIGAND FREE ENERGY PREDICTED BY IDOCK:   -0.57 KCAL/MOL
REMARK 927      BINDING AFFINITY PREDICTED BY RF-SCORE:    0.00 PKD
ROOT
HETATM    1  C   UNL     1      -8.219   6.951  67.119  1.00  0.00    -0.118 C  
HETATM    2  C   UNL     1      -9.667   7.181  66.678  1.00  0.00    -0.170 C  
HETATM    3  C   UNL     1     -10.559   7.325  67.915  1.00  0.00    -0.266 C  
ENDROOT
BRANCH   2   4
HETATM    4  N   UNL     1      -9.705   8.376  65.831  1.00  0.00    -0.465 NA 
HETATM    5  H   UNL     1     -10.246   8.201  64.984  1.00  0.00     0.000 HD 
BRANCH   4   6
HETATM    6  C   UNL     1     -10.197   9.569  66.524  1.00  0.00    -0.237 C  
BRANCH   6   7
HETATM    7  C   UNL     1      -9.564  10.851  65.947  1.00  0.00    -0.216 C  
HETATM    8  H   UNL     1      -8.155  11.271  64.650  1.00  0.00     0.000 HD 
HETATM    9  O   UNL     1      -8.545  10.481  65.005  1.00  0.00    -0.176 OA 
BRANCH   7  10
HETATM   10  C   UNL     1     -10.671  11.706  65.305  1.00  0.00    -0.291 C  
BRANCH  10  11
HETATM   11  O   UNL     1     -11.794  11.807  66.183  1.00  0.00    -0.477 OA 
BRANCH  11  12
HETATM   12  C   UNL     1     -11.761  12.849  67.079  1.00  0.00    -0.385 A  
HETATM   13  C   UNL     1     -11.664  14.204  66.717  1.00  0.00    -0.432 A  
HETATM   14  C   UNL     1     -11.668  15.216  67.679  1.00  0.00    -0.233 A  
HETATM   15  C   UNL     1     -11.774  14.917  69.038  1.00  0.00    -0.347 A  
HETATM   16  C   UNL     1     -11.881  13.571  69.393  1.00  0.00    -0.335 A  
HETATM   17  C   UNL     1     -11.878  12.538  68.453  1.00  0.00    -0.353 A  
HETATM   18  C   UNL     1     -12.002  11.320  69.186  1.00  0.00    -0.405 A  
HETATM   19  C   UNL     1     -12.083  11.633  70.523  1.00  0.00    -0.366 A  
HETATM   20  N   UNL     1     -12.010  12.994  70.637  1.00  0.00    -0.528 NA 
HETATM   21  H   UNL     1     -12.046  13.508  71.518  1.00  0.00     0.000 HD 
ENDBRANCH  11  12
ENDBRANCH  10  11
ENDBRANCH   7  10
ENDBRANCH   6   7
ENDBRANCH   4   6
ENDBRANCH   2   4
TORSDOF 6
ENDMDL
MODEL      119
REMARK 921   NORMALIZED FREE ENERGY PREDICTED BY IDOCK:   -4.42 KCAL/MOL
REMARK 922        TOTAL FREE ENERGY PREDICTED BY IDOCK:   -6.34 KCAL/MOL
REMARK 923 INTER-LIGAND FREE ENERGY PREDICTED BY IDOCK:   -6.05 KCAL/MOL
REMARK 924 INTRA-LIGAND FREE ENERGY PREDICTED BY IDOCK:   -0.29 KCAL/MOL
REMARK 927      BINDING AFFINITY PREDICTED BY RF-SCORE:    0.00 PKD
ROOT
HETATM    1  C   UNL     1     -14.386  14.041  72.063  1.00  0.00    -0.548 C  
HETATM    2  C   UNL     1     -13.657  15.386  72.021  1.00  0.00    -0.487 C  
HETATM    3  C   UNL     1     -12.811  15.547  73.287  1.00  0.00    -0.633 C  
ENDROOT
BRANCH   2   4
HETATM    4  N   UNL     1     -12.839  15.426  70.805  1.00  0.00    -0.492 NA 
HETATM    5  H   UNL     1     -13.368  15.819  70.027  1.00  0.00     0.000 HD 
BRANCH   4   6
HETATM    6  C   UNL     1     -11.568  16.134  70.978  1.00  0.00    -0.393 C  
BRANCH   6   7
HETATM    7  C   UNL     1     -10.498  15.607  70.001  1.00  0.00    -0.323 C  
HETATM    8  H   UNL     1     -10.204  13.957  68.983  1.00  0.00     0.000 HD 
HETATM    9  O   UNL     1     -10.863  14.282  69.584  1.00  0.00    -0.184 OA 
BRANCH   7  10
HETATM   10  C   UNL     1     -10.386  16.582  68.814  1.00  0.00    -0.286 C  
BRANCH  10  11
HETATM   11  O   UNL     1      -9.449  16.092  67.855  1.00  0.00    -0.208 OA 
BRANCH  11  12
HETATM   12  C   UNL     1      -9.989  15.474  66.751  1.00  0.00    -0.249 A  
HETATM   13  C   UNL     1     -10.883  16.087  65.857  1.00  0.00    -0.210 A  
HETATM   14  C   UNL     1     -11.369  15.412  64.736  1.00  0.00    -0.381 A  
HETATM   15  C   UNL     1     -10.978  14.101  64.461  1.00  0.00    -0.340 A  
HETATM   16  C   UNL     1     -10.082  13.498  65.345  1.00  0.00    -0.262 A  
HETATM   17  C   UNL     1      -9.580  14.149  66.474  1.00  0.00    -0.310 A  
HETATM   18  C   UNL     1      -8.706  13.226  67.122  1.00  0.00    -0.215 A  
HETATM   19  C   UNL     1      -8.690  12.064  66.386  1.00  0.00    -0.088 A  
HETATM   20  N   UNL     1      -9.523  12.239  65.315  1.00  0.00    -0.442 NA 
HETATM   21  H   UNL     1      -9.704  11.537  64.597  1.00  0.00     0.000 HD 
ENDBRANCH  11  12
ENDBRANCH  10  11
ENDBRANCH   7  10
ENDBRANCH   6   7
ENDBRANCH   4   6
ENDBRANCH   2   4
TORSDOF 6
ENDMDL
MODEL      120
REMARK 921   NORMALIZED FREE ENERGY PREDICTED BY IDOCK:   -4.42 KCAL/MOL
REMARK 922        TOTAL FREE ENERGY PREDICTED BY IDOCK:   -6.34 KCAL/MOL
REMARK 923 INTER-LIGAND FREE ENERGY PREDICTED BY IDOCK:   -5.75 KCAL/MOL
REMARK 924 INTRA-LIGAND FREE ENERGY PREDICTED BY IDOCK:   -0.59 KCAL/MOL
REMARK 927      BINDING AFFINITY PREDICTED BY RF-SCORE:    0.00 PKD
ROOT
HETATM    1  C   UNL     1      -7.321  10.269  65.476  1.00  0.00    -0.149 C  
HETATM    2  C   UNL     1      -8.740   9.762  65.742  1.00  0.00    -0.142 C  
HETATM    3  C   UNL     1      -8.673   8.378  66.395  1.00  0.00    -0.159 C  
ENDROOT
BRANCH   2   4
HETATM    4  N   UNL     1      -9.425  10.739  66.593  1.00  0.00    -0.172 NA 
HETATM    5  H   UNL     1      -8.869  11.590  66.685  1.00  0.00     0.000 HD 
BRANCH   4   6
HETATM    6  C   UNL     1     -10.784  11.053  66.147  1.00  0.00    -0.194 C  
BRANCH   6   7
HETATM    7  C   UNL     1     -11.085  12.558  66.292  1.00  0.00    -0.295 C  
HETATM    8  H   UNL     1     -12.085  13.904  65.274  1.00  0.00     0.000 HD 
HETATM    9  O   UNL     1     -11.900  12.977  65.186  1.00  0.00    -0.331 OA 
BRANCH   7  10
HETATM   10  C   UNL     1     -11.773  12.799  67.648  1.00  0.00    -0.367 C  
BRANCH  10  11
HETATM   11  O   UNL     1     -10.938  12.348  68.715  1.00  0.00    -0.232 OA 
BRANCH  11  12
HETATM   12  C   UNL     1     -11.555  11.578  69.673  1.00  0.00    -0.333 A  
HETATM   13  C   UNL     1     -11.476  10.176  69.736  1.00  0.00    -0.288 A  
HETATM   14  C   UNL     1     -12.101   9.457  70.756  1.00  0.00    -0.270 A  
HETATM   15  C   UNL     1     -12.826  10.108  71.755  1.00  0.00    -0.554 A  
HETATM   16  C   UNL     1     -12.895  11.500  71.695  1.00  0.00    -0.370 A  
HETATM   17  C   UNL     1     -12.280  12.246  70.687  1.00  0.00    -0.378 A  
HETATM   18  C   UNL     1     -12.569  13.616  70.958  1.00  0.00    -0.441 A  
HETATM   19  C   UNL     1     -13.329  13.673  72.103  1.00  0.00    -0.494 A  
HETATM   20  N   UNL     1     -13.520  12.391  72.541  1.00  0.00    -0.583 NA 
HETATM   21  H   UNL     1     -14.048  12.132  73.374  1.00  0.00     0.000 HD 
ENDBRANCH  11  12
ENDBRANCH  10  11
ENDBRANCH   7  10
ENDBRANCH   6   7
ENDBRANCH   4   6
ENDBRANCH   2   4
TORSDOF 6
ENDMDL
MODEL      121
REMARK 921   NORMALIZED FREE ENERGY PREDICTED BY IDOCK:   -4.41 KCAL/MOL
REMARK 922        TOTAL FREE ENERGY PREDICTED BY IDOCK:   -6.33 KCAL/MOL
REMARK 923 INTER-LIGAND FREE ENERGY PREDICTED BY IDOCK:   -5.42 KCAL/MOL
REMARK 924 INTRA-LIGAND FREE ENERGY PREDICTED BY IDOCK:   -0.91 KCAL/MOL
REMARK 927      BINDING AFFINITY PREDICTED BY RF-SCORE:    0.00 PKD
ROOT
HETATM    1  C   UNL     1     -11.605   6.822  70.147  1.00  0.00    -0.397 C  
HETATM    2  C   UNL     1     -10.546   6.396  69.128  1.00  0.00    -0.255 C  
HETATM    3  C   UNL     1     -11.147   6.443  67.720  1.00  0.00    -0.376 C  
ENDROOT
BRANCH   2   4
HETATM    4  N   UNL     1      -9.393   7.291  69.263  1.00  0.00    -0.154 NA 
HETATM    5  H   UNL     1      -9.460   8.068  68.605  1.00  0.00     0.000 HD 
BRANCH   4   6
HETATM    6  C   UNL     1      -9.192   7.784  70.627  1.00  0.00    -0.161 C  
BRANCH   6   7
HETATM    7  C   UNL     1      -8.768   9.267  70.628  1.00  0.00    -0.234 C  
HETATM    8  H   UNL     1      -7.164  10.278  71.126  1.00  0.00     0.000 HD 
HETATM    9  O   UNL     1      -7.425   9.365  71.126  1.00  0.00    -0.294 OA 
BRANCH   7  10
HETATM   10  C   UNL     1      -8.904   9.822  69.199  1.00  0.00    -0.160 C  
BRANCH  10  11
HETATM   11  O   UNL     1     -10.281   9.986  68.857  1.00  0.00    -0.175 OA 
BRANCH  11  12
HETATM   12  C   UNL     1     -10.842  11.194  69.197  1.00  0.00    -0.238 A  
HETATM   13  C   UNL     1     -10.568  12.408  68.544  1.00  0.00    -0.251 A  
HETATM   14  C   UNL     1     -11.199  13.595  68.919  1.00  0.00    -0.309 A  
HETATM   15  C   UNL     1     -12.131  13.618  69.957  1.00  0.00    -0.417 A  
HETATM   16  C   UNL     1     -12.409  12.409  70.597  1.00  0.00    -0.279 A  
HETATM   17  C   UNL     1     -11.793  11.206  70.244  1.00  0.00    -0.455 A  
HETATM   18  C   UNL     1     -12.326  10.205  71.109  1.00  0.00    -0.488 A  
HETATM   19  C   UNL     1     -13.237  10.806  71.946  1.00  0.00    -0.419 A  
HETATM   20  N   UNL     1     -13.281  12.136  71.628  1.00  0.00    -0.356 NA 
HETATM   21  H   UNL     1     -13.875  12.826  72.088  1.00  0.00     0.000 HD 
ENDBRANCH  11  12
ENDBRANCH  10  11
ENDBRANCH   7  10
ENDBRANCH   6   7
ENDBRANCH   4   6
ENDBRANCH   2   4
TORSDOF 6
ENDMDL
MODEL      122
REMARK 921   NORMALIZED FREE ENERGY PREDICTED BY IDOCK:   -4.40 KCAL/MOL
REMARK 922        TOTAL FREE ENERGY PREDICTED BY IDOCK:   -6.31 KCAL/MOL
REMARK 923 INTER-LIGAND FREE ENERGY PREDICTED BY IDOCK:   -5.88 KCAL/MOL
REMARK 924 INTRA-LIGAND FREE ENERGY PREDICTED BY IDOCK:   -0.43 KCAL/MOL
REMARK 927      BINDING AFFINITY PREDICTED BY RF-SCORE:    0.00 PKD
ROOT
HETATM    1  C   UNL     1     -12.553   8.604  72.263  1.00  0.00    -0.457 C  
HETATM    2  C   UNL     1     -11.332   8.292  71.394  1.00  0.00    -0.262 C  
HETATM    3  C   UNL     1     -11.600   7.025  70.575  1.00  0.00    -0.364 C  
ENDROOT
BRANCH   2   4
HETATM    4  N   UNL     1     -11.068   9.453  70.539  1.00  0.00    -0.255 NA 
HETATM    5  H   UNL     1     -11.491  10.294  70.932  1.00  0.00     0.000 HD 
BRANCH   4   6
HETATM    6  C   UNL     1      -9.645   9.667  70.265  1.00  0.00    -0.254 C  
BRANCH   6   7
HETATM    7  C   UNL     1      -9.440  10.417  68.934  1.00  0.00    -0.186 C  
HETATM    8  H   UNL     1      -7.904  11.045  67.889  1.00  0.00     0.000 HD 
HETATM    9  O   UNL     1      -8.031  10.583  68.708  1.00  0.00    -0.110 OA 
BRANCH   7  10
HETATM   10  C   UNL     1     -10.123   9.623  67.806  1.00  0.00    -0.187 C  
BRANCH  10  11
HETATM   11  O   UNL     1     -10.941  10.486  67.015  1.00  0.00    -0.257 OA 
BRANCH  11  12
HETATM   12  C   UNL     1     -10.489  10.737  65.741  1.00  0.00    -0.188 A  
HETATM   13  C   UNL     1      -9.446  10.032  65.116  1.00  0.00    -0.331 A  
HETATM   14  C   UNL     1      -9.058  10.316  63.805  1.00  0.00    -0.285 A  
HETATM   15  C   UNL     1      -9.698  11.312  63.066  1.00  0.00    -0.389 A  
HETATM   16  C   UNL     1     -10.739  12.003  63.686  1.00  0.00    -0.449 A  
HETATM   17  C   UNL     1     -11.149  11.741  64.995  1.00  0.00    -0.343 A  
HETATM   18  C   UNL     1     -12.224  12.637  65.274  1.00  0.00    -0.532 A  
HETATM   19  C   UNL     1     -12.444  13.401  64.152  1.00  0.00    -0.245 A  
HETATM   20  N   UNL     1     -11.544  13.010  63.199  1.00  0.00    -0.786 NA 
HETATM   21  H   UNL     1     -11.478  13.408  62.262  1.00  0.00     0.000 HD 
ENDBRANCH  11  12
ENDBRANCH  10  11
ENDBRANCH   7  10
ENDBRANCH   6   7
ENDBRANCH   4   6
ENDBRANCH   2   4
TORSDOF 6
ENDMDL
MODEL      123
REMARK 921   NORMALIZED FREE ENERGY PREDICTED BY IDOCK:   -4.39 KCAL/MOL
REMARK 922        TOTAL FREE ENERGY PREDICTED BY IDOCK:   -6.31 KCAL/MOL
REMARK 923 INTER-LIGAND FREE ENERGY PREDICTED BY IDOCK:   -5.74 KCAL/MOL
REMARK 924 INTRA-LIGAND FREE ENERGY PREDICTED BY IDOCK:   -0.57 KCAL/MOL
REMARK 927      BINDING AFFINITY PREDICTED BY RF-SCORE:    0.00 PKD
ROOT
HETATM    1  C   UNL     1      -8.403  18.190  68.015  1.00  0.00    -0.268 C  
HETATM    2  C   UNL     1      -9.886  18.405  67.707  1.00  0.00    -0.319 C  
HETATM    3  C   UNL     1     -10.104  18.364  66.192  1.00  0.00    -0.376 C  
ENDROOT
BRANCH   2   4
HETATM    4  N   UNL     1     -10.653  17.366  68.401  1.00  0.00    -0.371 NA 
HETATM    5  H   UNL     1     -11.321  16.927  67.766  1.00  0.00     0.000 HD 
BRANCH   4   6
HETATM    6  C   UNL     1      -9.816  16.355  69.050  1.00  0.00    -0.266 C  
BRANCH   6   7
HETATM    7  C   UNL     1     -10.492  14.970  69.026  1.00  0.00    -0.245 C  
HETATM    8  H   UNL     1     -11.869  14.050  70.076  1.00  0.00     0.000 HD 
HETATM    9  O   UNL     1     -11.452  14.903  70.091  1.00  0.00    -0.255 OA 
BRANCH   7  10
HETATM   10  C   UNL     1     -11.136  14.757  67.644  1.00  0.00    -0.306 C  
BRANCH  10  11
HETATM   11  O   UNL     1     -12.067  13.674  67.691  1.00  0.00    -0.355 OA 
BRANCH  11  12
HETATM   12  C   UNL     1     -11.575  12.445  67.321  1.00  0.00    -0.365 A  
HETATM   13  C   UNL     1     -11.106  12.133  66.034  1.00  0.00    -0.354 A  
HETATM   14  C   UNL     1     -10.588  10.872  65.734  1.00  0.00    -0.230 A  
HETATM   15  C   UNL     1     -10.512   9.875  66.708  1.00  0.00    -0.261 A  
HETATM   16  C   UNL     1     -10.969  10.192  67.988  1.00  0.00    -0.270 A  
HETATM   17  C   UNL     1     -11.493  11.443  68.316  1.00  0.00    -0.369 A  
HETATM   18  C   UNL     1     -11.848  11.388  69.697  1.00  0.00    -0.431 A  
HETATM   19  C   UNL     1     -11.533  10.135  70.168  1.00  0.00    -0.296 A  
HETATM   20  N   UNL     1     -11.002   9.421  69.129  1.00  0.00    -0.403 NA 
HETATM   21  H   UNL     1     -10.677   8.456  69.191  1.00  0.00     0.000 HD 
ENDBRANCH  11  12
ENDBRANCH  10  11
ENDBRANCH   7  10
ENDBRANCH   6   7
ENDBRANCH   4   6
ENDBRANCH   2   4
TORSDOF 6
ENDMDL
MODEL      124
REMARK 921   NORMALIZED FREE ENERGY PREDICTED BY IDOCK:   -4.39 KCAL/MOL
REMARK 922        TOTAL FREE ENERGY PREDICTED BY IDOCK:   -6.30 KCAL/MOL
REMARK 923 INTER-LIGAND FREE ENERGY PREDICTED BY IDOCK:   -6.17 KCAL/MOL
REMARK 924 INTRA-LIGAND FREE ENERGY PREDICTED BY IDOCK:   -0.13 KCAL/MOL
REMARK 927      BINDING AFFINITY PREDICTED BY RF-SCORE:    0.00 PKD
ROOT
HETATM    1  C   UNL     1     -10.370  19.571  65.870  1.00  0.00    -0.562 C  
HETATM    2  C   UNL     1     -10.045  18.242  66.554  1.00  0.00    -0.385 C  
HETATM    3  C   UNL     1     -10.736  18.189  67.920  1.00  0.00    -0.331 C  
ENDROOT
BRANCH   2   4
HETATM    4  N   UNL     1     -10.483  17.154  65.674  1.00  0.00    -0.575 NA 
HETATM    5  H   UNL     1     -10.173  17.317  64.716  1.00  0.00     0.000 HD 
BRANCH   4   6
HETATM    6  C   UNL     1     -10.069  15.826  66.134  1.00  0.00    -0.318 C  
BRANCH   6   7
HETATM    7  C   UNL     1     -11.259  14.846  66.153  1.00  0.00    -0.325 C  
HETATM    8  H   UNL     1     -12.691  14.339  64.914  1.00  0.00     0.000 HD 
HETATM    9  O   UNL     1     -11.959  14.942  64.902  1.00  0.00    -0.365 OA 
BRANCH   7  10
HETATM   10  C   UNL     1     -10.727  13.426  66.417  1.00  0.00    -0.286 C  
BRANCH  10  11
HETATM   11  O   UNL     1     -11.794  12.561  66.812  1.00  0.00    -0.442 OA 
BRANCH  11  12
HETATM   12  C   UNL     1     -11.463  11.576  67.713  1.00  0.00    -0.286 A  
HETATM   13  C   UNL     1     -11.870  11.562  69.058  1.00  0.00    -0.408 A  
HETATM   14  C   UNL     1     -11.524  10.513  69.911  1.00  0.00    -0.384 A  
HETATM   15  C   UNL     1     -10.765   9.434  69.456  1.00  0.00    -0.238 A  
HETATM   16  C   UNL     1     -10.371   9.447  68.117  1.00  0.00    -0.211 A  
HETATM   17  C   UNL     1     -10.700  10.483  67.240  1.00  0.00    -0.333 A  
HETATM   18  C   UNL     1     -10.129  10.146  65.977  1.00  0.00    -0.317 A  
HETATM   19  C   UNL     1      -9.487   8.937  66.108  1.00  0.00    -0.251 A  
HETATM   20  N   UNL     1      -9.639   8.523  67.403  1.00  0.00    -0.153 NA 
HETATM   21  H   UNL     1      -9.264   7.654  67.785  1.00  0.00     0.000 HD 
ENDBRANCH  11  12
ENDBRANCH  10  11
ENDBRANCH   7  10
ENDBRANCH   6   7
ENDBRANCH   4   6
ENDBRANCH   2   4
TORSDOF 6
ENDMDL
MODEL      125
REMARK 921   NORMALIZED FREE ENERGY PREDICTED BY IDOCK:   -4.38 KCAL/MOL
REMARK 922        TOTAL FREE ENERGY PREDICTED BY IDOCK:   -6.30 KCAL/MOL
REMARK 923 INTER-LIGAND FREE ENERGY PREDICTED BY IDOCK:   -5.71 KCAL/MOL
REMARK 924 INTRA-LIGAND FREE ENERGY PREDICTED BY IDOCK:   -0.59 KCAL/MOL
REMARK 927      BINDING AFFINITY PREDICTED BY RF-SCORE:    0.00 PKD
ROOT
HETATM    1  C   UNL     1      -6.921   8.400  72.136  1.00  0.00    -0.103 C  
HETATM    2  C   UNL     1      -8.147   7.971  72.945  1.00  0.00    -0.161 C  
HETATM    3  C   UNL     1      -7.838   8.088  74.441  1.00  0.00    -0.287 C  
ENDROOT
BRANCH   2   4
HETATM    4  N   UNL     1      -9.276   8.819  72.551  1.00  0.00    -0.337 NA 
HETATM    5  H   UNL     1      -9.199   9.089  71.570  1.00  0.00     0.000 HD 
BRANCH   4   6
HETATM    6  C   UNL     1     -10.584   8.217  72.822  1.00  0.00    -0.316 C  
BRANCH   6   7
HETATM    7  C   UNL     1     -11.223   7.668  71.531  1.00  0.00    -0.246 C  
HETATM    8  H   UNL     1     -12.900   6.768  71.056  1.00  0.00     0.000 HD 
HETATM    9  O   UNL     1     -12.506   7.107  71.851  1.00  0.00    -0.321 OA 
BRANCH   7  10
HETATM   10  C   UNL     1     -11.325   8.809  70.503  1.00  0.00    -0.227 C  
BRANCH  10  11
HETATM   11  O   UNL     1     -11.926   9.961  71.097  1.00  0.00    -0.324 OA 
BRANCH  11  12
HETATM   12  C   UNL     1     -11.804  11.133  70.389  1.00  0.00    -0.369 A  
HETATM   13  C   UNL     1     -11.141  11.248  69.155  1.00  0.00    -0.312 A  
HETATM   14  C   UNL     1     -11.081  12.464  68.472  1.00  0.00    -0.296 A  
HETATM   15  C   UNL     1     -11.685  13.611  68.990  1.00  0.00    -0.375 A  
HETATM   16  C   UNL     1     -12.351  13.491  70.211  1.00  0.00    -0.300 A  
HETATM   17  C   UNL     1     -12.426  12.288  70.917  1.00  0.00    -0.371 A  
HETATM   18  C   UNL     1     -13.176  12.556  72.100  1.00  0.00    -0.508 A  
HETATM   19  C   UNL     1     -13.538  13.882  72.085  1.00  0.00    -0.506 A  
HETATM   20  N   UNL     1     -13.036  14.438  70.939  1.00  0.00    -0.351 NA 
HETATM   21  H   UNL     1     -13.153  15.414  70.665  1.00  0.00     0.000 HD 
ENDBRANCH  11  12
ENDBRANCH  10  11
ENDBRANCH   7  10
ENDBRANCH   6   7
ENDBRANCH   4   6
ENDBRANCH   2   4
TORSDOF 6
ENDMDL
MODEL      126
REMARK 921   NORMALIZED FREE ENERGY PREDICTED BY IDOCK:   -4.37 KCAL/MOL
REMARK 922        TOTAL FREE ENERGY PREDICTED BY IDOCK:   -6.28 KCAL/MOL
REMARK 923 INTER-LIGAND FREE ENERGY PREDICTED BY IDOCK:   -6.27 KCAL/MOL
REMARK 924 INTRA-LIGAND FREE ENERGY PREDICTED BY IDOCK:   -0.01 KCAL/MOL
REMARK 927      BINDING AFFINITY PREDICTED BY RF-SCORE:    0.00 PKD
ROOT
HETATM    1  C   UNL     1     -12.712  15.148  70.464  1.00  0.00    -0.416 C  
HETATM    2  C   UNL     1     -12.419  14.002  71.434  1.00  0.00    -0.356 C  
HETATM    3  C   UNL     1     -13.570  13.876  72.437  1.00  0.00    -0.676 C  
ENDROOT
BRANCH   2   4
HETATM    4  N   UNL     1     -12.234  12.775  70.653  1.00  0.00    -0.452 NA 
HETATM    5  H   UNL     1     -13.135  12.349  70.432  1.00  0.00     0.000 HD 
BRANCH   4   6
HETATM    6  C   UNL     1     -11.441  12.970  69.437  1.00  0.00    -0.261 C  
BRANCH   6   7
HETATM    7  C   UNL     1     -10.843  11.637  68.943  1.00  0.00    -0.220 C  
HETATM    8  H   UNL     1     -11.546   9.900  68.366  1.00  0.00     0.000 HD 
HETATM    9  O   UNL     1     -11.914  10.721  68.670  1.00  0.00    -0.449 OA 
BRANCH   7  10
HETATM   10  C   UNL     1      -9.979  11.913  67.698  1.00  0.00    -0.189 C  
BRANCH  10  11
HETATM   11  O   UNL     1      -9.789  10.712  66.949  1.00  0.00    -0.178 OA 
BRANCH  11  12
HETATM   12  C   UNL     1      -9.659  10.869  65.589  1.00  0.00    -0.224 A  
HETATM   13  C   UNL     1      -8.575  10.390  64.835  1.00  0.00    -0.190 A  
HETATM   14  C   UNL     1      -8.522  10.556  63.450  1.00  0.00    -0.148 A  
HETATM   15  C   UNL     1      -9.550  11.202  62.762  1.00  0.00    -0.334 A  
HETATM   16  C   UNL     1     -10.631  11.668  63.513  1.00  0.00    -0.435 A  
HETATM   17  C   UNL     1     -10.711  11.517  64.899  1.00  0.00    -0.357 A  
HETATM   18  C   UNL     1     -11.943  12.112  65.304  1.00  0.00    -0.313 A  
HETATM   19  C   UNL     1     -12.573  12.593  64.181  1.00  0.00    -0.353 A  
HETATM   20  N   UNL     1     -11.774  12.320  63.105  1.00  0.00    -0.721 NA 
HETATM   21  H   UNL     1     -11.993  12.564  62.139  1.00  0.00     0.000 HD 
ENDBRANCH  11  12
ENDBRANCH  10  11
ENDBRANCH   7  10
ENDBRANCH   6   7
ENDBRANCH   4   6
ENDBRANCH   2   4
TORSDOF 6
ENDMDL
MODEL      127
REMARK 921   NORMALIZED FREE ENERGY PREDICTED BY IDOCK:   -4.37 KCAL/MOL
REMARK 922        TOTAL FREE ENERGY PREDICTED BY IDOCK:   -6.28 KCAL/MOL
REMARK 923 INTER-LIGAND FREE ENERGY PREDICTED BY IDOCK:   -5.93 KCAL/MOL
REMARK 924 INTRA-LIGAND FREE ENERGY PREDICTED BY IDOCK:   -0.35 KCAL/MOL
REMARK 927      BINDING AFFINITY PREDICTED BY RF-SCORE:    0.00 PKD
ROOT
HETATM    1  C   UNL     1     -12.856  13.902  65.112  1.00  0.00    -0.383 C  
HETATM    2  C   UNL     1     -11.384  13.918  64.695  1.00  0.00    -0.375 C  
HETATM    3  C   UNL     1     -10.741  15.234  65.143  1.00  0.00    -0.455 C  
ENDROOT
BRANCH   2   4
HETATM    4  N   UNL     1     -10.725  12.753  65.293  1.00  0.00    -0.287 NA 
HETATM    5  H   UNL     1      -9.725  12.922  65.404  1.00  0.00     0.000 HD 
BRANCH   4   6
HETATM    6  C   UNL     1     -11.323  12.328  66.560  1.00  0.00    -0.351 C  
BRANCH   6   7
HETATM    7  C   UNL     1     -10.249  12.148  67.652  1.00  0.00    -0.197 C  
HETATM    8  H   UNL     1      -8.748  13.201  68.345  1.00  0.00     0.000 HD 
HETATM    9  O   UNL     1      -9.410  13.313  67.674  1.00  0.00    -0.196 OA 
BRANCH   7  10
HETATM   10  C   UNL     1     -10.949  11.906  69.001  1.00  0.00    -0.219 C  
BRANCH  10  11
HETATM   11  O   UNL     1     -10.559  10.644  69.545  1.00  0.00    -0.227 OA 
BRANCH  11  12
HETATM   12  C   UNL     1     -11.378  10.137  70.527  1.00  0.00    -0.338 A  
HETATM   13  C   UNL     1     -12.734  10.471  70.679  1.00  0.00    -0.441 A  
HETATM   14  C   UNL     1     -13.518   9.893  71.679  1.00  0.00    -0.421 A  
HETATM   15  C   UNL     1     -12.981   8.956  72.563  1.00  0.00    -0.415 A  
HETATM   16  C   UNL     1     -11.636   8.619  72.403  1.00  0.00    -0.315 A  
HETATM   17  C   UNL     1     -10.828   9.181  71.412  1.00  0.00    -0.419 A  
HETATM   18  C   UNL     1      -9.534   8.598  71.561  1.00  0.00    -0.320 A  
HETATM   19  C   UNL     1      -9.585   7.710  72.610  1.00  0.00    -0.181 A  
HETATM   20  N   UNL     1     -10.858   7.729  73.110  1.00  0.00    -0.385 NA 
HETATM   21  H   UNL     1     -11.184   7.165  73.895  1.00  0.00     0.000 HD 
ENDBRANCH  11  12
ENDBRANCH  10  11
ENDBRANCH   7  10
ENDBRANCH   6   7
ENDBRANCH   4   6
ENDBRANCH   2   4
TORSDOF 6
ENDMDL
MODEL      128
REMARK 921   NORMALIZED FREE ENERGY PREDICTED BY IDOCK:   -4.37 KCAL/MOL
REMARK 922        TOTAL FREE ENERGY PREDICTED BY IDOCK:   -6.28 KCAL/MOL
REMARK 923 INTER-LIGAND FREE ENERGY PREDICTED BY IDOCK:   -5.65 KCAL/MOL
REMARK 924 INTRA-LIGAND FREE ENERGY PREDICTED BY IDOCK:   -0.63 KCAL/MOL
REMARK 927      BINDING AFFINITY PREDICTED BY RF-SCORE:    0.00 PKD
ROOT
HETATM    1  C   UNL     1     -12.948  11.643  71.730  1.00  0.00    -0.483 C  
HETATM    2  C   UNL     1     -13.039  13.155  71.515  1.00  0.00    -0.315 C  
HETATM    3  C   UNL     1     -13.508  13.827  72.809  1.00  0.00    -0.509 C  
ENDROOT
BRANCH   2   4
HETATM    4  N   UNL     1     -11.722  13.638  71.091  1.00  0.00    -0.279 NA 
HETATM    5  H   UNL     1     -11.608  13.537  70.082  1.00  0.00     0.000 HD 
BRANCH   4   6
HETATM    6  C   UNL     1     -11.441  15.014  71.508  1.00  0.00    -0.320 C  
BRANCH   6   7
HETATM    7  C   UNL     1     -11.067  15.898  70.301  1.00  0.00    -0.373 C  
HETATM    8  H   UNL     1      -9.453  16.226  69.237  1.00  0.00     0.000 HD 
HETATM    9  O   UNL     1      -9.684  15.682  69.980  1.00  0.00    -0.242 OA 
BRANCH   7  10
HETATM   10  C   UNL     1     -12.000  15.554  69.126  1.00  0.00    -0.309 C  
BRANCH  10  11
HETATM   11  O   UNL     1     -11.348  14.666  68.217  1.00  0.00    -0.270 OA 
BRANCH  11  12
HETATM   12  C   UNL     1     -11.342  15.057  66.899  1.00  0.00    -0.302 A  
HETATM   13  C   UNL     1     -11.035  16.355  66.458  1.00  0.00     0.037 A  
HETATM   14  C   UNL     1     -11.016  16.677  65.099  1.00  0.00    -0.160 A  
HETATM   15  C   UNL     1     -11.297  15.715  64.128  1.00  0.00    -0.033 A  
HETATM   16  C   UNL     1     -11.591  14.424  64.569  1.00  0.00    -0.384 A  
HETATM   17  C   UNL     1     -11.619  14.073  65.920  1.00  0.00    -0.350 A  
HETATM   18  C   UNL     1     -11.953  12.688  65.976  1.00  0.00    -0.478 A  
HETATM   19  C   UNL     1     -12.111  12.235  64.687  1.00  0.00    -0.374 A  
HETATM   20  N   UNL     1     -11.889  13.291  63.845  1.00  0.00    -0.501 NA 
HETATM   21  H   UNL     1     -11.938  13.244  62.827  1.00  0.00     0.000 HD 
ENDBRANCH  11  12
ENDBRANCH  10  11
ENDBRANCH   7  10
ENDBRANCH   6   7
ENDBRANCH   4   6
ENDBRANCH   2   4
TORSDOF 6
ENDMDL
MODEL      129
REMARK 921   NORMALIZED FREE ENERGY PREDICTED BY IDOCK:   -4.37 KCAL/MOL
REMARK 922        TOTAL FREE ENERGY PREDICTED BY IDOCK:   -6.27 KCAL/MOL
REMARK 923 INTER-LIGAND FREE ENERGY PREDICTED BY IDOCK:   -5.93 KCAL/MOL
REMARK 924 INTRA-LIGAND FREE ENERGY PREDICTED BY IDOCK:   -0.35 KCAL/MOL
REMARK 927      BINDING AFFINITY PREDICTED BY RF-SCORE:    0.00 PKD
ROOT
HETATM    1  C   UNL     1     -10.799  10.093  68.801  1.00  0.00    -0.259 C  
HETATM    2  C   UNL     1     -11.802  11.241  68.935  1.00  0.00    -0.345 C  
HETATM    3  C   UNL     1     -12.105  11.483  70.416  1.00  0.00    -0.471 C  
ENDROOT
BRANCH   2   4
HETATM    4  N   UNL     1     -11.231  12.427  68.289  1.00  0.00    -0.242 NA 
HETATM    5  H   UNL     1     -11.750  12.662  67.443  1.00  0.00     0.000 HD 
BRANCH   4   6
HETATM    6  C   UNL     1     -11.135  13.587  69.178  1.00  0.00    -0.225 C  
BRANCH   6   7
HETATM    7  C   UNL     1     -11.664  14.862  68.491  1.00  0.00    -0.310 C  
HETATM    8  H   UNL     1     -12.453  16.559  69.076  1.00  0.00     0.000 HD 
HETATM    9  O   UNL     1     -12.126  15.774  69.499  1.00  0.00    -0.353 OA 
BRANCH   7  10
HETATM   10  C   UNL     1     -10.540  15.464  67.629  1.00  0.00    -0.280 C  
BRANCH  10  11
HETATM   11  O   UNL     1      -9.745  16.362  68.405  1.00  0.00    -0.218 OA 
BRANCH  11  12
HETATM   12  C   UNL     1      -9.715  17.665  67.968  1.00  0.00    -0.301 A  
HETATM   13  C   UNL     1     -10.768  18.298  67.285  1.00  0.00    -0.366 A  
HETATM   14  C   UNL     1     -10.684  19.636  66.897  1.00  0.00    -0.570 A  
HETATM   15  C   UNL     1      -9.549  20.397  67.179  1.00  0.00    -0.587 A  
HETATM   16  C   UNL     1      -8.509  19.769  67.866  1.00  0.00    -0.307 A  
HETATM   17  C   UNL     1      -8.564  18.432  68.266  1.00  0.00    -0.321 A  
HETATM   18  C   UNL     1      -7.333  18.153  68.931  1.00  0.00    -0.253 A  
HETATM   19  C   UNL     1      -6.577  19.302  68.927  1.00  0.00    -0.296 A  
HETATM   20  N   UNL     1      -7.296  20.271  68.283  1.00  0.00    -0.224 NA 
HETATM   21  H   UNL     1      -6.978  21.230  68.133  1.00  0.00     0.000 HD 
ENDBRANCH  11  12
ENDBRANCH  10  11
ENDBRANCH   7  10
ENDBRANCH   6   7
ENDBRANCH   4   6
ENDBRANCH   2   4
TORSDOF 6
ENDMDL
MODEL      130
REMARK 921   NORMALIZED FREE ENERGY PREDICTED BY IDOCK:   -4.37 KCAL/MOL
REMARK 922        TOTAL FREE ENERGY PREDICTED BY IDOCK:   -6.27 KCAL/MOL
REMARK 923 INTER-LIGAND FREE ENERGY PREDICTED BY IDOCK:   -5.64 KCAL/MOL
REMARK 924 INTRA-LIGAND FREE ENERGY PREDICTED BY IDOCK:   -0.64 KCAL/MOL
REMARK 927      BINDING AFFINITY PREDICTED BY RF-SCORE:    0.00 PKD
ROOT
HETATM    1  C   UNL     1      -8.278  10.013  66.342  1.00  0.00    -0.119 C  
HETATM    2  C   UNL     1      -9.764   9.721  66.121  1.00  0.00    -0.246 C  
HETATM    3  C   UNL     1     -10.063   8.273  66.521  1.00  0.00    -0.303 C  
ENDROOT
BRANCH   2   4
HETATM    4  N   UNL     1     -10.542  10.680  66.911  1.00  0.00    -0.257 NA 
HETATM    5  H   UNL     1      -9.935  11.202  67.544  1.00  0.00     0.000 HD 
BRANCH   4   6
HETATM    6  C   UNL     1     -11.347  11.592  66.095  1.00  0.00    -0.131 C  
BRANCH   6   7
HETATM    7  C   UNL     1     -11.008  13.064  66.404  1.00  0.00    -0.281 C  
HETATM    8  H   UNL     1     -11.955  14.779  66.324  1.00  0.00     0.000 HD 
HETATM    9  O   UNL     1     -12.164  13.872  66.134  1.00  0.00    -0.423 OA 
BRANCH   7  10
HETATM   10  C   UNL     1     -10.549  13.171  67.869  1.00  0.00    -0.234 C  
BRANCH  10  11
HETATM   11  O   UNL     1     -11.670  13.074  68.749  1.00  0.00    -0.285 OA 
BRANCH  11  12
HETATM   12  C   UNL     1     -11.763  14.053  69.710  1.00  0.00    -0.313 A  
HETATM   13  C   UNL     1     -11.242  15.351  69.573  1.00  0.00    -0.289 A  
HETATM   14  C   UNL     1     -11.400  16.308  70.577  1.00  0.00    -0.318 A  
HETATM   15  C   UNL     1     -12.088  16.009  71.754  1.00  0.00    -0.570 A  
HETATM   16  C   UNL     1     -12.612  14.723  71.883  1.00  0.00    -0.334 A  
HETATM   17  C   UNL     1     -12.469  13.744  70.897  1.00  0.00    -0.451 A  
HETATM   18  C   UNL     1     -13.129  12.576  71.381  1.00  0.00    -0.303 A  
HETATM   19  C   UNL     1     -13.652  12.865  72.619  1.00  0.00    -0.138 A  
HETATM   20  N   UNL     1     -13.336  14.163  72.913  1.00  0.00    -0.644 NA 
HETATM   21  H   UNL     1     -13.599  14.647  73.772  1.00  0.00     0.000 HD 
ENDBRANCH  11  12
ENDBRANCH  10  11
ENDBRANCH   7  10
ENDBRANCH   6   7
ENDBRANCH   4   6
ENDBRANCH   2   4
TORSDOF 6
ENDMDL
MODEL      131
REMARK 921   NORMALIZED FREE ENERGY PREDICTED BY IDOCK:   -4.36 KCAL/MOL
REMARK 922        TOTAL FREE ENERGY PREDICTED BY IDOCK:   -6.27 KCAL/MOL
REMARK 923 INTER-LIGAND FREE ENERGY PREDICTED BY IDOCK:   -5.47 KCAL/MOL
REMARK 924 INTRA-LIGAND FREE ENERGY PREDICTED BY IDOCK:   -0.80 KCAL/MOL
REMARK 927      BINDING AFFINITY PREDICTED BY RF-SCORE:    0.00 PKD
ROOT
HETATM    1  C   UNL     1      -8.081  10.266  63.435  1.00  0.00    -0.154 C  
HETATM    2  C   UNL     1      -9.535  10.542  63.824  1.00  0.00    -0.298 C  
HETATM    3  C   UNL     1      -9.806   9.977  65.221  1.00  0.00    -0.388 C  
ENDROOT
BRANCH   2   4
HETATM    4  N   UNL     1      -9.759  11.990  63.764  1.00  0.00    -0.555 NA 
HETATM    5  H   UNL     1      -9.162  12.418  63.056  1.00  0.00     0.000 HD 
BRANCH   4   6
HETATM    6  C   UNL     1     -11.161  12.357  63.550  1.00  0.00    -0.458 C  
BRANCH   6   7
HETATM    7  C   UNL     1     -11.614  13.437  64.553  1.00  0.00    -0.371 C  
HETATM    8  H   UNL     1     -12.788  15.007  64.504  1.00  0.00     0.000 HD 
HETATM    9  O   UNL     1     -12.509  14.342  63.887  1.00  0.00    -0.773 OA 
BRANCH   7  10
HETATM   10  C   UNL     1     -12.272  12.747  65.761  1.00  0.00    -0.408 C  
BRANCH  10  11
HETATM   11  O   UNL     1     -11.772  13.297  66.981  1.00  0.00    -0.347 OA 
BRANCH  11  12
HETATM   12  C   UNL     1     -11.095  12.422  67.798  1.00  0.00    -0.247 A  
HETATM   13  C   UNL     1     -11.633  11.224  68.297  1.00  0.00    -0.370 A  
HETATM   14  C   UNL     1     -10.878  10.364  69.096  1.00  0.00    -0.274 A  
HETATM   15  C   UNL     1      -9.555  10.663  69.425  1.00  0.00    -0.120 A  
HETATM   16  C   UNL     1      -9.020  11.848  68.919  1.00  0.00     0.172 A  
HETATM   17  C   UNL     1      -9.751  12.728  68.118  1.00  0.00    -0.223 A  
HETATM   18  C   UNL     1      -8.880  13.812  67.800  1.00  0.00    -0.188 A  
HETATM   19  C   UNL     1      -7.664  13.570  68.395  1.00  0.00    -0.135 A  
HETATM   20  N   UNL     1      -7.758  12.382  69.067  1.00  0.00    -0.332 NA 
HETATM   21  H   UNL     1      -7.002  11.953  69.601  1.00  0.00     0.000 HD 
ENDBRANCH  11  12
ENDBRANCH  10  11
ENDBRANCH   7  10
ENDBRANCH   6   7
ENDBRANCH   4   6
ENDBRANCH   2   4
TORSDOF 6
ENDMDL
MODEL      132
REMARK 921   NORMALIZED FREE ENERGY PREDICTED BY IDOCK:   -4.36 KCAL/MOL
REMARK 922        TOTAL FREE ENERGY PREDICTED BY IDOCK:   -6.27 KCAL/MOL
REMARK 923 INTER-LIGAND FREE ENERGY PREDICTED BY IDOCK:   -5.97 KCAL/MOL
REMARK 924 INTRA-LIGAND FREE ENERGY PREDICTED BY IDOCK:   -0.30 KCAL/MOL
REMARK 927      BINDING AFFINITY PREDICTED BY RF-SCORE:    0.00 PKD
ROOT
HETATM    1  C   UNL     1      -9.932  19.279  68.498  1.00  0.00    -0.513 C  
HETATM    2  C   UNL     1     -10.742  18.208  67.765  1.00  0.00    -0.335 C  
HETATM    3  C   UNL     1     -10.522  18.347  66.256  1.00  0.00    -0.421 C  
ENDROOT
BRANCH   2   4
HETATM    4  N   UNL     1     -10.322  16.895  68.263  1.00  0.00    -0.315 NA 
HETATM    5  H   UNL     1      -9.304  16.823  68.277  1.00  0.00     0.000 HD 
BRANCH   4   6
HETATM    6  C   UNL     1     -10.883  16.558  69.573  1.00  0.00    -0.315 C  
BRANCH   6   7
HETATM    7  C   UNL     1     -10.886  15.034  69.804  1.00  0.00    -0.261 C  
HETATM    8  H   UNL     1     -11.703  13.801  71.092  1.00  0.00     0.000 HD 
HETATM    9  O   UNL     1     -11.701  14.740  70.949  1.00  0.00    -0.297 OA 
BRANCH   7  10
HETATM   10  C   UNL     1     -11.399  14.339  68.529  1.00  0.00    -0.282 C  
BRANCH  10  11
HETATM   11  O   UNL     1     -12.084  13.131  68.862  1.00  0.00    -0.301 OA 
BRANCH  11  12
HETATM   12  C   UNL     1     -11.286  12.046  69.134  1.00  0.00    -0.246 A  
HETATM   13  C   UNL     1     -10.051  11.794  68.513  1.00  0.00    -0.212 A  
HETATM   14  C   UNL     1      -9.273  10.687  68.861  1.00  0.00    -0.189 A  
HETATM   15  C   UNL     1      -9.695   9.793  69.846  1.00  0.00    -0.273 A  
HETATM   16  C   UNL     1     -10.917  10.052  70.468  1.00  0.00    -0.326 A  
HETATM   17  C   UNL     1     -11.716  11.149  70.140  1.00  0.00    -0.439 A  
HETATM   18  C   UNL     1     -12.870  11.079  70.976  1.00  0.00    -0.442 A  
HETATM   19  C   UNL     1     -12.747   9.970  71.780  1.00  0.00    -0.428 A  
HETATM   20  N   UNL     1     -11.564   9.357  71.467  1.00  0.00    -0.373 NA 
HETATM   21  H   UNL     1     -11.212   8.508  71.909  1.00  0.00     0.000 HD 
ENDBRANCH  11  12
ENDBRANCH  10  11
ENDBRANCH   7  10
ENDBRANCH   6   7
ENDBRANCH   4   6
ENDBRANCH   2   4
TORSDOF 6
ENDMDL
MODEL      133
REMARK 921   NORMALIZED FREE ENERGY PREDICTED BY IDOCK:   -4.33 KCAL/MOL
REMARK 922        TOTAL FREE ENERGY PREDICTED BY IDOCK:   -6.23 KCAL/MOL
REMARK 923 INTER-LIGAND FREE ENERGY PREDICTED BY IDOCK:   -5.89 KCAL/MOL
REMARK 924 INTRA-LIGAND FREE ENERGY PREDICTED BY IDOCK:   -0.34 KCAL/MOL
REMARK 927      BINDING AFFINITY PREDICTED BY RF-SCORE:    0.00 PKD
ROOT
HETATM    1  C   UNL     1      -6.962  10.086  63.991  1.00  0.00    -0.124 C  
HETATM    2  C   UNL     1      -8.364   9.913  64.579  1.00  0.00    -0.166 C  
HETATM    3  C   UNL     1      -8.492   8.513  65.189  1.00  0.00    -0.193 C  
ENDROOT
BRANCH   2   4
HETATM    4  N   UNL     1      -8.578  10.967  65.575  1.00  0.00    -0.312 NA 
HETATM    5  H   UNL     1      -7.946  11.752  65.410  1.00  0.00     0.000 HD 
BRANCH   4   6
HETATM    6  C   UNL     1      -9.966  11.427  65.651  1.00  0.00    -0.240 C  
BRANCH   6   7
HETATM    7  C   UNL     1     -10.646  10.935  66.945  1.00  0.00    -0.261 C  
HETATM    8  H   UNL     1     -10.051  10.195  68.660  1.00  0.00     0.000 HD 
HETATM    9  O   UNL     1      -9.632  10.498  67.864  1.00  0.00    -0.148 OA 
BRANCH   7  10
HETATM   10  C   UNL     1     -11.502  12.078  67.521  1.00  0.00    -0.333 C  
BRANCH  10  11
HETATM   11  O   UNL     1     -10.898  12.604  68.704  1.00  0.00    -0.237 OA 
BRANCH  11  12
HETATM   12  C   UNL     1     -11.741  12.788  69.775  1.00  0.00    -0.282 A  
HETATM   13  C   UNL     1     -12.300  14.024  70.142  1.00  0.00    -0.409 A  
HETATM   14  C   UNL     1     -13.175  14.134  71.224  1.00  0.00    -0.399 A  
HETATM   15  C   UNL     1     -13.532  13.015  71.978  1.00  0.00    -0.584 A  
HETATM   16  C   UNL     1     -12.983  11.787  71.604  1.00  0.00    -0.362 A  
HETATM   17  C   UNL     1     -12.104  11.647  70.528  1.00  0.00    -0.458 A  
HETATM   18  C   UNL     1     -11.762  10.264  70.458  1.00  0.00    -0.418 A  
HETATM   19  C   UNL     1     -12.430   9.608  71.465  1.00  0.00    -0.386 A  
HETATM   20  N   UNL     1     -13.165  10.536  72.150  1.00  0.00    -0.573 NA 
HETATM   21  H   UNL     1     -13.763  10.330  72.951  1.00  0.00     0.000 HD 
ENDBRANCH  11  12
ENDBRANCH  10  11
ENDBRANCH   7  10
ENDBRANCH   6   7
ENDBRANCH   4   6
ENDBRANCH   2   4
TORSDOF 6
ENDMDL
MODEL      134
REMARK 921   NORMALIZED FREE ENERGY PREDICTED BY IDOCK:   -4.32 KCAL/MOL
REMARK 922        TOTAL FREE ENERGY PREDICTED BY IDOCK:   -6.22 KCAL/MOL
REMARK 923 INTER-LIGAND FREE ENERGY PREDICTED BY IDOCK:   -5.81 KCAL/MOL
REMARK 924 INTRA-LIGAND FREE ENERGY PREDICTED BY IDOCK:   -0.41 KCAL/MOL
REMARK 927      BINDING AFFINITY PREDICTED BY RF-SCORE:    0.00 PKD
ROOT
HETATM    1  C   UNL     1      -8.736  18.696  68.319  1.00  0.00    -0.349 C  
HETATM    2  C   UNL     1      -9.568  19.222  67.148  1.00  0.00    -0.325 C  
HETATM    3  C   UNL     1      -8.639  19.586  65.986  1.00  0.00    -0.231 C  
ENDROOT
BRANCH   2   4
HETATM    4  N   UNL     1     -10.538  18.189  66.773  1.00  0.00    -0.333 NA 
HETATM    5  H   UNL     1     -11.291  18.588  66.213  1.00  0.00     0.000 HD 
BRANCH   4   6
HETATM    6  C   UNL     1      -9.936  17.041  66.091  1.00  0.00    -0.298 C  
BRANCH   6   7
HETATM    7  C   UNL     1     -11.004  16.206  65.357  1.00  0.00    -0.227 C  
HETATM    8  H   UNL     1     -11.950  16.314  63.643  1.00  0.00     0.000 HD 
HETATM    9  O   UNL     1     -11.292  16.828  64.095  1.00  0.00    -1.194 OA 
BRANCH   7  10
HETATM   10  C   UNL     1     -10.481  14.767  65.193  1.00  0.00    -0.418 C  
BRANCH  10  11
HETATM   11  O   UNL     1     -11.026  13.922  66.207  1.00  0.00    -0.295 OA 
BRANCH  11  12
HETATM   12  C   UNL     1     -10.119  13.143  66.887  1.00  0.00    -0.245 A  
HETATM   13  C   UNL     1      -8.742  13.104  66.611  1.00  0.00    -0.018 A  
HETATM   14  C   UNL     1      -7.871  12.314  67.363  1.00  0.00    -0.171 A  
HETATM   15  C   UNL     1      -8.338  11.536  68.423  1.00  0.00    -0.154 A  
HETATM   16  C   UNL     1      -9.705  11.585  68.702  1.00  0.00    -0.165 A  
HETATM   17  C   UNL     1     -10.600  12.365  67.966  1.00  0.00    -0.238 A  
HETATM   18  C   UNL     1     -11.890  12.157  68.540  1.00  0.00    -0.365 A  
HETATM   19  C   UNL     1     -11.752  11.282  69.591  1.00  0.00    -0.350 A  
HETATM   20  N   UNL     1     -10.430  10.943  69.681  1.00  0.00    -0.433 NA 
HETATM   21  H   UNL     1     -10.037  10.306  70.375  1.00  0.00     0.000 HD 
ENDBRANCH  11  12
ENDBRANCH  10  11
ENDBRANCH   7  10
ENDBRANCH   6   7
ENDBRANCH   4   6
ENDBRANCH   2   4
TORSDOF 6
ENDMDL
MODEL      135
REMARK 921   NORMALIZED FREE ENERGY PREDICTED BY IDOCK:   -4.29 KCAL/MOL
REMARK 922        TOTAL FREE ENERGY PREDICTED BY IDOCK:   -6.17 KCAL/MOL
REMARK 923 INTER-LIGAND FREE ENERGY PREDICTED BY IDOCK:   -5.53 KCAL/MOL
REMARK 924 INTRA-LIGAND FREE ENERGY PREDICTED BY IDOCK:   -0.64 KCAL/MOL
REMARK 927      BINDING AFFINITY PREDICTED BY RF-SCORE:    0.00 PKD
ROOT
HETATM    1  C   UNL     1     -11.519   6.388  69.572  1.00  0.00    -0.412 C  
HETATM    2  C   UNL     1     -10.297   6.293  68.656  1.00  0.00    -0.206 C  
HETATM    3  C   UNL     1     -10.747   5.899  67.246  1.00  0.00    -0.380 C  
ENDROOT
BRANCH   2   4
HETATM    4  N   UNL     1      -9.611   7.589  68.671  1.00  0.00    -0.150 NA 
HETATM    5  H   UNL     1      -9.807   8.111  67.817  1.00  0.00     0.000 HD 
BRANCH   4   6
HETATM    6  C   UNL     1      -9.914   8.397  69.854  1.00  0.00    -0.190 C  
BRANCH   6   7
HETATM    7  C   UNL     1      -9.490   9.866  69.650  1.00  0.00    -0.231 C  
HETATM    8  H   UNL     1      -7.965  10.982  70.171  1.00  0.00     0.000 HD 
HETATM    9  O   UNL     1      -8.226  10.078  70.297  1.00  0.00    -0.153 OA 
BRANCH   7  10
HETATM   10  C   UNL     1      -9.430  10.159  68.140  1.00  0.00    -0.142 C  
BRANCH  10  11
HETATM   11  O   UNL     1     -10.747  10.211  67.590  1.00  0.00    -0.246 OA 
BRANCH  11  12
HETATM   12  C   UNL     1     -11.111  11.409  67.021  1.00  0.00    -0.303 A  
HETATM   13  C   UNL     1     -11.751  12.453  67.711  1.00  0.00    -0.413 A  
HETATM   14  C   UNL     1     -12.064  13.658  67.079  1.00  0.00    -0.423 A  
HETATM   15  C   UNL     1     -11.747  13.870  65.737  1.00  0.00    -0.369 A  
HETATM   16  C   UNL     1     -11.102  12.835  65.058  1.00  0.00    -0.285 A  
HETATM   17  C   UNL     1     -10.778  11.619  65.663  1.00  0.00    -0.330 A  
HETATM   18  C   UNL     1     -10.137  10.825  64.666  1.00  0.00    -0.410 A  
HETATM   19  C   UNL     1     -10.080  11.561  63.506  1.00  0.00    -0.409 A  
HETATM   20  N   UNL     1     -10.665  12.773  63.753  1.00  0.00    -0.478 NA 
HETATM   21  H   UNL     1     -10.763  13.523  63.068  1.00  0.00     0.000 HD 
ENDBRANCH  11  12
ENDBRANCH  10  11
ENDBRANCH   7  10
ENDBRANCH   6   7
ENDBRANCH   4   6
ENDBRANCH   2   4
TORSDOF 6
ENDMDL
MODEL      136
REMARK 921   NORMALIZED FREE ENERGY PREDICTED BY IDOCK:   -4.27 KCAL/MOL
REMARK 922        TOTAL FREE ENERGY PREDICTED BY IDOCK:   -6.15 KCAL/MOL
REMARK 923 INTER-LIGAND FREE ENERGY PREDICTED BY IDOCK:   -5.48 KCAL/MOL
REMARK 924 INTRA-LIGAND FREE ENERGY PREDICTED BY IDOCK:   -0.67 KCAL/MOL
REMARK 927      BINDING AFFINITY PREDICTED BY RF-SCORE:    0.00 PKD
ROOT
HETATM    1  C   UNL     1     -11.366  10.796  70.013  1.00  0.00    -0.397 C  
HETATM    2  C   UNL     1     -10.414  10.888  68.818  1.00  0.00    -0.200 C  
HETATM    3  C   UNL     1     -10.583   9.647  67.936  1.00  0.00    -0.308 C  
ENDROOT
BRANCH   2   4
HETATM    4  N   UNL     1     -10.710  12.125  68.090  1.00  0.00    -0.203 NA 
HETATM    5  H   UNL     1     -10.717  11.958  67.083  1.00  0.00     0.000 HD 
BRANCH   4   6
HETATM    6  C   UNL     1     -11.953  12.772  68.516  1.00  0.00    -0.225 C  
BRANCH   6   7
HETATM    7  C   UNL     1     -11.702  14.228  68.956  1.00  0.00    -0.317 C  
HETATM    8  H   UNL     1     -12.327  15.396  70.401  1.00  0.00     0.000 HD 
HETATM    9  O   UNL     1     -12.482  14.500  70.131  1.00  0.00    -0.331 OA 
BRANCH   7  10
HETATM   10  C   UNL     1     -10.194  14.420  69.198  1.00  0.00    -0.127 C  
BRANCH  10  11
HETATM   11  O   UNL     1      -9.522  14.691  67.967  1.00  0.00    -0.198 OA 
BRANCH  11  12
HETATM   12  C   UNL     1      -9.673  15.965  67.471  1.00  0.00    -0.223 A  
HETATM   13  C   UNL     1      -9.119  17.115  68.058  1.00  0.00    -0.240 A  
HETATM   14  C   UNL     1      -9.284  18.377  67.483  1.00  0.00    -0.277 A  
HETATM   15  C   UNL     1     -10.003  18.539  66.298  1.00  0.00    -0.384 A  
HETATM   16  C   UNL     1     -10.543  17.393  65.713  1.00  0.00    -0.182 A  
HETATM   17  C   UNL     1     -10.396  16.119  66.265  1.00  0.00    -0.337 A  
HETATM   18  C   UNL     1     -11.076  15.215  65.395  1.00  0.00    -0.371 A  
HETATM   19  C   UNL     1     -11.603  15.942  64.354  1.00  0.00    -0.234 A  
HETATM   20  N   UNL     1     -11.276  17.255  64.554  1.00  0.00    -0.924 NA 
HETATM   21  H   UNL     1     -11.537  18.022  63.934  1.00  0.00     0.000 HD 
ENDBRANCH  11  12
ENDBRANCH  10  11
ENDBRANCH   7  10
ENDBRANCH   6   7
ENDBRANCH   4   6
ENDBRANCH   2   4
TORSDOF 6
ENDMDL
MODEL      137
REMARK 921   NORMALIZED FREE ENERGY PREDICTED BY IDOCK:   -4.26 KCAL/MOL
REMARK 922        TOTAL FREE ENERGY PREDICTED BY IDOCK:   -6.13 KCAL/MOL
REMARK 923 INTER-LIGAND FREE ENERGY PREDICTED BY IDOCK:   -5.71 KCAL/MOL
REMARK 924 INTRA-LIGAND FREE ENERGY PREDICTED BY IDOCK:   -0.43 KCAL/MOL
REMARK 927      BINDING AFFINITY PREDICTED BY RF-SCORE:    0.00 PKD
ROOT
HETATM    1  C   UNL     1     -11.581  11.062  67.876  1.00  0.00    -0.306 C  
HETATM    2  C   UNL     1     -12.000  11.210  69.340  1.00  0.00    -0.349 C  
HETATM    3  C   UNL     1     -11.566   9.967  70.123  1.00  0.00    -0.320 C  
ENDROOT
BRANCH   2   4
HETATM    4  N   UNL     1     -11.391  12.434  69.870  1.00  0.00    -0.513 NA 
HETATM    5  H   UNL     1     -10.373  12.367  69.850  1.00  0.00     0.000 HD 
BRANCH   4   6
HETATM    6  C   UNL     1     -11.844  13.653  69.196  1.00  0.00    -0.348 C  
BRANCH   6   7
HETATM    7  C   UNL     1     -12.395  14.677  70.208  1.00  0.00    -0.349 C  
HETATM    8  H   UNL     1     -12.662  14.743  72.150  1.00  0.00     0.000 HD 
HETATM    9  O   UNL     1     -12.322  14.112  71.527  1.00  0.00    -0.341 OA 
BRANCH   7  10
HETATM   10  C   UNL     1     -11.585  15.980  70.086  1.00  0.00    -0.317 C  
BRANCH  10  11
HETATM   11  O   UNL     1     -11.020  16.093  68.779  1.00  0.00    -0.290 OA 
BRANCH  11  12
HETATM   12  C   UNL     1     -10.036  17.043  68.633  1.00  0.00    -0.303 A  
HETATM   13  C   UNL     1     -10.273  18.385  68.292  1.00  0.00    -0.412 A  
HETATM   14  C   UNL     1      -9.229  19.306  68.192  1.00  0.00    -0.387 A  
HETATM   15  C   UNL     1      -7.908  18.926  68.433  1.00  0.00    -0.359 A  
HETATM   16  C   UNL     1      -7.677  17.594  68.781  1.00  0.00    -0.246 A  
HETATM   17  C   UNL     1      -8.701  16.650  68.888  1.00  0.00    -0.238 A  
HETATM   18  C   UNL     1      -8.084  15.418  69.257  1.00  0.00    -0.246 A  
HETATM   19  C   UNL     1      -6.732  15.636  69.371  1.00  0.00    -0.180 A  
HETATM   20  N   UNL     1      -6.496  16.953  69.083  1.00  0.00    -0.202 NA 
HETATM   21  H   UNL     1      -5.577  17.395  69.090  1.00  0.00     0.000 HD 
ENDBRANCH  11  12
ENDBRANCH  10  11
ENDBRANCH   7  10
ENDBRANCH   6   7
ENDBRANCH   4   6
ENDBRANCH   2   4
TORSDOF 6
ENDMDL
MODEL      138
REMARK 921   NORMALIZED FREE ENERGY PREDICTED BY IDOCK:   -4.26 KCAL/MOL
REMARK 922        TOTAL FREE ENERGY PREDICTED BY IDOCK:   -6.13 KCAL/MOL
REMARK 923 INTER-LIGAND FREE ENERGY PREDICTED BY IDOCK:   -5.66 KCAL/MOL
REMARK 924 INTRA-LIGAND FREE ENERGY PREDICTED BY IDOCK:   -0.47 KCAL/MOL
REMARK 927      BINDING AFFINITY PREDICTED BY RF-SCORE:    0.00 PKD
ROOT
HETATM    1  C   UNL     1      -8.192  20.334  67.291  1.00  0.00    -0.393 C  
HETATM    2  C   UNL     1      -9.184  19.276  66.801  1.00  0.00    -0.323 C  
HETATM    3  C   UNL     1     -10.183  19.923  65.837  1.00  0.00    -0.552 C  
ENDROOT
BRANCH   2   4
HETATM    4  N   UNL     1      -8.424  18.197  66.162  1.00  0.00    -0.490 NA 
HETATM    5  H   UNL     1      -7.426  18.301  66.345  1.00  0.00     0.000 HD 
BRANCH   4   6
HETATM    6  C   UNL     1      -8.883  16.857  66.538  1.00  0.00    -0.271 C  
BRANCH   6   7
HETATM    7  C   UNL     1      -8.536  16.541  68.007  1.00  0.00    -0.186 C  
HETATM    8  H   UNL     1      -9.470  16.625  69.729  1.00  0.00     0.000 HD 
HETATM    9  O   UNL     1      -9.683  16.819  68.825  1.00  0.00    -0.243 OA 
BRANCH   7  10
HETATM   10  C   UNL     1      -8.091  15.071  68.106  1.00  0.00    -0.131 C  
BRANCH  10  11
HETATM   11  O   UNL     1      -9.143  14.268  68.643  1.00  0.00    -0.195 OA 
BRANCH  11  12
HETATM   12  C   UNL     1      -9.498  13.169  67.896  1.00  0.00    -0.218 A  
HETATM   13  C   UNL     1      -8.789  11.955  67.884  1.00  0.00    -0.172 A  
HETATM   14  C   UNL     1      -9.224  10.866  67.127  1.00  0.00    -0.159 A  
HETATM   15  C   UNL     1     -10.385  10.943  66.356  1.00  0.00    -0.306 A  
HETATM   16  C   UNL     1     -11.091  12.146  66.378  1.00  0.00    -0.314 A  
HETATM   17  C   UNL     1     -10.680  13.253  67.125  1.00  0.00    -0.264 A  
HETATM   18  C   UNL     1     -11.644  14.280  66.897  1.00  0.00    -0.405 A  
HETATM   19  C   UNL     1     -12.600  13.786  66.042  1.00  0.00    -0.408 A  
HETATM   20  N   UNL     1     -12.259  12.497  65.735  1.00  0.00    -0.626 NA 
HETATM   21  H   UNL     1     -12.792  11.883  65.119  1.00  0.00     0.000 HD 
ENDBRANCH  11  12
ENDBRANCH  10  11
ENDBRANCH   7  10
ENDBRANCH   6   7
ENDBRANCH   4   6
ENDBRANCH   2   4
TORSDOF 6
ENDMDL
MODEL      139
REMARK 921   NORMALIZED FREE ENERGY PREDICTED BY IDOCK:   -4.25 KCAL/MOL
REMARK 922        TOTAL FREE ENERGY PREDICTED BY IDOCK:   -6.12 KCAL/MOL
REMARK 923 INTER-LIGAND FREE ENERGY PREDICTED BY IDOCK:   -5.68 KCAL/MOL
REMARK 924 INTRA-LIGAND FREE ENERGY PREDICTED BY IDOCK:   -0.44 KCAL/MOL
REMARK 927      BINDING AFFINITY PREDICTED BY RF-SCORE:    0.00 PKD
ROOT
HETATM    1  C   UNL     1      -8.042   8.696  62.823  1.00  0.00    -0.178 C  
HETATM    2  C   UNL     1      -7.117   9.646  63.588  1.00  0.00    -0.110 C  
HETATM    3  C   UNL     1      -6.127  10.289  62.613  1.00  0.00    -0.135 C  
ENDROOT
BRANCH   2   4
HETATM    4  N   UNL     1      -7.947  10.645  64.267  1.00  0.00    -0.357 NA 
HETATM    5  H   UNL     1      -7.484  11.554  64.273  1.00  0.00     0.000 HD 
BRANCH   4   6
HETATM    6  C   UNL     1      -9.300  10.756  63.715  1.00  0.00    -0.266 C  
BRANCH   6   7
HETATM    7  C   UNL     1     -10.360  10.773  64.835  1.00  0.00    -0.299 C  
HETATM    8  H   UNL     1     -10.740   9.709  66.438  1.00  0.00     0.000 HD 
HETATM    9  O   UNL     1     -10.087   9.699  65.748  1.00  0.00    -0.290 OA 
BRANCH   7  10
HETATM   10  C   UNL     1     -10.330  12.149  65.525  1.00  0.00    -0.263 C  
BRANCH  10  11
HETATM   11  O   UNL     1     -11.631  12.493  66.005  1.00  0.00    -0.362 OA 
BRANCH  11  12
HETATM   12  C   UNL     1     -11.670  13.122  67.227  1.00  0.00    -0.374 A  
HETATM   13  C   UNL     1     -11.697  14.516  67.401  1.00  0.00    -0.425 A  
HETATM   14  C   UNL     1     -11.770  15.089  68.672  1.00  0.00    -0.363 A  
HETATM   15  C   UNL     1     -11.825  14.295  69.818  1.00  0.00    -0.380 A  
HETATM   16  C   UNL     1     -11.809  12.911  69.641  1.00  0.00    -0.320 A  
HETATM   17  C   UNL     1     -11.735  12.309  68.383  1.00  0.00    -0.390 A  
HETATM   18  C   UNL     1     -11.741  10.899  68.603  1.00  0.00    -0.334 A  
HETATM   19  C   UNL     1     -11.824  10.680  69.958  1.00  0.00    -0.322 A  
HETATM   20  N   UNL     1     -11.865  11.900  70.576  1.00  0.00    -0.510 NA 
HETATM   21  H   UNL     1     -11.929  12.041  71.584  1.00  0.00     0.000 HD 
ENDBRANCH  11  12
ENDBRANCH  10  11
ENDBRANCH   7  10
ENDBRANCH   6   7
ENDBRANCH   4   6
ENDBRANCH   2   4
TORSDOF 6
ENDMDL
MODEL      140
REMARK 921   NORMALIZED FREE ENERGY PREDICTED BY IDOCK:   -4.24 KCAL/MOL
REMARK 922        TOTAL FREE ENERGY PREDICTED BY IDOCK:   -6.11 KCAL/MOL
REMARK 923 INTER-LIGAND FREE ENERGY PREDICTED BY IDOCK:   -5.35 KCAL/MOL
REMARK 924 INTRA-LIGAND FREE ENERGY PREDICTED BY IDOCK:   -0.76 KCAL/MOL
REMARK 927      BINDING AFFINITY PREDICTED BY RF-SCORE:    0.00 PKD
ROOT
HETATM    1  C   UNL     1      -8.865   9.409  67.417  1.00  0.00    -0.135 C  
HETATM    2  C   UNL     1     -10.204   8.825  66.961  1.00  0.00    -0.281 C  
HETATM    3  C   UNL     1     -10.018   7.349  66.596  1.00  0.00    -0.261 C  
ENDROOT
BRANCH   2   4
HETATM    4  N   UNL     1     -11.175   9.005  68.044  1.00  0.00    -0.344 NA 
HETATM    5  H   UNL     1     -12.034   8.489  67.848  1.00  0.00     0.000 HD 
BRANCH   4   6
HETATM    6  C   UNL     1     -10.650   8.653  69.365  1.00  0.00    -0.199 C  
BRANCH   6   7
HETATM    7  C   UNL     1     -11.472   9.318  70.488  1.00  0.00    -0.248 C  
HETATM    8  H   UNL     1     -11.631   9.117  72.432  1.00  0.00     0.000 HD 
HETATM    9  O   UNL     1     -11.125   8.708  71.741  1.00  0.00    -0.278 OA 
BRANCH   7  10
HETATM   10  C   UNL     1     -11.192  10.831  70.478  1.00  0.00    -0.101 C  
BRANCH  10  11
HETATM   11  O   UNL     1     -12.217  11.522  69.761  1.00  0.00    -0.288 OA 
BRANCH  11  12
HETATM   12  C   UNL     1     -11.823  12.664  69.105  1.00  0.00    -0.297 A  
HETATM   13  C   UNL     1     -11.307  12.690  67.798  1.00  0.00    -0.349 A  
HETATM   14  C   UNL     1     -10.956  13.890  67.178  1.00  0.00    -0.298 A  
HETATM   15  C   UNL     1     -11.110  15.112  67.835  1.00  0.00    -0.322 A  
HETATM   16  C   UNL     1     -11.632  15.083  69.129  1.00  0.00    -0.310 A  
HETATM   17  C   UNL     1     -11.991  13.898  69.775  1.00  0.00    -0.398 A  
HETATM   18  C   UNL     1     -12.477  14.267  71.065  1.00  0.00    -0.432 A  
HETATM   19  C   UNL     1     -12.411  15.636  71.170  1.00  0.00    -0.448 A  
HETATM   20  N   UNL     1     -11.900  16.120  69.996  1.00  0.00    -0.358 NA 
HETATM   21  H   UNL     1     -11.742  17.107  69.792  1.00  0.00     0.000 HD 
ENDBRANCH  11  12
ENDBRANCH  10  11
ENDBRANCH   7  10
ENDBRANCH   6   7
ENDBRANCH   4   6
ENDBRANCH   2   4
TORSDOF 6
ENDMDL
MODEL      141
REMARK 921   NORMALIZED FREE ENERGY PREDICTED BY IDOCK:   -4.23 KCAL/MOL
REMARK 922        TOTAL FREE ENERGY PREDICTED BY IDOCK:   -6.09 KCAL/MOL
REMARK 923 INTER-LIGAND FREE ENERGY PREDICTED BY IDOCK:   -5.65 KCAL/MOL
REMARK 924 INTRA-LIGAND FREE ENERGY PREDICTED BY IDOCK:   -0.45 KCAL/MOL
REMARK 927      BINDING AFFINITY PREDICTED BY RF-SCORE:    0.00 PKD
ROOT
HETATM    1  C   UNL     1      -9.947   5.419  69.453  1.00  0.00    -0.280 C  
HETATM    2  C   UNL     1      -9.688   6.553  68.459  1.00  0.00    -0.129 C  
HETATM    3  C   UNL     1     -10.847   6.629  67.460  1.00  0.00    -0.417 C  
ENDROOT
BRANCH   2   4
HETATM    4  N   UNL     1      -9.533   7.799  69.216  1.00  0.00    -0.155 NA 
HETATM    5  H   UNL     1      -8.789   8.373  68.816  1.00  0.00     0.000 HD 
BRANCH   4   6
HETATM    6  C   UNL     1     -10.773   8.569  69.337  1.00  0.00    -0.156 C  
BRANCH   6   7
HETATM    7  C   UNL     1     -10.523  10.071  69.098  1.00  0.00    -0.219 C  
HETATM    8  H   UNL     1      -9.006  11.299  69.289  1.00  0.00     0.000 HD 
HETATM    9  O   UNL     1      -9.160  10.374  69.436  1.00  0.00    -0.196 OA 
BRANCH   7  10
HETATM   10  C   UNL     1     -10.849  10.401  67.630  1.00  0.00    -0.306 C  
BRANCH  10  11
HETATM   11  O   UNL     1     -11.970  11.283  67.556  1.00  0.00    -0.612 OA 
BRANCH  11  12
HETATM   12  C   UNL     1     -11.781  12.429  66.820  1.00  0.00    -0.362 A  
HETATM   13  C   UNL     1     -11.879  12.498  65.420  1.00  0.00    -0.479 A  
HETATM   14  C   UNL     1     -11.707  13.703  64.736  1.00  0.00    -0.399 A  
HETATM   15  C   UNL     1     -11.437  14.888  65.423  1.00  0.00    -0.320 A  
HETATM   16  C   UNL     1     -11.350  14.818  66.815  1.00  0.00    -0.346 A  
HETATM   17  C   UNL     1     -11.516  13.627  67.525  1.00  0.00    -0.360 A  
HETATM   18  C   UNL     1     -11.358  13.949  68.905  1.00  0.00    -0.319 A  
HETATM   19  C   UNL     1     -11.113  15.298  69.003  1.00  0.00    -0.260 A  
HETATM   20  N   UNL     1     -11.111  15.814  67.735  1.00  0.00    -0.331 NA 
HETATM   21  H   UNL     1     -10.954  16.796  67.506  1.00  0.00     0.000 HD 
ENDBRANCH  11  12
ENDBRANCH  10  11
ENDBRANCH   7  10
ENDBRANCH   6   7
ENDBRANCH   4   6
ENDBRANCH   2   4
TORSDOF 6
ENDMDL
MODEL      142
REMARK 921   NORMALIZED FREE ENERGY PREDICTED BY IDOCK:   -4.23 KCAL/MOL
REMARK 922        TOTAL FREE ENERGY PREDICTED BY IDOCK:   -6.09 KCAL/MOL
REMARK 923 INTER-LIGAND FREE ENERGY PREDICTED BY IDOCK:   -5.43 KCAL/MOL
REMARK 924 INTRA-LIGAND FREE ENERGY PREDICTED BY IDOCK:   -0.66 KCAL/MOL
REMARK 927      BINDING AFFINITY PREDICTED BY RF-SCORE:    0.00 PKD
ROOT
HETATM    1  C   UNL     1      -9.687  10.236  63.405  1.00  0.00    -0.243 C  
HETATM    2  C   UNL     1      -9.773  11.466  64.312  1.00  0.00    -0.230 C  
HETATM    3  C   UNL     1     -11.019  12.280  63.948  1.00  0.00    -0.464 C  
ENDROOT
BRANCH   2   4
HETATM    4  N   UNL     1      -9.803  11.009  65.704  1.00  0.00    -0.226 NA 
HETATM    5  H   UNL     1     -10.679  11.278  66.153  1.00  0.00     0.000 HD 
BRANCH   4   6
HETATM    6  C   UNL     1      -9.565   9.571  65.853  1.00  0.00    -0.261 C  
BRANCH   6   7
HETATM    7  C   UNL     1     -10.442   8.973  66.972  1.00  0.00    -0.246 C  
HETATM    8  H   UNL     1     -10.372   7.391  68.128  1.00  0.00     0.000 HD 
HETATM    9  O   UNL     1      -9.833   7.759  67.439  1.00  0.00    -0.151 OA 
BRANCH   7  10
HETATM   10  C   UNL     1     -10.596  10.018  68.093  1.00  0.00    -0.227 C  
BRANCH  10  11
HETATM   11  O   UNL     1     -11.777  10.796  67.888  1.00  0.00    -0.543 OA 
BRANCH  11  12
HETATM   12  C   UNL     1     -11.774  12.048  68.455  1.00  0.00    -0.332 A  
HETATM   13  C   UNL     1     -11.341  13.214  67.800  1.00  0.00    -0.326 A  
HETATM   14  C   UNL     1     -11.396  14.462  68.425  1.00  0.00    -0.312 A  
HETATM   15  C   UNL     1     -11.888  14.596  69.723  1.00  0.00    -0.366 A  
HETATM   16  C   UNL     1     -12.327  13.437  70.367  1.00  0.00    -0.312 A  
HETATM   17  C   UNL     1     -12.283  12.176  69.768  1.00  0.00    -0.212 A  
HETATM   18  C   UNL     1     -12.809  11.254  70.721  1.00  0.00    -0.279 A  
HETATM   19  C   UNL     1     -13.158  11.958  71.849  1.00  0.00    -0.369 A  
HETATM   20  N   UNL     1     -12.864  13.276  71.625  1.00  0.00    -0.331 NA 
HETATM   21  H   UNL     1     -13.021  14.030  72.294  1.00  0.00     0.000 HD 
ENDBRANCH  11  12
ENDBRANCH  10  11
ENDBRANCH   7  10
ENDBRANCH   6   7
ENDBRANCH   4   6
ENDBRANCH   2   4
TORSDOF 6
ENDMDL
MODEL      143
REMARK 921   NORMALIZED FREE ENERGY PREDICTED BY IDOCK:   -4.22 KCAL/MOL
REMARK 922        TOTAL FREE ENERGY PREDICTED BY IDOCK:   -6.08 KCAL/MOL
REMARK 923 INTER-LIGAND FREE ENERGY PREDICTED BY IDOCK:   -5.58 KCAL/MOL
REMARK 924 INTRA-LIGAND FREE ENERGY PREDICTED BY IDOCK:   -0.49 KCAL/MOL
REMARK 927      BINDING AFFINITY PREDICTED BY RF-SCORE:    0.00 PKD
ROOT
HETATM    1  C   UNL     1      -9.877  19.000  68.068  1.00  0.00    -0.414 C  
HETATM    2  C   UNL     1      -9.459  19.111  66.600  1.00  0.00    -0.344 C  
HETATM    3  C   UNL     1      -8.102  19.815  66.508  1.00  0.00    -0.351 C  
ENDROOT
BRANCH   2   4
HETATM    4  N   UNL     1      -9.417  17.760  66.031  1.00  0.00    -0.527 NA 
HETATM    5  H   UNL     1      -8.497  17.341  66.166  1.00  0.00     0.000 HD 
BRANCH   4   6
HETATM    6  C   UNL     1     -10.469  16.878  66.541  1.00  0.00    -0.253 C  
BRANCH   6   7
HETATM    7  C   UNL     1     -11.117  16.065  65.402  1.00  0.00    -0.155 C  
HETATM    8  H   UNL     1     -11.748  16.437  63.584  1.00  0.00     0.000 HD 
HETATM    9  O   UNL     1     -11.349  16.937  64.285  1.00  0.00    -1.202 OA 
BRANCH   7  10
HETATM   10  C   UNL     1     -10.190  14.889  65.043  1.00  0.00    -0.330 C  
BRANCH  10  11
HETATM   11  O   UNL     1      -9.565  14.372  66.218  1.00  0.00    -0.289 OA 
BRANCH  11  12
HETATM   12  C   UNL     1      -9.543  13.001  66.330  1.00  0.00    -0.257 A  
HETATM   13  C   UNL     1     -10.350  12.131  65.577  1.00  0.00    -0.296 A  
HETATM   14  C   UNL     1     -10.254  10.745  65.718  1.00  0.00    -0.319 A  
HETATM   15  C   UNL     1      -9.347  10.174  66.611  1.00  0.00    -0.195 A  
HETATM   16  C   UNL     1      -8.540  11.041  67.350  1.00  0.00    -0.132 A  
HETATM   17  C   UNL     1      -8.614  12.430  67.231  1.00  0.00    -0.185 A  
HETATM   18  C   UNL     1      -7.649  12.970  68.133  1.00  0.00    -0.136 A  
HETATM   19  C   UNL     1      -7.019  11.921  68.760  1.00  0.00    -0.104 A  
HETATM   20  N   UNL     1      -7.563  10.761  68.280  1.00  0.00    -0.094 NA 
HETATM   21  H   UNL     1      -7.285   9.823  68.570  1.00  0.00     0.000 HD 
ENDBRANCH  11  12
ENDBRANCH  10  11
ENDBRANCH   7  10
ENDBRANCH   6   7
ENDBRANCH   4   6
ENDBRANCH   2   4
TORSDOF 6
ENDMDL
MODEL      144
REMARK 921   NORMALIZED FREE ENERGY PREDICTED BY IDOCK:   -4.21 KCAL/MOL
REMARK 922        TOTAL FREE ENERGY PREDICTED BY IDOCK:   -6.07 KCAL/MOL
REMARK 923 INTER-LIGAND FREE ENERGY PREDICTED BY IDOCK:   -6.01 KCAL/MOL
REMARK 924 INTRA-LIGAND FREE ENERGY PREDICTED BY IDOCK:   -0.06 KCAL/MOL
REMARK 927      BINDING AFFINITY PREDICTED BY RF-SCORE:    0.00 PKD
ROOT
HETATM    1  C   UNL     1     -10.445   9.711  70.877  1.00  0.00    -0.359 C  
HETATM    2  C   UNL     1      -9.276   9.783  69.892  1.00  0.00    -0.234 C  
HETATM    3  C   UNL     1      -9.119   8.433  69.186  1.00  0.00    -0.147 C  
ENDROOT
BRANCH   2   4
HETATM    4  N   UNL     1      -9.541  10.871  68.945  1.00  0.00    -0.241 NA 
HETATM    5  H   UNL     1      -9.296  10.589  67.995  1.00  0.00     0.000 HD 
BRANCH   4   6
HETATM    6  C   UNL     1     -10.916  11.372  68.999  1.00  0.00    -0.236 C  
BRANCH   6   7
HETATM    7  C   UNL     1     -11.130  12.524  67.997  1.00  0.00    -0.245 C  
HETATM    8  H   UNL     1     -12.450  13.951  67.746  1.00  0.00     0.000 HD 
HETATM    9  O   UNL     1     -12.318  13.242  68.363  1.00  0.00    -0.158 OA 
BRANCH   7  10
HETATM   10  C   UNL     1      -9.880  13.423  68.000  1.00  0.00    -0.229 C  
BRANCH  10  11
HETATM   11  O   UNL     1      -9.160  13.277  66.775  1.00  0.00    -0.238 OA 
BRANCH  11  12
HETATM   12  C   UNL     1      -9.859  12.715  65.733  1.00  0.00    -0.228 A  
HETATM   13  C   UNL     1      -9.748  11.371  65.337  1.00  0.00    -0.265 A  
HETATM   14  C   UNL     1     -10.513  10.856  64.289  1.00  0.00    -0.405 A  
HETATM   15  C   UNL     1     -11.422  11.659  63.599  1.00  0.00    -0.458 A  
HETATM   16  C   UNL     1     -11.537  12.990  64.002  1.00  0.00    -0.430 A  
HETATM   17  C   UNL     1     -10.785  13.534  65.045  1.00  0.00    -0.366 A  
HETATM   18  C   UNL     1     -11.174  14.901  65.161  1.00  0.00    -0.389 A  
HETATM   19  C   UNL     1     -12.137  15.152  64.212  1.00  0.00    -0.261 A  
HETATM   20  N   UNL     1     -12.350  13.992  63.518  1.00  0.00    -1.118 NA 
HETATM   21  H   UNL     1     -13.016  13.885  62.752  1.00  0.00     0.000 HD 
ENDBRANCH  11  12
ENDBRANCH  10  11
ENDBRANCH   7  10
ENDBRANCH   6   7
ENDBRANCH   4   6
ENDBRANCH   2   4
TORSDOF 6
ENDMDL
MODEL      145
REMARK 921   NORMALIZED FREE ENERGY PREDICTED BY IDOCK:   -4.21 KCAL/MOL
REMARK 922        TOTAL FREE ENERGY PREDICTED BY IDOCK:   -6.07 KCAL/MOL
REMARK 923 INTER-LIGAND FREE ENERGY PREDICTED BY IDOCK:   -5.45 KCAL/MOL
REMARK 924 INTRA-LIGAND FREE ENERGY PREDICTED BY IDOCK:   -0.62 KCAL/MOL
REMARK 927      BINDING AFFINITY PREDICTED BY RF-SCORE:    0.00 PKD
ROOT
HETATM    1  C   UNL     1     -12.901  14.196  65.553  1.00  0.00    -0.404 C  
HETATM    2  C   UNL     1     -11.826  13.156  65.875  1.00  0.00    -0.406 C  
HETATM    3  C   UNL     1     -10.922  12.962  64.655  1.00  0.00    -0.357 C  
ENDROOT
BRANCH   2   4
HETATM    4  N   UNL     1     -11.076  13.619  67.046  1.00  0.00    -0.296 NA 
HETATM    5  H   UNL     1     -11.165  12.956  67.817  1.00  0.00     0.000 HD 
BRANCH   4   6
HETATM    6  C   UNL     1      -9.667  13.901  66.765  1.00  0.00    -0.279 C  
BRANCH   6   7
HETATM    7  C   UNL     1      -8.870  14.120  68.067  1.00  0.00    -0.182 C  
HETATM    8  H   UNL     1      -6.995  13.963  68.619  1.00  0.00     0.000 HD 
HETATM    9  O   UNL     1      -7.486  13.829  67.817  1.00  0.00    -0.129 OA 
BRANCH   7  10
HETATM   10  C   UNL     1      -9.086  15.567  68.544  1.00  0.00    -0.196 C  
BRANCH  10  11
HETATM   11  O   UNL     1      -9.589  16.373  67.477  1.00  0.00    -0.225 OA 
BRANCH  11  12
HETATM   12  C   UNL     1      -8.709  17.293  66.957  1.00  0.00    -0.231 A  
HETATM   13  C   UNL     1      -7.561  16.963  66.217  1.00  0.00    -0.312 A  
HETATM   14  C   UNL     1      -6.727  17.950  65.689  1.00  0.00    -0.181 A  
HETATM   15  C   UNL     1      -7.008  19.304  65.874  1.00  0.00    -0.300 A  
HETATM   16  C   UNL     1      -8.155  19.629  66.600  1.00  0.00    -0.309 A  
HETATM   17  C   UNL     1      -9.007  18.663  67.141  1.00  0.00    -0.288 A  
HETATM   18  C   UNL     1     -10.055  19.369  67.804  1.00  0.00    -0.508 A  
HETATM   19  C   UNL     1      -9.826  20.716  67.650  1.00  0.00    -0.285 A  
HETATM   20  N   UNL     1      -8.677  20.862  66.921  1.00  0.00    -0.560 NA 
HETATM   21  H   UNL     1      -8.267  21.758  66.653  1.00  0.00     0.000 HD 
ENDBRANCH  11  12
ENDBRANCH  10  11
ENDBRANCH   7  10
ENDBRANCH   6   7
ENDBRANCH   4   6
ENDBRANCH   2   4
TORSDOF 6
ENDMDL
MODEL      146
REMARK 921   NORMALIZED FREE ENERGY PREDICTED BY IDOCK:   -4.20 KCAL/MOL
REMARK 922        TOTAL FREE ENERGY PREDICTED BY IDOCK:   -6.05 KCAL/MOL
REMARK 923 INTER-LIGAND FREE ENERGY PREDICTED BY IDOCK:   -5.45 KCAL/MOL
REMARK 924 INTRA-LIGAND FREE ENERGY PREDICTED BY IDOCK:   -0.60 KCAL/MOL
REMARK 927      BINDING AFFINITY PREDICTED BY RF-SCORE:    0.00 PKD
ROOT
HETATM    1  C   UNL     1     -11.769  13.012  68.230  1.00  0.00    -0.390 C  
HETATM    2  C   UNL     1     -11.283  13.086  66.780  1.00  0.00    -0.298 C  
HETATM    3  C   UNL     1     -11.147  14.554  66.363  1.00  0.00    -0.331 C  
ENDROOT
BRANCH   2   4
HETATM    4  N   UNL     1     -10.008  12.369  66.687  1.00  0.00    -0.221 NA 
HETATM    5  H   UNL     1      -9.627  12.189  67.616  1.00  0.00     0.000 HD 
BRANCH   4   6
HETATM    6  C   UNL     1     -10.090  11.129  65.911  1.00  0.00    -0.247 C  
BRANCH   6   7
HETATM    7  C   UNL     1      -9.607   9.920  66.738  1.00  0.00    -0.183 C  
HETATM    8  H   UNL     1      -8.127   9.552  67.971  1.00  0.00     0.000 HD 
HETATM    9  O   UNL     1      -8.425  10.297  67.462  1.00  0.00    -0.118 OA 
BRANCH   7  10
HETATM   10  C   UNL     1     -10.746   9.471  67.671  1.00  0.00    -0.250 C  
BRANCH  10  11
HETATM   11  O   UNL     1     -10.313   9.501  69.033  1.00  0.00    -0.192 OA 
BRANCH  11  12
HETATM   12  C   UNL     1     -10.897   8.576  69.866  1.00  0.00    -0.205 A  
HETATM   13  C   UNL     1     -10.576   7.208  69.881  1.00  0.00    -0.246 A  
HETATM   14  C   UNL     1     -11.185   6.327  70.777  1.00  0.00    -0.387 A  
HETATM   15  C   UNL     1     -12.133   6.778  71.697  1.00  0.00    -0.404 A  
HETATM   16  C   UNL     1     -12.442   8.139  71.686  1.00  0.00    -0.319 A  
HETATM   17  C   UNL     1     -11.851   9.043  70.800  1.00  0.00    -0.251 A  
HETATM   18  C   UNL     1     -12.412  10.323  71.088  1.00  0.00    -0.495 A  
HETATM   19  C   UNL     1     -13.306  10.174  72.122  1.00  0.00    -0.328 A  
HETATM   20  N   UNL     1     -13.317   8.852  72.476  1.00  0.00    -0.584 NA 
HETATM   21  H   UNL     1     -13.890   8.453  73.220  1.00  0.00     0.000 HD 
ENDBRANCH  11  12
ENDBRANCH  10  11
ENDBRANCH   7  10
ENDBRANCH   6   7
ENDBRANCH   4   6
ENDBRANCH   2   4
TORSDOF 6
ENDMDL
MODEL      147
REMARK 921   NORMALIZED FREE ENERGY PREDICTED BY IDOCK:   -4.20 KCAL/MOL
REMARK 922        TOTAL FREE ENERGY PREDICTED BY IDOCK:   -6.05 KCAL/MOL
REMARK 923 INTER-LIGAND FREE ENERGY PREDICTED BY IDOCK:   -5.24 KCAL/MOL
REMARK 924 INTRA-LIGAND FREE ENERGY PREDICTED BY IDOCK:   -0.81 KCAL/MOL
REMARK 927      BINDING AFFINITY PREDICTED BY RF-SCORE:    0.00 PKD
ROOT
HETATM    1  C   UNL     1      -7.542  10.259  67.971  1.00  0.00    -0.088 C  
HETATM    2  C   UNL     1      -8.766  10.260  67.053  1.00  0.00    -0.129 C  
HETATM    3  C   UNL     1      -8.808   8.951  66.258  1.00  0.00    -0.187 C  
ENDROOT
BRANCH   2   4
HETATM    4  N   UNL     1      -9.961  10.438  67.882  1.00  0.00    -0.163 NA 
HETATM    5  H   UNL     1     -10.073   9.655  68.526  1.00  0.00     0.000 HD 
BRANCH   4   6
HETATM    6  C   UNL     1      -9.988  11.712  68.605  1.00  0.00    -0.184 C  
BRANCH   6   7
HETATM    7  C   UNL     1     -11.421  12.271  68.698  1.00  0.00    -0.307 C  
HETATM    8  H   UNL     1     -13.064  12.131  67.637  1.00  0.00     0.000 HD 
HETATM    9  O   UNL     1     -12.181  11.787  67.580  1.00  0.00    -0.526 OA 
BRANCH   7  10
HETATM   10  C   UNL     1     -12.032  11.849  70.046  1.00  0.00    -0.332 C  
BRANCH  10  11
HETATM   11  O   UNL     1     -11.331  10.724  70.579  1.00  0.00    -0.307 OA 
BRANCH  11  12
HETATM   12  C   UNL     1     -12.114   9.675  70.999  1.00  0.00    -0.337 A  
HETATM   13  C   UNL     1     -13.384   9.817  71.583  1.00  0.00    -0.487 A  
HETATM   14  C   UNL     1     -14.142   8.706  71.958  1.00  0.00    -0.523 A  
HETATM   15  C   UNL     1     -13.664   7.409  71.760  1.00  0.00    -0.417 A  
HETATM   16  C   UNL     1     -12.407   7.272  71.170  1.00  0.00    -0.345 A  
HETATM   17  C   UNL     1     -11.626   8.364  70.786  1.00  0.00    -0.252 A  
HETATM   18  C   UNL     1     -10.425   7.833  70.230  1.00  0.00    -0.225 A  
HETATM   19  C   UNL     1     -10.502   6.461  70.280  1.00  0.00    -0.219 A  
HETATM   20  N   UNL     1     -11.703   6.132  70.848  1.00  0.00    -0.212 NA 
HETATM   21  H   UNL     1     -12.029   5.179  71.010  1.00  0.00     0.000 HD 
ENDBRANCH  11  12
ENDBRANCH  10  11
ENDBRANCH   7  10
ENDBRANCH   6   7
ENDBRANCH   4   6
ENDBRANCH   2   4
TORSDOF 6
ENDMDL
MODEL      148
REMARK 921   NORMALIZED FREE ENERGY PREDICTED BY IDOCK:   -4.18 KCAL/MOL
REMARK 922        TOTAL FREE ENERGY PREDICTED BY IDOCK:   -6.02 KCAL/MOL
REMARK 923 INTER-LIGAND FREE ENERGY PREDICTED BY IDOCK:   -5.50 KCAL/MOL
REMARK 924 INTRA-LIGAND FREE ENERGY PREDICTED BY IDOCK:   -0.52 KCAL/MOL
REMARK 927      BINDING AFFINITY PREDICTED BY RF-SCORE:    0.00 PKD
ROOT
HETATM    1  C   UNL     1      -6.527  17.089  67.677  1.00  0.00    -0.164 C  
HETATM    2  C   UNL     1      -7.229  15.818  68.159  1.00  0.00    -0.118 C  
HETATM    3  C   UNL     1      -6.588  15.346  69.468  1.00  0.00    -0.166 C  
ENDROOT
BRANCH   2   4
HETATM    4  N   UNL     1      -8.655  16.115  68.322  1.00  0.00    -0.177 NA 
HETATM    5  H   UNL     1      -8.896  16.197  69.310  1.00  0.00     0.000 HD 
BRANCH   4   6
HETATM    6  C   UNL     1      -9.095  17.299  67.581  1.00  0.00    -0.228 C  
BRANCH   6   7
HETATM    7  C   UNL     1     -10.313  16.981  66.691  1.00  0.00    -0.299 C  
HETATM    8  H   UNL     1     -10.998  17.597  64.961  1.00  0.00     0.000 HD 
HETATM    9  O   UNL     1     -10.248  17.793  65.509  1.00  0.00    -0.589 OA 
BRANCH   7  10
HETATM   10  C   UNL     1     -10.311  15.476  66.367  1.00  0.00    -0.296 C  
BRANCH  10  11
HETATM   11  O   UNL     1     -11.611  14.921  66.570  1.00  0.00    -0.339 OA 
BRANCH  11  12
HETATM   12  C   UNL     1     -11.772  14.174  67.712  1.00  0.00    -0.373 A  
HETATM   13  C   UNL     1     -12.081  14.709  68.974  1.00  0.00    -0.270 A  
HETATM   14  C   UNL     1     -12.262  13.888  70.089  1.00  0.00    -0.425 A  
HETATM   15  C   UNL     1     -12.148  12.501  69.987  1.00  0.00    -0.337 A  
HETATM   16  C   UNL     1     -11.851  11.972  68.730  1.00  0.00    -0.302 A  
HETATM   17  C   UNL     1     -11.663  12.768  67.598  1.00  0.00    -0.422 A  
HETATM   18  C   UNL     1     -11.380  11.881  66.517  1.00  0.00    -0.403 A  
HETATM   19  C   UNL     1     -11.409  10.595  67.003  1.00  0.00     0.107 A  
HETATM   20  N   UNL     1     -11.695  10.660  68.339  1.00  0.00    -0.701 NA 
HETATM   21  H   UNL     1     -11.780   9.853  68.957  1.00  0.00     0.000 HD 
ENDBRANCH  11  12
ENDBRANCH  10  11
ENDBRANCH   7  10
ENDBRANCH   6   7
ENDBRANCH   4   6
ENDBRANCH   2   4
TORSDOF 6
ENDMDL
MODEL      149
REMARK 921   NORMALIZED FREE ENERGY PREDICTED BY IDOCK:   -4.17 KCAL/MOL
REMARK 922        TOTAL FREE ENERGY PREDICTED BY IDOCK:   -6.01 KCAL/MOL
REMARK 923 INTER-LIGAND FREE ENERGY PREDICTED BY IDOCK:   -5.55 KCAL/MOL
REMARK 924 INTRA-LIGAND FREE ENERGY PREDICTED BY IDOCK:   -0.46 KCAL/MOL
REMARK 927      BINDING AFFINITY PREDICTED BY RF-SCORE:    0.00 PKD
ROOT
HETATM    1  C   UNL     1     -11.683  15.453  72.305  1.00  0.00    -0.564 C  
HETATM    2  C   UNL     1     -12.784  14.768  71.493  1.00  0.00    -0.330 C  
HETATM    3  C   UNL     1     -14.154  15.226  72.002  1.00  0.00    -0.662 C  
ENDROOT
BRANCH   2   4
HETATM    4  N   UNL     1     -12.585  15.100  70.079  1.00  0.00    -0.574 NA 
HETATM    5  H   UNL     1     -13.420  15.539  69.691  1.00  0.00     0.000 HD 
BRANCH   4   6
HETATM    6  C   UNL     1     -11.402  15.928  69.833  1.00  0.00    -0.348 C  
BRANCH   6   7
HETATM    7  C   UNL     1     -11.251  16.254  68.334  1.00  0.00    -0.349 C  
HETATM    8  H   UNL     1     -10.889  17.858  67.266  1.00  0.00     0.000 HD 
HETATM    9  O   UNL     1     -10.982  17.657  68.189  1.00  0.00    -0.289 OA 
BRANCH   7  10
HETATM   10  C   UNL     1     -10.126  15.380  67.748  1.00  0.00    -0.227 C  
BRANCH  10  11
HETATM   11  O   UNL     1      -8.997  16.186  67.408  1.00  0.00    -0.188 OA 
BRANCH  11  12
HETATM   12  C   UNL     1      -7.969  16.191  68.322  1.00  0.00    -0.152 A  
HETATM   13  C   UNL     1      -7.408  15.035  68.891  1.00  0.00    -0.139 A  
HETATM   14  C   UNL     1      -6.342  15.110  69.790  1.00  0.00    -0.154 A  
HETATM   15  C   UNL     1      -5.792  16.341  70.152  1.00  0.00    -0.159 A  
HETATM   16  C   UNL     1      -6.345  17.486  69.578  1.00  0.00    -0.230 A  
HETATM   17  C   UNL     1      -7.412  17.442  68.677  1.00  0.00    -0.263 A  
HETATM   18  C   UNL     1      -7.695  18.792  68.313  1.00  0.00    -0.326 A  
HETATM   19  C   UNL     1      -6.812  19.607  68.979  1.00  0.00    -0.343 A  
HETATM   20  N   UNL     1      -6.000  18.810  69.740  1.00  0.00    -0.257 NA 
HETATM   21  H   UNL     1      -5.248  19.148  70.340  1.00  0.00     0.000 HD 
ENDBRANCH  11  12
ENDBRANCH  10  11
ENDBRANCH   7  10
ENDBRANCH   6   7
ENDBRANCH   4   6
ENDBRANCH   2   4
TORSDOF 6
ENDMDL
MODEL      150
REMARK 921   NORMALIZED FREE ENERGY PREDICTED BY IDOCK:   -4.17 KCAL/MOL
REMARK 922        TOTAL FREE ENERGY PREDICTED BY IDOCK:   -6.01 KCAL/MOL
REMARK 923 INTER-LIGAND FREE ENERGY PREDICTED BY IDOCK:   -5.51 KCAL/MOL
REMARK 924 INTRA-LIGAND FREE ENERGY PREDICTED BY IDOCK:   -0.49 KCAL/MOL
REMARK 927      BINDING AFFINITY PREDICTED BY RF-SCORE:    0.00 PKD
ROOT
HETATM    1  C   UNL     1     -10.525  17.470  67.505  1.00  0.00    -0.355 C  
HETATM    2  C   UNL     1     -10.565  16.016  67.983  1.00  0.00    -0.295 C  
HETATM    3  C   UNL     1     -11.764  15.819  68.915  1.00  0.00    -0.404 C  
ENDROOT
BRANCH   2   4
HETATM    4  N   UNL     1     -10.638  15.148  66.803  1.00  0.00    -0.292 NA 
HETATM    5  H   UNL     1     -10.124  14.282  66.962  1.00  0.00     0.000 HD 
BRANCH   4   6
HETATM    6  C   UNL     1     -12.008  14.867  66.368  1.00  0.00    -0.064 C  
BRANCH   6   7
HETATM    7  C   UNL     1     -12.193  13.371  66.042  1.00  0.00    -0.437 C  
HETATM    8  H   UNL     1     -12.357  12.289  64.415  1.00  0.00     0.000 HD 
HETATM    9  O   UNL     1     -12.243  13.210  64.616  1.00  0.00    -0.382 OA 
BRANCH   7  10
HETATM   10  C   UNL     1     -11.039  12.577  66.680  1.00  0.00    -0.283 C  
BRANCH  10  11
HETATM   11  O   UNL     1     -11.448  11.236  66.952  1.00  0.00    -0.431 OA 
BRANCH  11  12
HETATM   12  C   UNL     1     -11.509  10.887  68.280  1.00  0.00    -0.305 A  
HETATM   13  C   UNL     1     -12.166  11.638  69.269  1.00  0.00    -0.228 A  
HETATM   14  C   UNL     1     -12.218  11.209  70.596  1.00  0.00    -0.492 A  
HETATM   15  C   UNL     1     -11.619  10.011  70.988  1.00  0.00    -0.476 A  
HETATM   16  C   UNL     1     -10.975   9.262  70.002  1.00  0.00    -0.229 A  
HETATM   17  C   UNL     1     -10.907   9.667  68.667  1.00  0.00    -0.203 A  
HETATM   18  C   UNL     1     -10.180   8.656  67.971  1.00  0.00    -0.261 A  
HETATM   19  C   UNL     1      -9.836   7.679  68.874  1.00  0.00    -0.164 A  
HETATM   20  N   UNL     1     -10.321   8.053  70.098  1.00  0.00    -0.211 NA 
HETATM   21  H   UNL     1     -10.214   7.514  70.957  1.00  0.00     0.000 HD 
ENDBRANCH  11  12
ENDBRANCH  10  11
ENDBRANCH   7  10
ENDBRANCH   6   7
ENDBRANCH   4   6
ENDBRANCH   2   4
TORSDOF 6
ENDMDL
MODEL      151
REMARK 921   NORMALIZED FREE ENERGY PREDICTED BY IDOCK:   -4.17 KCAL/MOL
REMARK 922        TOTAL FREE ENERGY PREDICTED BY IDOCK:   -6.00 KCAL/MOL
REMARK 923 INTER-LIGAND FREE ENERGY PREDICTED BY IDOCK:   -5.47 KCAL/MOL
REMARK 924 INTRA-LIGAND FREE ENERGY PREDICTED BY IDOCK:   -0.54 KCAL/MOL
REMARK 927      BINDING AFFINITY PREDICTED BY RF-SCORE:    0.00 PKD
ROOT
HETATM    1  C   UNL     1     -10.771   7.240  72.875  1.00  0.00    -0.365 C  
HETATM    2  C   UNL     1      -9.350   6.975  72.371  1.00  0.00    -0.135 C  
HETATM    3  C   UNL     1      -9.352   5.736  71.471  1.00  0.00    -0.163 C  
ENDROOT
BRANCH   2   4
HETATM    4  N   UNL     1      -8.886   8.170  71.659  1.00  0.00    -0.142 NA 
HETATM    5  H   UNL     1      -8.297   7.912  70.868  1.00  0.00     0.000 HD 
BRANCH   4   6
HETATM    6  C   UNL     1      -9.972   9.055  71.231  1.00  0.00    -0.311 C  
BRANCH   6   7
HETATM    7  C   UNL     1      -9.937   9.282  69.706  1.00  0.00    -0.199 C  
HETATM    8  H   UNL     1     -10.962   8.649  68.159  1.00  0.00     0.000 HD 
HETATM    9  O   UNL     1     -10.983   8.509  69.098  1.00  0.00    -0.090 OA 
BRANCH   7  10
HETATM   10  C   UNL     1     -10.085  10.789  69.426  1.00  0.00    -0.139 C  
BRANCH  10  11
HETATM   11  O   UNL     1     -11.440  11.102  69.097  1.00  0.00    -0.242 OA 
BRANCH  11  12
HETATM   12  C   UNL     1     -12.101  11.910  69.992  1.00  0.00    -0.291 A  
HETATM   13  C   UNL     1     -12.730  11.451  71.162  1.00  0.00    -0.479 A  
HETATM   14  C   UNL     1     -13.356  12.331  72.045  1.00  0.00    -0.491 A  
HETATM   15  C   UNL     1     -13.375  13.705  71.800  1.00  0.00    -0.469 A  
HETATM   16  C   UNL     1     -12.741  14.159  70.643  1.00  0.00    -0.321 A  
HETATM   17  C   UNL     1     -12.107  13.302  69.740  1.00  0.00    -0.355 A  
HETATM   18  C   UNL     1     -11.583  14.122  68.697  1.00  0.00    -0.352 A  
HETATM   19  C   UNL     1     -11.896  15.430  68.985  1.00  0.00    -0.335 A  
HETATM   20  N   UNL     1     -12.594  15.442  70.162  1.00  0.00    -0.589 NA 
HETATM   21  H   UNL     1     -12.953  16.281  70.618  1.00  0.00     0.000 HD 
ENDBRANCH  11  12
ENDBRANCH  10  11
ENDBRANCH   7  10
ENDBRANCH   6   7
ENDBRANCH   4   6
ENDBRANCH   2   4
TORSDOF 6
ENDMDL
MODEL      152
REMARK 921   NORMALIZED FREE ENERGY PREDICTED BY IDOCK:   -4.16 KCAL/MOL
REMARK 922        TOTAL FREE ENERGY PREDICTED BY IDOCK:   -6.00 KCAL/MOL
REMARK 923 INTER-LIGAND FREE ENERGY PREDICTED BY IDOCK:   -5.59 KCAL/MOL
REMARK 924 INTRA-LIGAND FREE ENERGY PREDICTED BY IDOCK:   -0.41 KCAL/MOL
REMARK 927      BINDING AFFINITY PREDICTED BY RF-SCORE:    0.00 PKD
ROOT
HETATM    1  C   UNL     1     -11.337  12.123  66.779  1.00  0.00    -0.398 C  
HETATM    2  C   UNL     1     -10.163  12.266  65.807  1.00  0.00    -0.255 C  
HETATM    3  C   UNL     1     -10.696  12.575  64.405  1.00  0.00    -0.379 C  
ENDROOT
BRANCH   2   4
HETATM    4  N   UNL     1      -9.282  13.326  66.306  1.00  0.00    -0.461 NA 
HETATM    5  H   UNL     1      -9.631  14.244  66.031  1.00  0.00     0.000 HD 
BRANCH   4   6
HETATM    6  C   UNL     1      -9.057  13.268  67.752  1.00  0.00    -0.202 C  
BRANCH   6   7
HETATM    7  C   UNL     1      -7.890  14.184  68.172  1.00  0.00    -0.142 C  
HETATM    8  H   UNL     1      -6.261  14.874  67.327  1.00  0.00     0.000 HD 
HETATM    9  O   UNL     1      -6.980  14.311  67.069  1.00  0.00    -0.053 OA 
BRANCH   7  10
HETATM   10  C   UNL     1      -8.460  15.542  68.618  1.00  0.00    -0.174 C  
BRANCH  10  11
HETATM   11  O   UNL     1      -7.647  16.609  68.127  1.00  0.00    -0.162 OA 
BRANCH  11  12
HETATM   12  C   UNL     1      -8.319  17.642  67.518  1.00  0.00    -0.218 A  
HETATM   13  C   UNL     1      -9.581  17.520  66.911  1.00  0.00    -0.279 A  
HETATM   14  C   UNL     1     -10.223  18.619  66.338  1.00  0.00    -0.461 A  
HETATM   15  C   UNL     1      -9.635  19.884  66.353  1.00  0.00    -0.537 A  
HETATM   16  C   UNL     1      -8.386  20.005  66.966  1.00  0.00    -0.323 A  
HETATM   17  C   UNL     1      -7.720  18.923  67.546  1.00  0.00    -0.251 A  
HETATM   18  C   UNL     1      -6.491  19.430  68.063  1.00  0.00    -0.252 A  
HETATM   19  C   UNL     1      -6.441  20.779  67.799  1.00  0.00    -0.331 A  
HETATM   20  N   UNL     1      -7.591  21.116  67.137  1.00  0.00    -0.710 NA 
HETATM   21  H   UNL     1      -7.824  22.056  66.817  1.00  0.00     0.000 HD 
ENDBRANCH  11  12
ENDBRANCH  10  11
ENDBRANCH   7  10
ENDBRANCH   6   7
ENDBRANCH   4   6
ENDBRANCH   2   4
TORSDOF 6
ENDMDL
MODEL      153
REMARK 921   NORMALIZED FREE ENERGY PREDICTED BY IDOCK:   -4.16 KCAL/MOL
REMARK 922        TOTAL FREE ENERGY PREDICTED BY IDOCK:   -5.99 KCAL/MOL
REMARK 923 INTER-LIGAND FREE ENERGY PREDICTED BY IDOCK:   -5.63 KCAL/MOL
REMARK 924 INTRA-LIGAND FREE ENERGY PREDICTED BY IDOCK:   -0.36 KCAL/MOL
REMARK 927      BINDING AFFINITY PREDICTED BY RF-SCORE:    0.00 PKD
ROOT
HETATM    1  C   UNL     1     -12.416  14.406  64.928  1.00  0.00    -0.368 C  
HETATM    2  C   UNL     1     -10.907  14.658  64.924  1.00  0.00    -0.419 C  
HETATM    3  C   UNL     1     -10.544  15.595  66.080  1.00  0.00    -0.336 C  
ENDROOT
BRANCH   2   4
HETATM    4  N   UNL     1     -10.225  13.365  65.030  1.00  0.00    -0.478 NA 
HETATM    5  H   UNL     1      -9.223  13.496  65.167  1.00  0.00     0.000 HD 
BRANCH   4   6
HETATM    6  C   UNL     1     -10.780  12.494  66.070  1.00  0.00    -0.262 C  
BRANCH   6   7
HETATM    7  C   UNL     1     -10.359  11.027  65.852  1.00  0.00    -0.257 C  
HETATM    8  H   UNL     1      -8.702  10.086  65.391  1.00  0.00     0.000 HD 
HETATM    9  O   UNL     1      -8.961  10.989  65.525  1.00  0.00    -0.201 OA 
BRANCH   7  10
HETATM   10  C   UNL     1     -10.683  10.224  67.125  1.00  0.00    -0.241 C  
BRANCH  10  11
HETATM   11  O   UNL     1     -10.313  10.965  68.288  1.00  0.00    -0.162 OA 
BRANCH  11  12
HETATM   12  C   UNL     1     -10.106  10.225  69.429  1.00  0.00    -0.235 A  
HETATM   13  C   UNL     1      -8.872   9.661  69.795  1.00  0.00    -0.224 A  
HETATM   14  C   UNL     1      -8.723   8.947  70.985  1.00  0.00    -0.276 A  
HETATM   15  C   UNL     1      -9.798   8.772  71.859  1.00  0.00    -0.395 A  
HETATM   16  C   UNL     1     -11.019   9.343  71.497  1.00  0.00    -0.359 A  
HETATM   17  C   UNL     1     -11.198  10.061  70.313  1.00  0.00    -0.379 A  
HETATM   18  C   UNL     1     -12.561  10.482  70.292  1.00  0.00    -0.306 A  
HETATM   19  C   UNL     1     -13.165  10.027  71.440  1.00  0.00    -0.395 A  
HETATM   20  N   UNL     1     -12.226   9.341  72.162  1.00  0.00    -0.341 NA 
HETATM   21  H   UNL     1     -12.395   8.893  73.063  1.00  0.00     0.000 HD 
ENDBRANCH  11  12
ENDBRANCH  10  11
ENDBRANCH   7  10
ENDBRANCH   6   7
ENDBRANCH   4   6
ENDBRANCH   2   4
TORSDOF 6
ENDMDL
MODEL      154
REMARK 921   NORMALIZED FREE ENERGY PREDICTED BY IDOCK:   -4.13 KCAL/MOL
REMARK 922        TOTAL FREE ENERGY PREDICTED BY IDOCK:   -5.96 KCAL/MOL
REMARK 923 INTER-LIGAND FREE ENERGY PREDICTED BY IDOCK:   -5.43 KCAL/MOL
REMARK 924 INTRA-LIGAND FREE ENERGY PREDICTED BY IDOCK:   -0.52 KCAL/MOL
REMARK 927      BINDING AFFINITY PREDICTED BY RF-SCORE:    0.00 PKD
ROOT
HETATM    1  C   UNL     1     -10.193  10.729  68.461  1.00  0.00    -0.192 C  
HETATM    2  C   UNL     1      -9.829  10.718  66.975  1.00  0.00    -0.187 C  
HETATM    3  C   UNL     1      -9.733   9.270  66.484  1.00  0.00    -0.305 C  
ENDROOT
BRANCH   2   4
HETATM    4  N   UNL     1     -10.850  11.477  66.247  1.00  0.00    -0.281 NA 
HETATM    5  H   UNL     1     -11.391  12.059  66.887  1.00  0.00     0.000 HD 
BRANCH   4   6
HETATM    6  C   UNL     1     -10.310  12.280  65.148  1.00  0.00    -0.286 C  
BRANCH   6   7
HETATM    7  C   UNL     1     -11.438  12.952  64.340  1.00  0.00    -0.357 C  
HETATM    8  H   UNL     1     -13.007  12.346  63.332  1.00  0.00     0.000 HD 
HETATM    9  O   UNL     1     -12.312  11.933  63.829  1.00  0.00    -0.458 OA 
BRANCH   7  10
HETATM   10  C   UNL     1     -12.174  13.951  65.251  1.00  0.00    -0.433 C  
BRANCH  10  11
HETATM   11  O   UNL     1     -11.328  15.060  65.559  1.00  0.00    -0.347 OA 
BRANCH  11  12
HETATM   12  C   UNL     1     -11.070  15.262  66.894  1.00  0.00    -0.288 A  
HETATM   13  C   UNL     1     -11.516  14.418  67.925  1.00  0.00    -0.346 A  
HETATM   14  C   UNL     1     -11.190  14.665  69.260  1.00  0.00    -0.306 A  
HETATM   15  C   UNL     1     -10.402  15.760  69.618  1.00  0.00    -0.290 A  
HETATM   16  C   UNL     1      -9.952  16.590  68.590  1.00  0.00    -0.248 A  
HETATM   17  C   UNL     1     -10.263  16.369  67.247  1.00  0.00    -0.278 A  
HETATM   18  C   UNL     1      -9.633  17.412  66.505  1.00  0.00    -0.292 A  
HETATM   19  C   UNL     1      -8.962  18.221  67.392  1.00  0.00    -0.257 A  
HETATM   20  N   UNL     1      -9.160  17.716  68.648  1.00  0.00    -0.281 NA 
HETATM   21  H   UNL     1      -8.776  18.116  69.504  1.00  0.00     0.000 HD 
ENDBRANCH  11  12
ENDBRANCH  10  11
ENDBRANCH   7  10
ENDBRANCH   6   7
ENDBRANCH   4   6
ENDBRANCH   2   4
TORSDOF 6
ENDMDL
MODEL      155
REMARK 921   NORMALIZED FREE ENERGY PREDICTED BY IDOCK:   -4.13 KCAL/MOL
REMARK 922        TOTAL FREE ENERGY PREDICTED BY IDOCK:   -5.96 KCAL/MOL
REMARK 923 INTER-LIGAND FREE ENERGY PREDICTED BY IDOCK:   -5.47 KCAL/MOL
REMARK 924 INTRA-LIGAND FREE ENERGY PREDICTED BY IDOCK:   -0.49 KCAL/MOL
REMARK 927      BINDING AFFINITY PREDICTED BY RF-SCORE:    0.00 PKD
ROOT
HETATM    1  C   UNL     1     -10.756  19.084  65.712  1.00  0.00    -0.350 C  
HETATM    2  C   UNL     1      -9.570  19.978  66.084  1.00  0.00    -0.373 C  
HETATM    3  C   UNL     1      -9.756  20.503  67.511  1.00  0.00    -0.554 C  
ENDROOT
BRANCH   2   4
HETATM    4  N   UNL     1      -8.341  19.191  65.944  1.00  0.00    -0.440 NA 
HETATM    5  H   UNL     1      -7.629  19.722  65.442  1.00  0.00     0.000 HD 
BRANCH   4   6
HETATM    6  C   UNL     1      -7.816  18.694  67.218  1.00  0.00    -0.232 C  
BRANCH   6   7
HETATM    7  C   UNL     1      -7.636  17.163  67.188  1.00  0.00    -0.174 C  
HETATM    8  H   UNL     1      -6.476  15.859  68.080  1.00  0.00     0.000 HD 
HETATM    9  O   UNL     1      -6.586  16.801  68.099  1.00  0.00    -0.138 OA 
BRANCH   7  10
HETATM   10  C   UNL     1      -8.977  16.499  67.549  1.00  0.00    -0.196 C  
BRANCH  10  11
HETATM   11  O   UNL     1      -8.760  15.362  68.387  1.00  0.00    -0.162 OA 
BRANCH  11  12
HETATM   12  C   UNL     1      -9.886  14.811  68.951  1.00  0.00    -0.222 A  
HETATM   13  C   UNL     1     -10.531  15.318  70.092  1.00  0.00    -0.252 A  
HETATM   14  C   UNL     1     -11.691  14.727  70.595  1.00  0.00    -0.353 A  
HETATM   15  C   UNL     1     -12.257  13.611  69.976  1.00  0.00    -0.395 A  
HETATM   16  C   UNL     1     -11.619  13.116  68.838  1.00  0.00    -0.311 A  
HETATM   17  C   UNL     1     -10.457  13.686  68.313  1.00  0.00    -0.253 A  
HETATM   18  C   UNL     1     -10.108  12.916  67.163  1.00  0.00    -0.243 A  
HETATM   19  C   UNL     1     -11.048  11.923  67.014  1.00  0.00    -0.302 A  
HETATM   20  N   UNL     1     -11.956  12.053  68.029  1.00  0.00    -0.521 NA 
HETATM   21  H   UNL     1     -12.767  11.449  68.167  1.00  0.00     0.000 HD 
ENDBRANCH  11  12
ENDBRANCH  10  11
ENDBRANCH   7  10
ENDBRANCH   6   7
ENDBRANCH   4   6
ENDBRANCH   2   4
TORSDOF 6
ENDMDL
MODEL      156
REMARK 921   NORMALIZED FREE ENERGY PREDICTED BY IDOCK:   -4.12 KCAL/MOL
REMARK 922        TOTAL FREE ENERGY PREDICTED BY IDOCK:   -5.94 KCAL/MOL
REMARK 923 INTER-LIGAND FREE ENERGY PREDICTED BY IDOCK:   -5.12 KCAL/MOL
REMARK 924 INTRA-LIGAND FREE ENERGY PREDICTED BY IDOCK:   -0.82 KCAL/MOL
REMARK 927      BINDING AFFINITY PREDICTED BY RF-SCORE:    0.00 PKD
ROOT
HETATM    1  C   UNL     1      -6.387  12.476  67.464  1.00  0.00    -0.154 C  
HETATM    2  C   UNL     1      -7.253  11.233  67.681  1.00  0.00    -0.092 C  
HETATM    3  C   UNL     1      -7.160  10.796  69.145  1.00  0.00    -0.101 C  
ENDROOT
BRANCH   2   4
HETATM    4  N   UNL     1      -8.629  11.560  67.292  1.00  0.00    -0.145 NA 
HETATM    5  H   UNL     1      -8.687  12.516  66.942  1.00  0.00     0.000 HD 
BRANCH   4   6
HETATM    6  C   UNL     1      -9.204  10.618  66.328  1.00  0.00    -0.170 C  
BRANCH   6   7
HETATM    7  C   UNL     1     -10.272   9.724  66.990  1.00  0.00    -0.229 C  
HETATM    8  H   UNL     1     -10.284   8.023  67.965  1.00  0.00     0.000 HD 
HETATM    9  O   UNL     1      -9.626   8.574  67.557  1.00  0.00    -0.145 OA 
BRANCH   7  10
HETATM   10  C   UNL     1     -11.025  10.552  68.047  1.00  0.00    -0.290 C  
BRANCH  10  11
HETATM   11  O   UNL     1     -10.521  10.268  69.353  1.00  0.00    -0.206 OA 
BRANCH  11  12
HETATM   12  C   UNL     1     -11.468  10.032  70.322  1.00  0.00    -0.300 A  
HETATM   13  C   UNL     1     -12.305  11.018  70.870  1.00  0.00    -0.503 A  
HETATM   14  C   UNL     1     -13.270  10.704  71.829  1.00  0.00    -0.526 A  
HETATM   15  C   UNL     1     -13.441   9.392  72.274  1.00  0.00    -0.539 A  
HETATM   16  C   UNL     1     -12.615   8.413  71.720  1.00  0.00    -0.342 A  
HETATM   17  C   UNL     1     -11.641   8.698  70.761  1.00  0.00    -0.273 A  
HETATM   18  C   UNL     1     -11.008   7.460  70.441  1.00  0.00    -0.269 A  
HETATM   19  C   UNL     1     -11.602   6.472  71.190  1.00  0.00    -0.335 A  
HETATM   20  N   UNL     1     -12.571   7.057  71.958  1.00  0.00    -0.504 NA 
HETATM   21  H   UNL     1     -13.175   6.559  72.613  1.00  0.00     0.000 HD 
ENDBRANCH  11  12
ENDBRANCH  10  11
ENDBRANCH   7  10
ENDBRANCH   6   7
ENDBRANCH   4   6
ENDBRANCH   2   4
TORSDOF 6
ENDMDL
MODEL      157
REMARK 921   NORMALIZED FREE ENERGY PREDICTED BY IDOCK:   -4.11 KCAL/MOL
REMARK 922        TOTAL FREE ENERGY PREDICTED BY IDOCK:   -5.93 KCAL/MOL
REMARK 923 INTER-LIGAND FREE ENERGY PREDICTED BY IDOCK:   -5.40 KCAL/MOL
REMARK 924 INTRA-LIGAND FREE ENERGY PREDICTED BY IDOCK:   -0.53 KCAL/MOL
REMARK 927      BINDING AFFINITY PREDICTED BY RF-SCORE:    0.00 PKD
ROOT
HETATM    1  C   UNL     1     -11.453   9.081  71.771  1.00  0.00    -0.442 C  
HETATM    2  C   UNL     1     -10.973  10.172  70.811  1.00  0.00    -0.242 C  
HETATM    3  C   UNL     1     -10.361   9.523  69.567  1.00  0.00    -0.229 C  
ENDROOT
BRANCH   2   4
HETATM    4  N   UNL     1     -12.118  11.026  70.479  1.00  0.00    -0.348 NA 
HETATM    5  H   UNL     1     -12.804  10.510  69.928  1.00  0.00     0.000 HD 
BRANCH   4   6
HETATM    6  C   UNL     1     -12.749  11.641  71.649  1.00  0.00    -0.270 C  
BRANCH   6   7
HETATM    7  C   UNL     1     -13.351  13.017  71.300  1.00  0.00    -0.006 C  
HETATM    8  H   UNL     1     -14.376  14.392  72.250  1.00  0.00     0.000 HD 
HETATM    9  O   UNL     1     -14.006  13.545  72.464  1.00  0.00    -0.701 OA 
BRANCH   7  10
HETATM   10  C   UNL     1     -12.225  13.937  70.795  1.00  0.00    -0.369 C  
BRANCH  10  11
HETATM   11  O   UNL     1     -12.583  14.516  69.539  1.00  0.00    -0.200 OA 
BRANCH  11  12
HETATM   12  C   UNL     1     -11.618  14.466  68.561  1.00  0.00    -0.314 A  
HETATM   13  C   UNL     1     -11.436  13.386  67.680  1.00  0.00    -0.353 A  
HETATM   14  C   UNL     1     -10.455  13.414  66.687  1.00  0.00    -0.280 A  
HETATM   15  C   UNL     1      -9.622  14.522  66.529  1.00  0.00    -0.311 A  
HETATM   16  C   UNL     1      -9.812  15.597  67.399  1.00  0.00    -0.225 A  
HETATM   17  C   UNL     1     -10.783  15.597  68.402  1.00  0.00    -0.271 A  
HETATM   18  C   UNL     1     -10.675  16.850  69.076  1.00  0.00    -0.308 A  
HETATM   19  C   UNL     1      -9.668  17.570  68.477  1.00  0.00    -0.319 A  
HETATM   20  N   UNL     1      -9.154  16.806  67.465  1.00  0.00    -0.209 NA 
HETATM   21  H   UNL     1      -8.393  17.091  66.848  1.00  0.00     0.000 HD 
ENDBRANCH  11  12
ENDBRANCH  10  11
ENDBRANCH   7  10
ENDBRANCH   6   7
ENDBRANCH   4   6
ENDBRANCH   2   4
TORSDOF 6
ENDMDL
MODEL      158
REMARK 921   NORMALIZED FREE ENERGY PREDICTED BY IDOCK:   -4.11 KCAL/MOL
REMARK 922        TOTAL FREE ENERGY PREDICTED BY IDOCK:   -5.92 KCAL/MOL
REMARK 923 INTER-LIGAND FREE ENERGY PREDICTED BY IDOCK:   -5.18 KCAL/MOL
REMARK 924 INTRA-LIGAND FREE ENERGY PREDICTED BY IDOCK:   -0.74 KCAL/MOL
REMARK 927      BINDING AFFINITY PREDICTED BY RF-SCORE:    0.00 PKD
ROOT
HETATM    1  C   UNL     1     -10.870   7.368  67.425  1.00  0.00    -0.299 C  
HETATM    2  C   UNL     1     -10.331   8.775  67.157  1.00  0.00    -0.293 C  
HETATM    3  C   UNL     1     -11.100   9.787  68.013  1.00  0.00    -0.168 C  
ENDROOT
BRANCH   2   4
HETATM    4  N   UNL     1      -8.896   8.781  67.456  1.00  0.00    -0.134 NA 
HETATM    5  H   UNL     1      -8.360   8.440  66.658  1.00  0.00     0.000 HD 
BRANCH   4   6
HETATM    6  C   UNL     1      -8.396  10.085  67.898  1.00  0.00    -0.117 C  
BRANCH   6   7
HETATM    7  C   UNL     1      -7.356  10.648  66.908  1.00  0.00    -0.114 C  
HETATM    8  H   UNL     1      -5.856   9.925  65.871  1.00  0.00     0.000 HD 
HETATM    9  O   UNL     1      -6.497   9.579  66.480  1.00  0.00    -0.065 OA 
BRANCH   7  10
HETATM   10  C   UNL     1      -8.097  11.308  65.731  1.00  0.00     0.111 C  
BRANCH  10  11
HETATM   11  O   UNL     1      -9.189  12.094  66.210  1.00  0.00    -0.220 OA 
BRANCH  11  12
HETATM   12  C   UNL     1     -10.162  12.392  65.285  1.00  0.00    -0.282 A  
HETATM   13  C   UNL     1     -10.852  11.435  64.522  1.00  0.00    -0.375 A  
HETATM   14  C   UNL     1     -11.853  11.805  63.622  1.00  0.00    -0.498 A  
HETATM   15  C   UNL     1     -12.209  13.144  63.452  1.00  0.00    -0.521 A  
HETATM   16  C   UNL     1     -11.529  14.091  64.219  1.00  0.00    -0.297 A  
HETATM   17  C   UNL     1     -10.523  13.751  65.126  1.00  0.00    -0.399 A  
HETATM   18  C   UNL     1     -10.071  14.971  65.712  1.00  0.00    -0.367 A  
HETATM   19  C   UNL     1     -10.801  16.001  65.167  1.00  0.00    -0.395 A  
HETATM   20  N   UNL     1     -11.678  15.460  64.267  1.00  0.00    -0.750 NA 
HETATM   21  H   UNL     1     -12.348  15.994  63.712  1.00  0.00     0.000 HD 
ENDBRANCH  11  12
ENDBRANCH  10  11
ENDBRANCH   7  10
ENDBRANCH   6   7
ENDBRANCH   4   6
ENDBRANCH   2   4
TORSDOF 6
ENDMDL
MODEL      159
REMARK 921   NORMALIZED FREE ENERGY PREDICTED BY IDOCK:   -4.11 KCAL/MOL
REMARK 922        TOTAL FREE ENERGY PREDICTED BY IDOCK:   -5.92 KCAL/MOL
REMARK 923 INTER-LIGAND FREE ENERGY PREDICTED BY IDOCK:   -5.63 KCAL/MOL
REMARK 924 INTRA-LIGAND FREE ENERGY PREDICTED BY IDOCK:   -0.29 KCAL/MOL
REMARK 927      BINDING AFFINITY PREDICTED BY RF-SCORE:    0.00 PKD
ROOT
HETATM    1  C   UNL     1     -10.631   7.844  70.130  1.00  0.00    -0.237 C  
HETATM    2  C   UNL     1     -10.135   9.012  70.986  1.00  0.00    -0.282 C  
HETATM    3  C   UNL     1      -8.710   8.723  71.466  1.00  0.00    -0.274 C  
ENDROOT
BRANCH   2   4
HETATM    4  N   UNL     1     -10.206  10.234  70.180  1.00  0.00    -0.424 NA 
HETATM    5  H   UNL     1      -9.271  10.544  69.912  1.00  0.00     0.000 HD 
BRANCH   4   6
HETATM    6  C   UNL     1     -11.067  10.110  69.002  1.00  0.00    -0.205 C  
BRANCH   6   7
HETATM    7  C   UNL     1     -12.282  11.055  69.096  1.00  0.00    -0.159 C  
HETATM    8  H   UNL     1     -13.744  11.355  70.368  1.00  0.00     0.000 HD 
HETATM    9  O   UNL     1     -12.996  10.773  70.309  1.00  0.00    -0.257 OA 
BRANCH   7  10
HETATM   10  C   UNL     1     -11.783  12.510  69.037  1.00  0.00    -0.318 C  
BRANCH  10  11
HETATM   11  O   UNL     1     -10.750  12.643  68.059  1.00  0.00    -0.213 OA 
BRANCH  11  12
HETATM   12  C   UNL     1     -11.171  12.914  66.778  1.00  0.00    -0.298 A  
HETATM   13  C   UNL     1     -12.049  12.101  66.042  1.00  0.00    -0.101 A  
HETATM   14  C   UNL     1     -12.462  12.453  64.756  1.00  0.00    -0.480 A  
HETATM   15  C   UNL     1     -12.019  13.633  64.155  1.00  0.00    -0.488 A  
HETATM   16  C   UNL     1     -11.154  14.443  64.893  1.00  0.00    -0.398 A  
HETATM   17  C   UNL     1     -10.724  14.116  66.181  1.00  0.00    -0.297 A  
HETATM   18  C   UNL     1      -9.862  15.172  66.603  1.00  0.00    -0.265 A  
HETATM   19  C   UNL     1      -9.795  16.099  65.590  1.00  0.00    -0.255 A  
HETATM   20  N   UNL     1     -10.579  15.650  64.562  1.00  0.00    -0.682 NA 
HETATM   21  H   UNL     1     -10.717  16.140  63.678  1.00  0.00     0.000 HD 
ENDBRANCH  11  12
ENDBRANCH  10  11
ENDBRANCH   7  10
ENDBRANCH   6   7
ENDBRANCH   4   6
ENDBRANCH   2   4
TORSDOF 6
ENDMDL
MODEL      160
REMARK 921   NORMALIZED FREE ENERGY PREDICTED BY IDOCK:   -4.10 KCAL/MOL
REMARK 922        TOTAL FREE ENERGY PREDICTED BY IDOCK:   -5.91 KCAL/MOL
REMARK 923 INTER-LIGAND FREE ENERGY PREDICTED BY IDOCK:   -5.09 KCAL/MOL
REMARK 924 INTRA-LIGAND FREE ENERGY PREDICTED BY IDOCK:   -0.82 KCAL/MOL
REMARK 927      BINDING AFFINITY PREDICTED BY RF-SCORE:    0.00 PKD
ROOT
HETATM    1  C   UNL     1     -11.510  14.285  64.817  1.00  0.00    -0.394 C  
HETATM    2  C   UNL     1     -12.334  13.009  64.634  1.00  0.00    -0.422 C  
HETATM    3  C   UNL     1     -11.612  12.071  63.662  1.00  0.00    -0.578 C  
ENDROOT
BRANCH   2   4
HETATM    4  N   UNL     1     -12.525  12.394  65.951  1.00  0.00    -0.462 NA 
HETATM    5  H   UNL     1     -12.082  11.476  65.988  1.00  0.00     0.000 HD 
BRANCH   4   6
HETATM    6  C   UNL     1     -12.070  13.234  67.061  1.00  0.00    -0.320 C  
BRANCH   6   7
HETATM    7  C   UNL     1     -11.325  12.401  68.123  1.00  0.00    -0.291 C  
HETATM    8  H   UNL     1     -11.781  10.940  69.348  1.00  0.00     0.000 HD 
HETATM    9  O   UNL     1     -12.240  11.453  68.695  1.00  0.00    -0.532 OA 
BRANCH   7  10
HETATM   10  C   UNL     1     -10.116  11.717  67.458  1.00  0.00    -0.192 C  
BRANCH  10  11
HETATM   11  O   UNL     1     -10.521  10.511  66.809  1.00  0.00    -0.239 OA 
BRANCH  11  12
HETATM   12  C   UNL     1      -9.504   9.684  66.394  1.00  0.00    -0.189 A  
HETATM   13  C   UNL     1      -8.307  10.130  65.810  1.00  0.00    -0.147 A  
HETATM   14  C   UNL     1      -7.300   9.237  65.441  1.00  0.00    -0.090 A  
HETATM   15  C   UNL     1      -7.446   7.864  65.645  1.00  0.00    -0.081 A  
HETATM   16  C   UNL     1      -8.632   7.425  66.235  1.00  0.00    -0.142 A  
HETATM   17  C   UNL     1      -9.657   8.295  66.613  1.00  0.00    -0.299 A  
HETATM   18  C   UNL     1     -10.692   7.488  67.172  1.00  0.00    -0.379 A  
HETATM   19  C   UNL     1     -10.281   6.176  67.129  1.00  0.00    -0.199 A  
HETATM   20  N   UNL     1      -9.036   6.149  66.562  1.00  0.00    -0.134 NA 
HETATM   21  H   UNL     1      -8.485   5.304  66.405  1.00  0.00     0.000 HD 
ENDBRANCH  11  12
ENDBRANCH  10  11
ENDBRANCH   7  10
ENDBRANCH   6   7
ENDBRANCH   4   6
ENDBRANCH   2   4
TORSDOF 6
ENDMDL
MODEL      161
REMARK 921   NORMALIZED FREE ENERGY PREDICTED BY IDOCK:   -4.09 KCAL/MOL
REMARK 922        TOTAL FREE ENERGY PREDICTED BY IDOCK:   -5.90 KCAL/MOL
REMARK 923 INTER-LIGAND FREE ENERGY PREDICTED BY IDOCK:   -5.35 KCAL/MOL
REMARK 924 INTRA-LIGAND FREE ENERGY PREDICTED BY IDOCK:   -0.56 KCAL/MOL
REMARK 927      BINDING AFFINITY PREDICTED BY RF-SCORE:    0.00 PKD
ROOT
HETATM    1  C   UNL     1     -11.302   8.048  72.483  1.00  0.00    -0.469 C  
HETATM    2  C   UNL     1     -12.579   7.907  71.652  1.00  0.00    -0.321 C  
HETATM    3  C   UNL     1     -13.197   9.291  71.428  1.00  0.00    -0.390 C  
ENDROOT
BRANCH   2   4
HETATM    4  N   UNL     1     -12.234   7.249  70.388  1.00  0.00    -0.567 NA 
HETATM    5  H   UNL     1     -12.083   7.939  69.652  1.00  0.00     0.000 HD 
BRANCH   4   6
HETATM    6  C   UNL     1     -11.088   6.343  70.495  1.00  0.00    -0.328 C  
BRANCH   6   7
HETATM    7  C   UNL     1     -10.031   6.652  69.414  1.00  0.00    -0.156 C  
HETATM    8  H   UNL     1      -8.564   5.677  68.554  1.00  0.00     0.000 HD 
HETATM    9  O   UNL     1      -9.214   5.487  69.219  1.00  0.00    -0.110 OA 
BRANCH   7  10
HETATM   10  C   UNL     1     -10.752   7.083  68.124  1.00  0.00    -0.188 C  
BRANCH  10  11
HETATM   11  O   UNL     1      -9.967   8.039  67.411  1.00  0.00    -0.172 OA 
BRANCH  11  12
HETATM   12  C   UNL     1     -10.453   9.325  67.403  1.00  0.00    -0.273 A  
HETATM   13  C   UNL     1     -11.090   9.940  68.495  1.00  0.00    -0.181 A  
HETATM   14  C   UNL     1     -11.531  11.263  68.429  1.00  0.00    -0.377 A  
HETATM   15  C   UNL     1     -11.350  12.026  67.275  1.00  0.00    -0.394 A  
HETATM   16  C   UNL     1     -10.707  11.416  66.196  1.00  0.00    -0.267 A  
HETATM   17  C   UNL     1     -10.256  10.095  66.232  1.00  0.00    -0.288 A  
HETATM   18  C   UNL     1      -9.661   9.832  64.963  1.00  0.00    -0.303 A  
HETATM   19  C   UNL     1      -9.755  10.974  64.203  1.00  0.00    -0.285 A  
HETATM   20  N   UNL     1     -10.387  11.925  64.957  1.00  0.00    -0.277 NA 
HETATM   21  H   UNL     1     -10.592  12.875  64.645  1.00  0.00     0.000 HD 
ENDBRANCH  11  12
ENDBRANCH  10  11
ENDBRANCH   7  10
ENDBRANCH   6   7
ENDBRANCH   4   6
ENDBRANCH   2   4
TORSDOF 6
ENDMDL
MODEL      162
REMARK 921   NORMALIZED FREE ENERGY PREDICTED BY IDOCK:   -4.08 KCAL/MOL
REMARK 922        TOTAL FREE ENERGY PREDICTED BY IDOCK:   -5.89 KCAL/MOL
REMARK 923 INTER-LIGAND FREE ENERGY PREDICTED BY IDOCK:   -5.33 KCAL/MOL
REMARK 924 INTRA-LIGAND FREE ENERGY PREDICTED BY IDOCK:   -0.56 KCAL/MOL
REMARK 927      BINDING AFFINITY PREDICTED BY RF-SCORE:    0.00 PKD
ROOT
HETATM    1  C   UNL     1     -12.494  10.761  70.810  1.00  0.00    -0.481 C  
HETATM    2  C   UNL     1     -11.369  10.186  69.947  1.00  0.00    -0.275 C  
HETATM    3  C   UNL     1     -11.141   8.717  70.320  1.00  0.00    -0.240 C  
ENDROOT
BRANCH   2   4
HETATM    4  N   UNL     1     -11.744  10.343  68.539  1.00  0.00    -0.685 NA 
HETATM    5  H   UNL     1     -12.458  11.064  68.435  1.00  0.00     0.000 HD 
BRANCH   4   6
HETATM    6  C   UNL     1     -10.606  10.610  67.657  1.00  0.00    -0.246 C  
BRANCH   6   7
HETATM    7  C   UNL     1      -9.438  11.253  68.432  1.00  0.00    -0.192 C  
HETATM    8  H   UNL     1      -7.504  10.962  68.570  1.00  0.00     0.000 HD 
HETATM    9  O   UNL     1      -8.223  10.567  68.093  1.00  0.00    -0.109 OA 
BRANCH   7  10
HETATM   10  C   UNL     1      -9.378  12.752  68.085  1.00  0.00    -0.214 C  
BRANCH  10  11
HETATM   11  O   UNL     1     -10.688  13.252  67.814  1.00  0.00    -0.237 OA 
BRANCH  11  12
HETATM   12  C   UNL     1     -10.773  14.196  66.817  1.00  0.00    -0.286 A  
HETATM   13  C   UNL     1     -11.309  13.956  65.541  1.00  0.00    -0.310 A  
HETATM   14  C   UNL     1     -11.395  14.970  64.585  1.00  0.00    -0.357 A  
HETATM   15  C   UNL     1     -10.956  16.264  64.867  1.00  0.00    -0.321 A  
HETATM   16  C   UNL     1     -10.434  16.502  66.139  1.00  0.00    -0.294 A  
HETATM   17  C   UNL     1     -10.334  15.507  67.115  1.00  0.00    -0.272 A  
HETATM   18  C   UNL     1      -9.759  16.122  68.267  1.00  0.00    -0.220 A  
HETATM   19  C   UNL     1      -9.533  17.446  67.976  1.00  0.00    -0.281 A  
HETATM   20  N   UNL     1      -9.945  17.666  66.690  1.00  0.00    -0.313 NA 
HETATM   21  H   UNL     1      -9.897  18.564  66.208  1.00  0.00     0.000 HD 
ENDBRANCH  11  12
ENDBRANCH  10  11
ENDBRANCH   7  10
ENDBRANCH   6   7
ENDBRANCH   4   6
ENDBRANCH   2   4
TORSDOF 6
ENDMDL
MODEL      163
REMARK 921   NORMALIZED FREE ENERGY PREDICTED BY IDOCK:   -4.08 KCAL/MOL
REMARK 922        TOTAL FREE ENERGY PREDICTED BY IDOCK:   -5.88 KCAL/MOL
REMARK 923 INTER-LIGAND FREE ENERGY PREDICTED BY IDOCK:   -5.29 KCAL/MOL
REMARK 924 INTRA-LIGAND FREE ENERGY PREDICTED BY IDOCK:   -0.59 KCAL/MOL
REMARK 927      BINDING AFFINITY PREDICTED BY RF-SCORE:    0.00 PKD
ROOT
HETATM    1  C   UNL     1     -10.396   7.838  68.067  1.00  0.00    -0.263 C  
HETATM    2  C   UNL     1     -10.386   9.350  67.830  1.00  0.00    -0.238 C  
HETATM    3  C   UNL     1     -11.301  10.032  68.852  1.00  0.00    -0.123 C  
ENDROOT
BRANCH   2   4
HETATM    4  N   UNL     1      -9.002   9.821  67.931  1.00  0.00    -0.119 NA 
HETATM    5  H   UNL     1      -8.586   9.921  67.004  1.00  0.00     0.000 HD 
BRANCH   4   6
HETATM    6  C   UNL     1      -8.860  11.061  68.698  1.00  0.00    -0.164 C  
BRANCH   6   7
HETATM    7  C   UNL     1      -7.857  12.021  68.028  1.00  0.00    -0.145 C  
HETATM    8  H   UNL     1      -6.163  11.842  67.057  1.00  0.00     0.000 HD 
HETATM    9  O   UNL     1      -6.781  11.251  67.470  1.00  0.00    -0.066 OA 
BRANCH   7  10
HETATM   10  C   UNL     1      -8.598  12.847  66.962  1.00  0.00    -0.169 C  
BRANCH  10  11
HETATM   11  O   UNL     1     -10.007  12.637  67.061  1.00  0.00    -0.214 OA 
BRANCH  11  12
HETATM   12  C   UNL     1     -10.714  12.761  65.888  1.00  0.00    -0.270 A  
HETATM   13  C   UNL     1     -11.724  13.713  65.667  1.00  0.00    -0.360 A  
HETATM   14  C   UNL     1     -12.381  13.806  64.438  1.00  0.00    -0.389 A  
HETATM   15  C   UNL     1     -12.052  12.956  63.381  1.00  0.00    -0.610 A  
HETATM   16  C   UNL     1     -11.042  12.019  63.600  1.00  0.00    -0.452 A  
HETATM   17  C   UNL     1     -10.369  11.902  64.818  1.00  0.00    -0.323 A  
HETATM   18  C   UNL     1      -9.419  10.849  64.661  1.00  0.00    -0.285 A  
HETATM   19  C   UNL     1      -9.529  10.364  63.379  1.00  0.00    -0.315 A  
HETATM   20  N   UNL     1     -10.510  11.078  62.746  1.00  0.00    -0.786 NA 
HETATM   21  H   UNL     1     -10.806  10.933  61.781  1.00  0.00     0.000 HD 
ENDBRANCH  11  12
ENDBRANCH  10  11
ENDBRANCH   7  10
ENDBRANCH   6   7
ENDBRANCH   4   6
ENDBRANCH   2   4
TORSDOF 6
ENDMDL
MODEL      164
REMARK 921   NORMALIZED FREE ENERGY PREDICTED BY IDOCK:   -4.07 KCAL/MOL
REMARK 922        TOTAL FREE ENERGY PREDICTED BY IDOCK:   -5.88 KCAL/MOL
REMARK 923 INTER-LIGAND FREE ENERGY PREDICTED BY IDOCK:   -5.18 KCAL/MOL
REMARK 924 INTRA-LIGAND FREE ENERGY PREDICTED BY IDOCK:   -0.70 KCAL/MOL
REMARK 927      BINDING AFFINITY PREDICTED BY RF-SCORE:    0.00 PKD
ROOT
HETATM    1  C   UNL     1      -6.800   9.258  65.325  1.00  0.00    -0.081 C  
HETATM    2  C   UNL     1      -8.195   8.856  64.841  1.00  0.00    -0.160 C  
HETATM    3  C   UNL     1      -8.340   7.333  64.910  1.00  0.00    -0.022 C  
ENDROOT
BRANCH   2   4
HETATM    4  N   UNL     1      -9.186   9.540  65.678  1.00  0.00    -0.205 NA 
HETATM    5  H   UNL     1     -10.060   9.014  65.705  1.00  0.00     0.000 HD 
BRANCH   4   6
HETATM    6  C   UNL     1      -8.710   9.825  67.033  1.00  0.00    -0.135 C  
BRANCH   6   7
HETATM    7  C   UNL     1      -9.785   9.485  68.085  1.00  0.00    -0.147 C  
HETATM    8  H   UNL     1      -9.801   8.765  69.908  1.00  0.00     0.000 HD 
HETATM    9  O   UNL     1      -9.139   8.974  69.261  1.00  0.00    -0.141 OA 
BRANCH   7  10
HETATM   10  C   UNL     1     -10.612  10.751  68.376  1.00  0.00    -0.197 C  
BRANCH  10  11
HETATM   11  O   UNL     1     -11.455  11.060  67.266  1.00  0.00    -0.470 OA 
BRANCH  11  12
HETATM   12  C   UNL     1     -11.501  12.385  66.900  1.00  0.00    -0.360 A  
HETATM   13  C   UNL     1     -11.233  13.457  67.768  1.00  0.00    -0.306 A  
HETATM   14  C   UNL     1     -11.266  14.780  67.322  1.00  0.00    -0.351 A  
HETATM   15  C   UNL     1     -11.562  15.084  65.993  1.00  0.00    -0.158 A  
HETATM   16  C   UNL     1     -11.817  14.017  65.131  1.00  0.00    -0.365 A  
HETATM   17  C   UNL     1     -11.793  12.684  65.549  1.00  0.00    -0.479 A  
HETATM   18  C   UNL     1     -12.100  11.891  64.403  1.00  0.00    -0.305 A  
HETATM   19  C   UNL     1     -12.292  12.739  63.337  1.00  0.00    -0.437 A  
HETATM   20  N   UNL     1     -12.119  14.020  63.787  1.00  0.00    -0.857 NA 
HETATM   21  H   UNL     1     -12.201  14.856  63.209  1.00  0.00     0.000 HD 
ENDBRANCH  11  12
ENDBRANCH  10  11
ENDBRANCH   7  10
ENDBRANCH   6   7
ENDBRANCH   4   6
ENDBRANCH   2   4
TORSDOF 6
ENDMDL
MODEL      165
REMARK 921   NORMALIZED FREE ENERGY PREDICTED BY IDOCK:   -4.07 KCAL/MOL
REMARK 922        TOTAL FREE ENERGY PREDICTED BY IDOCK:   -5.87 KCAL/MOL
REMARK 923 INTER-LIGAND FREE ENERGY PREDICTED BY IDOCK:   -4.98 KCAL/MOL
REMARK 924 INTRA-LIGAND FREE ENERGY PREDICTED BY IDOCK:   -0.89 KCAL/MOL
REMARK 927      BINDING AFFINITY PREDICTED BY RF-SCORE:    0.00 PKD
ROOT
HETATM    1  C   UNL     1     -12.437  13.094  65.961  1.00  0.00    -0.330 C  
HETATM    2  C   UNL     1     -11.496  13.877  65.043  1.00  0.00    -0.339 C  
HETATM    3  C   UNL     1     -12.150  14.048  63.669  1.00  0.00    -0.156 C  
ENDROOT
BRANCH   2   4
HETATM    4  N   UNL     1     -11.205  15.167  65.677  1.00  0.00    -0.324 NA 
HETATM    5  H   UNL     1     -11.545  15.181  66.639  1.00  0.00     0.000 HD 
BRANCH   4   6
HETATM    6  C   UNL     1      -9.790  15.540  65.622  1.00  0.00    -0.342 C  
BRANCH   6   7
HETATM    7  C   UNL     1      -9.202  15.708  67.038  1.00  0.00    -0.222 C  
HETATM    8  H   UNL     1      -9.908  16.106  68.823  1.00  0.00     0.000 HD 
HETATM    9  O   UNL     1     -10.270  16.003  67.952  1.00  0.00    -0.247 OA 
BRANCH   7  10
HETATM   10  C   UNL     1      -8.447  14.421  67.418  1.00  0.00    -0.203 C  
BRANCH  10  11
HETATM   11  O   UNL     1      -9.176  13.690  68.405  1.00  0.00    -0.195 OA 
BRANCH  11  12
HETATM   12  C   UNL     1      -9.626  12.449  68.019  1.00  0.00    -0.211 A  
HETATM   13  C   UNL     1      -9.031  11.666  67.016  1.00  0.00    -0.182 A  
HETATM   14  C   UNL     1      -9.519  10.398  66.696  1.00  0.00    -0.199 A  
HETATM   15  C   UNL     1     -10.618   9.859  67.368  1.00  0.00    -0.338 A  
HETATM   16  C   UNL     1     -11.200  10.635  68.371  1.00  0.00    -0.288 A  
HETATM   17  C   UNL     1     -10.734  11.907  68.712  1.00  0.00    -0.257 A  
HETATM   18  C   UNL     1     -11.571  12.380  69.765  1.00  0.00    -0.302 A  
HETATM   19  C   UNL     1     -12.502  11.406  70.040  1.00  0.00    -0.154 A  
HETATM   20  N   UNL     1     -12.269  10.357  69.194  1.00  0.00    -0.695 NA 
HETATM   21  H   UNL     1     -12.810   9.492  69.176  1.00  0.00     0.000 HD 
ENDBRANCH  11  12
ENDBRANCH  10  11
ENDBRANCH   7  10
ENDBRANCH   6   7
ENDBRANCH   4   6
ENDBRANCH   2   4
TORSDOF 6
ENDMDL
MODEL      166
REMARK 921   NORMALIZED FREE ENERGY PREDICTED BY IDOCK:   -4.07 KCAL/MOL
REMARK 922        TOTAL FREE ENERGY PREDICTED BY IDOCK:   -5.87 KCAL/MOL
REMARK 923 INTER-LIGAND FREE ENERGY PREDICTED BY IDOCK:   -5.22 KCAL/MOL
REMARK 924 INTRA-LIGAND FREE ENERGY PREDICTED BY IDOCK:   -0.65 KCAL/MOL
REMARK 927      BINDING AFFINITY PREDICTED BY RF-SCORE:    0.00 PKD
ROOT
HETATM    1  C   UNL     1      -8.249   6.964  69.374  1.00  0.00    -0.131 C  
HETATM    2  C   UNL     1      -8.775   7.868  70.492  1.00  0.00    -0.136 C  
HETATM    3  C   UNL     1      -7.729   8.938  70.818  1.00  0.00    -0.126 C  
ENDROOT
BRANCH   2   4
HETATM    4  N   UNL     1     -10.042   8.456  70.047  1.00  0.00    -0.189 NA 
HETATM    5  H   UNL     1     -10.049   8.575  69.034  1.00  0.00     0.000 HD 
BRANCH   4   6
HETATM    6  C   UNL     1     -11.222   7.707  70.488  1.00  0.00    -0.261 C  
BRANCH   6   7
HETATM    7  C   UNL     1     -12.136   8.578  71.373  1.00  0.00    -0.303 C  
HETATM    8  H   UNL     1     -12.584   8.674  73.280  1.00  0.00     0.000 HD 
HETATM    9  O   UNL     1     -12.020   8.138  72.735  1.00  0.00    -0.365 OA 
BRANCH   7  10
HETATM   10  C   UNL     1     -11.734  10.054  71.200  1.00  0.00    -0.387 C  
BRANCH  10  11
HETATM   11  O   UNL     1     -12.335  10.599  70.024  1.00  0.00    -0.311 OA 
BRANCH  11  12
HETATM   12  C   UNL     1     -12.212  11.959  69.864  1.00  0.00    -0.199 A  
HETATM   13  C   UNL     1     -12.476  12.903  70.871  1.00  0.00    -0.383 A  
HETATM   14  C   UNL     1     -12.300  14.270  70.651  1.00  0.00    -0.431 A  
HETATM   15  C   UNL     1     -11.847  14.749  69.421  1.00  0.00    -0.360 A  
HETATM   16  C   UNL     1     -11.576  13.808  68.427  1.00  0.00    -0.334 A  
HETATM   17  C   UNL     1     -11.744  12.435  68.617  1.00  0.00    -0.372 A  
HETATM   18  C   UNL     1     -11.371  11.804  67.393  1.00  0.00    -0.376 A  
HETATM   19  C   UNL     1     -10.986  12.784  66.508  1.00  0.00    -0.262 A  
HETATM   20  N   UNL     1     -11.113  13.990  67.142  1.00  0.00    -0.296 NA 
HETATM   21  H   UNL     1     -10.895  14.894  66.722  1.00  0.00     0.000 HD 
ENDBRANCH  11  12
ENDBRANCH  10  11
ENDBRANCH   7  10
ENDBRANCH   6   7
ENDBRANCH   4   6
ENDBRANCH   2   4
TORSDOF 6
ENDMDL
MODEL      167
REMARK 921   NORMALIZED FREE ENERGY PREDICTED BY IDOCK:   -4.06 KCAL/MOL
REMARK 922        TOTAL FREE ENERGY PREDICTED BY IDOCK:   -5.87 KCAL/MOL
REMARK 923 INTER-LIGAND FREE ENERGY PREDICTED BY IDOCK:   -5.42 KCAL/MOL
REMARK 924 INTRA-LIGAND FREE ENERGY PREDICTED BY IDOCK:   -0.44 KCAL/MOL
REMARK 927      BINDING AFFINITY PREDICTED BY RF-SCORE:    0.00 PKD
ROOT
HETATM    1  C   UNL     1     -10.752  19.132  65.588  1.00  0.00    -0.297 C  
HETATM    2  C   UNL     1     -10.473  17.630  65.670  1.00  0.00    -0.144 C  
HETATM    3  C   UNL     1     -10.731  17.142  67.099  1.00  0.00    -0.177 C  
ENDROOT
BRANCH   2   4
HETATM    4  N   UNL     1     -11.329  16.950  64.694  1.00  0.00    -0.865 NA 
HETATM    5  H   UNL     1     -11.363  17.472  63.818  1.00  0.00     0.000 HD 
BRANCH   4   6
HETATM    6  C   UNL     1     -10.949  15.556  64.452  1.00  0.00    -0.043 C  
BRANCH   6   7
HETATM    7  C   UNL     1     -12.188  14.641  64.399  1.00  0.00    -0.452 C  
HETATM    8  H   UNL     1     -13.104  13.580  63.027  1.00  0.00     0.000 HD 
HETATM    9  O   UNL     1     -12.341  14.144  63.060  1.00  0.00    -0.488 OA 
BRANCH   7  10
HETATM   10  C   UNL     1     -12.012  13.507  65.426  1.00  0.00    -0.379 C  
BRANCH  10  11
HETATM   11  O   UNL     1     -11.495  14.024  66.653  1.00  0.00    -0.335 OA 
BRANCH  11  12
HETATM   12  C   UNL     1     -10.405  13.362  67.168  1.00  0.00    -0.246 A  
HETATM   13  C   UNL     1      -9.069  13.693  66.884  1.00  0.00    -0.249 A  
HETATM   14  C   UNL     1      -8.007  12.999  67.468  1.00  0.00    -0.177 A  
HETATM   15  C   UNL     1      -8.237  11.952  68.363  1.00  0.00    -0.160 A  
HETATM   16  C   UNL     1      -9.565  11.634  68.650  1.00  0.00    -0.133 A  
HETATM   17  C   UNL     1     -10.647  12.309  68.081  1.00  0.00    -0.232 A  
HETATM   18  C   UNL     1     -11.828  11.708  68.609  1.00  0.00    -0.370 A  
HETATM   19  C   UNL     1     -11.447  10.709  69.474  1.00  0.00    -0.291 A  
HETATM   20  N   UNL     1     -10.080  10.672  69.493  1.00  0.00    -0.385 NA 
HETATM   21  H   UNL     1      -9.521  10.026  70.050  1.00  0.00     0.000 HD 
ENDBRANCH  11  12
ENDBRANCH  10  11
ENDBRANCH   7  10
ENDBRANCH   6   7
ENDBRANCH   4   6
ENDBRANCH   2   4
TORSDOF 6
ENDMDL
MODEL      168
REMARK 921   NORMALIZED FREE ENERGY PREDICTED BY IDOCK:   -4.03 KCAL/MOL
REMARK 922        TOTAL FREE ENERGY PREDICTED BY IDOCK:   -5.81 KCAL/MOL
REMARK 923 INTER-LIGAND FREE ENERGY PREDICTED BY IDOCK:   -5.40 KCAL/MOL
REMARK 924 INTRA-LIGAND FREE ENERGY PREDICTED BY IDOCK:   -0.41 KCAL/MOL
REMARK 927      BINDING AFFINITY PREDICTED BY RF-SCORE:    0.00 PKD
ROOT
HETATM    1  C   UNL     1      -9.352   5.443  69.805  1.00  0.00    -0.186 C  
HETATM    2  C   UNL     1      -9.365   6.574  68.774  1.00  0.00    -0.130 C  
HETATM    3  C   UNL     1     -10.796   6.794  68.276  1.00  0.00    -0.290 C  
ENDROOT
BRANCH   2   4
HETATM    4  N   UNL     1      -8.812   7.776  69.405  1.00  0.00    -0.139 NA 
HETATM    5  H   UNL     1      -7.999   8.113  68.888  1.00  0.00     0.000 HD 
BRANCH   4   6
HETATM    6  C   UNL     1      -9.794   8.848  69.584  1.00  0.00    -0.180 C  
BRANCH   6   7
HETATM    7  C   UNL     1      -9.200  10.218  69.199  1.00  0.00    -0.194 C  
HETATM    8  H   UNL     1      -7.502  11.154  69.489  1.00  0.00     0.000 HD 
HETATM    9  O   UNL     1      -7.868  10.310  69.726  1.00  0.00    -0.162 OA 
BRANCH   7  10
HETATM   10  C   UNL     1      -9.233  10.360  67.666  1.00  0.00    -0.148 C  
BRANCH  10  11
HETATM   11  O   UNL     1     -10.501  10.862  67.241  1.00  0.00    -0.208 OA 
BRANCH  11  12
HETATM   12  C   UNL     1     -10.586  11.229  65.919  1.00  0.00    -0.253 A  
HETATM   13  C   UNL     1      -9.985  10.528  64.860  1.00  0.00    -0.401 A  
HETATM   14  C   UNL     1     -10.139  10.938  63.535  1.00  0.00    -0.406 A  
HETATM   15  C   UNL     1     -10.902  12.061  63.213  1.00  0.00    -0.400 A  
HETATM   16  C   UNL     1     -11.507  12.750  64.266  1.00  0.00    -0.373 A  
HETATM   17  C   UNL     1     -11.370  12.364  65.601  1.00  0.00    -0.387 A  
HETATM   18  C   UNL     1     -12.120  13.298  66.375  1.00  0.00    -0.454 A  
HETATM   19  C   UNL     1     -12.689  14.206  65.514  1.00  0.00    -0.443 A  
HETATM   20  N   UNL     1     -12.314  13.866  64.243  1.00  0.00    -0.646 NA 
HETATM   21  H   UNL     1     -12.592  14.368  63.399  1.00  0.00     0.000 HD 
ENDBRANCH  11  12
ENDBRANCH  10  11
ENDBRANCH   7  10
ENDBRANCH   6   7
ENDBRANCH   4   6
ENDBRANCH   2   4
TORSDOF 6
ENDMDL
MODEL      169
REMARK 921   NORMALIZED FREE ENERGY PREDICTED BY IDOCK:   -4.02 KCAL/MOL
REMARK 922        TOTAL FREE ENERGY PREDICTED BY IDOCK:   -5.81 KCAL/MOL
REMARK 923 INTER-LIGAND FREE ENERGY PREDICTED BY IDOCK:   -5.59 KCAL/MOL
REMARK 924 INTRA-LIGAND FREE ENERGY PREDICTED BY IDOCK:   -0.22 KCAL/MOL
REMARK 927      BINDING AFFINITY PREDICTED BY RF-SCORE:    0.00 PKD
ROOT
HETATM    1  C   UNL     1     -12.644  15.717  70.846  1.00  0.00    -0.437 C  
HETATM    2  C   UNL     1     -12.303  14.422  71.586  1.00  0.00    -0.341 C  
HETATM    3  C   UNL     1     -12.990  14.421  72.955  1.00  0.00    -0.575 C  
ENDROOT
BRANCH   2   4
HETATM    4  N   UNL     1     -12.732  13.292  70.756  1.00  0.00    -0.255 NA 
HETATM    5  H   UNL     1     -13.668  13.454  70.383  1.00  0.00     0.000 HD 
BRANCH   4   6
HETATM    6  C   UNL     1     -11.794  12.969  69.679  1.00  0.00    -0.319 C  
BRANCH   6   7
HETATM    7  C   UNL     1     -11.505  11.455  69.626  1.00  0.00    -0.309 C  
HETATM    8  H   UNL     1     -12.576   9.815  69.522  1.00  0.00     0.000 HD 
HETATM    9  O   UNL     1     -12.753  10.748  69.555  1.00  0.00    -0.257 OA 
BRANCH   7  10
HETATM   10  C   UNL     1     -10.599  11.164  68.416  1.00  0.00    -0.193 C  
BRANCH  10  11
HETATM   11  O   UNL     1     -11.379  10.710  67.308  1.00  0.00    -0.380 OA 
BRANCH  11  12
HETATM   12  C   UNL     1     -10.748  10.725  66.087  1.00  0.00    -0.118 A  
HETATM   13  C   UNL     1     -10.859  11.764  65.148  1.00  0.00    -0.351 A  
HETATM   14  C   UNL     1     -10.164  11.730  63.938  1.00  0.00    -0.411 A  
HETATM   15  C   UNL     1      -9.326  10.660  63.620  1.00  0.00    -0.315 A  
HETATM   16  C   UNL     1      -9.210   9.634  64.559  1.00  0.00    -0.218 A  
HETATM   17  C   UNL     1      -9.893   9.641  65.776  1.00  0.00    -0.373 A  
HETATM   18  C   UNL     1      -9.526   8.442  66.458  1.00  0.00    -0.284 A  
HETATM   19  C   UNL     1      -8.642   7.753  65.661  1.00  0.00    -0.127 A  
HETATM   20  N   UNL     1      -8.457   8.481  64.517  1.00  0.00    -0.330 NA 
HETATM   21  H   UNL     1      -7.848   8.209  63.745  1.00  0.00     0.000 HD 
ENDBRANCH  11  12
ENDBRANCH  10  11
ENDBRANCH   7  10
ENDBRANCH   6   7
ENDBRANCH   4   6
ENDBRANCH   2   4
TORSDOF 6
ENDMDL
MODEL      170
REMARK 921   NORMALIZED FREE ENERGY PREDICTED BY IDOCK:   -4.01 KCAL/MOL
REMARK 922        TOTAL FREE ENERGY PREDICTED BY IDOCK:   -5.79 KCAL/MOL
REMARK 923 INTER-LIGAND FREE ENERGY PREDICTED BY IDOCK:   -5.50 KCAL/MOL
REMARK 924 INTRA-LIGAND FREE ENERGY PREDICTED BY IDOCK:   -0.29 KCAL/MOL
REMARK 927      BINDING AFFINITY PREDICTED BY RF-SCORE:    0.00 PKD
ROOT
HETATM    1  C   UNL     1      -9.735   7.476  69.719  1.00  0.00    -0.171 C  
HETATM    2  C   UNL     1     -10.774   8.580  69.511  1.00  0.00    -0.174 C  
HETATM    3  C   UNL     1     -11.476   8.877  70.840  1.00  0.00    -0.339 C  
ENDROOT
BRANCH   2   4
HETATM    4  N   UNL     1     -10.088   9.761  68.978  1.00  0.00    -0.178 NA 
HETATM    5  H   UNL     1      -9.116   9.783  69.286  1.00  0.00     0.000 HD 
BRANCH   4   6
HETATM    6  C   UNL     1     -10.173   9.878  67.520  1.00  0.00    -0.216 C  
BRANCH   6   7
HETATM    7  C   UNL     1     -10.459  11.331  67.092  1.00  0.00    -0.222 C  
HETATM    8  H   UNL     1     -11.879  12.262  66.112  1.00  0.00     0.000 HD 
HETATM    9  O   UNL     1     -11.703  11.368  66.375  1.00  0.00    -0.353 OA 
BRANCH   7  10
HETATM   10  C   UNL     1     -10.482  12.222  68.347  1.00  0.00    -0.233 C  
BRANCH  10  11
HETATM   11  O   UNL     1     -11.784  12.777  68.540  1.00  0.00    -0.296 OA 
BRANCH  11  12
HETATM   12  C   UNL     1     -11.885  13.743  69.512  1.00  0.00    -0.339 A  
HETATM   13  C   UNL     1     -12.474  13.542  70.772  1.00  0.00    -0.428 A  
HETATM   14  C   UNL     1     -12.515  14.560  71.728  1.00  0.00    -0.420 A  
HETATM   15  C   UNL     1     -11.964  15.815  71.466  1.00  0.00    -0.506 A  
HETATM   16  C   UNL     1     -11.371  16.008  70.217  1.00  0.00    -0.382 A  
HETATM   17  C   UNL     1     -11.317  15.010  69.242  1.00  0.00    -0.311 A  
HETATM   18  C   UNL     1     -10.644  15.574  68.117  1.00  0.00    -0.266 A  
HETATM   19  C   UNL     1     -10.306  16.870  68.429  1.00  0.00    -0.338 A  
HETATM   20  N   UNL     1     -10.748  17.122  69.699  1.00  0.00    -0.325 NA 
HETATM   21  H   UNL     1     -10.633  18.009  70.191  1.00  0.00     0.000 HD 
ENDBRANCH  11  12
ENDBRANCH  10  11
ENDBRANCH   7  10
ENDBRANCH   6   7
ENDBRANCH   4   6
ENDBRANCH   2   4
TORSDOF 6
ENDMDL
MODEL      171
REMARK 921   NORMALIZED FREE ENERGY PREDICTED BY IDOCK:   -4.01 KCAL/MOL
REMARK 922        TOTAL FREE ENERGY PREDICTED BY IDOCK:   -5.79 KCAL/MOL
REMARK 923 INTER-LIGAND FREE ENERGY PREDICTED BY IDOCK:   -5.37 KCAL/MOL
REMARK 924 INTRA-LIGAND FREE ENERGY PREDICTED BY IDOCK:   -0.42 KCAL/MOL
REMARK 927      BINDING AFFINITY PREDICTED BY RF-SCORE:    0.00 PKD
ROOT
HETATM    1  C   UNL     1     -10.117  17.528  67.172  1.00  0.00    -0.321 C  
HETATM    2  C   UNL     1     -10.204  16.093  67.697  1.00  0.00    -0.265 C  
HETATM    3  C   UNL     1     -11.273  16.014  68.790  1.00  0.00    -0.360 C  
ENDROOT
BRANCH   2   4
HETATM    4  N   UNL     1     -10.506  15.209  66.567  1.00  0.00    -0.284 NA 
HETATM    5  H   UNL     1     -10.050  14.305  66.685  1.00  0.00     0.000 HD 
BRANCH   4   6
HETATM    6  C   UNL     1     -11.941  15.039  66.325  1.00  0.00     0.060 C  
BRANCH   6   7
HETATM    7  C   UNL     1     -12.197  14.092  65.136  1.00  0.00    -0.433 C  
HETATM    8  H   UNL     1     -12.918  14.267  63.321  1.00  0.00     0.000 HD 
HETATM    9  O   UNL     1     -12.760  14.850  64.053  1.00  0.00    -0.792 OA 
BRANCH   7  10
HETATM   10  C   UNL     1     -10.871  13.414  64.746  1.00  0.00    -0.375 C  
BRANCH  10  11
HETATM   11  O   UNL     1     -11.104  12.066  64.335  1.00  0.00    -0.310 OA 
BRANCH  11  12
HETATM   12  C   UNL     1     -10.530  11.094  65.119  1.00  0.00    -0.277 A  
HETATM   13  C   UNL     1     -10.718  10.980  66.507  1.00  0.00    -0.298 A  
HETATM   14  C   UNL     1     -10.130   9.947  67.239  1.00  0.00    -0.264 A  
HETATM   15  C   UNL     1      -9.336   8.984  66.615  1.00  0.00    -0.229 A  
HETATM   16  C   UNL     1      -9.159   9.094  65.235  1.00  0.00    -0.195 A  
HETATM   17  C   UNL     1      -9.733  10.117  64.477  1.00  0.00    -0.361 A  
HETATM   18  C   UNL     1      -9.332   9.899  63.126  1.00  0.00    -0.217 A  
HETATM   19  C   UNL     1      -8.547   8.770  63.091  1.00  0.00    -0.072 A  
HETATM   20  N   UNL     1      -8.449   8.292  64.369  1.00  0.00    -0.377 NA 
HETATM   21  H   UNL     1      -7.925   7.460  64.641  1.00  0.00     0.000 HD 
ENDBRANCH  11  12
ENDBRANCH  10  11
ENDBRANCH   7  10
ENDBRANCH   6   7
ENDBRANCH   4   6
ENDBRANCH   2   4
TORSDOF 6
ENDMDL
MODEL      172
REMARK 921   NORMALIZED FREE ENERGY PREDICTED BY IDOCK:   -3.99 KCAL/MOL
REMARK 922        TOTAL FREE ENERGY PREDICTED BY IDOCK:   -5.77 KCAL/MOL
REMARK 923 INTER-LIGAND FREE ENERGY PREDICTED BY IDOCK:   -5.46 KCAL/MOL
REMARK 924 INTRA-LIGAND FREE ENERGY PREDICTED BY IDOCK:   -0.30 KCAL/MOL
REMARK 927      BINDING AFFINITY PREDICTED BY RF-SCORE:    0.00 PKD
ROOT
HETATM    1  C   UNL     1      -8.677  17.295  68.868  1.00  0.00    -0.172 C  
HETATM    2  C   UNL     1     -10.170  17.562  68.665  1.00  0.00    -0.373 C  
HETATM    3  C   UNL     1     -10.351  18.737  67.700  1.00  0.00    -0.476 C  
ENDROOT
BRANCH   2   4
HETATM    4  N   UNL     1     -10.791  16.334  68.158  1.00  0.00    -0.330 NA 
HETATM    5  H   UNL     1     -10.430  16.104  67.231  1.00  0.00     0.000 HD 
BRANCH   4   6
HETATM    6  C   UNL     1     -10.656  15.192  69.065  1.00  0.00    -0.245 C  
BRANCH   6   7
HETATM    7  C   UNL     1     -11.598  14.041  68.657  1.00  0.00    -0.325 C  
HETATM    8  H   UNL     1     -12.970  13.757  67.286  1.00  0.00     0.000 HD 
HETATM    9  O   UNL     1     -12.390  14.465  67.537  1.00  0.00    -0.273 OA 
BRANCH   7  10
HETATM   10  C   UNL     1     -10.750  12.797  68.335  1.00  0.00    -0.250 C  
BRANCH  10  11
HETATM   11  O   UNL     1     -11.510  11.863  67.567  1.00  0.00    -0.301 OA 
BRANCH  11  12
HETATM   12  C   UNL     1     -10.924  10.635  67.367  1.00  0.00    -0.298 A  
HETATM   13  C   UNL     1     -10.907   9.600  68.317  1.00  0.00    -0.230 A  
HETATM   14  C   UNL     1     -10.321   8.364  68.036  1.00  0.00    -0.270 A  
HETATM   15  C   UNL     1      -9.734   8.111  66.796  1.00  0.00    -0.303 A  
HETATM   16  C   UNL     1      -9.761   9.138  65.851  1.00  0.00    -0.266 A  
HETATM   17  C   UNL     1     -10.339  10.385  66.104  1.00  0.00    -0.269 A  
HETATM   18  C   UNL     1     -10.174  11.159  64.917  1.00  0.00    -0.361 A  
HETATM   19  C   UNL     1      -9.522  10.383  63.988  1.00  0.00    -0.299 A  
HETATM   20  N   UNL     1      -9.278   9.165  64.561  1.00  0.00    -0.422 NA 
HETATM   21  H   UNL     1      -8.805   8.387  64.099  1.00  0.00     0.000 HD 
ENDBRANCH  11  12
ENDBRANCH  10  11
ENDBRANCH   7  10
ENDBRANCH   6   7
ENDBRANCH   4   6
ENDBRANCH   2   4
TORSDOF 6
ENDMDL
MODEL      173
REMARK 921   NORMALIZED FREE ENERGY PREDICTED BY IDOCK:   -3.98 KCAL/MOL
REMARK 922        TOTAL FREE ENERGY PREDICTED BY IDOCK:   -5.75 KCAL/MOL
REMARK 923 INTER-LIGAND FREE ENERGY PREDICTED BY IDOCK:   -5.21 KCAL/MOL
REMARK 924 INTRA-LIGAND FREE ENERGY PREDICTED BY IDOCK:   -0.54 KCAL/MOL
REMARK 927      BINDING AFFINITY PREDICTED BY RF-SCORE:    0.00 PKD
ROOT
HETATM    1  C   UNL     1      -9.917  18.173  68.650  1.00  0.00    -0.409 C  
HETATM    2  C   UNL     1      -9.985  16.645  68.705  1.00  0.00    -0.261 C  
HETATM    3  C   UNL     1     -10.930  16.216  69.831  1.00  0.00    -0.362 C  
ENDROOT
BRANCH   2   4
HETATM    4  N   UNL     1     -10.433  16.159  67.397  1.00  0.00    -0.305 NA 
HETATM    5  H   UNL     1      -9.658  16.142  66.733  1.00  0.00     0.000 HD 
BRANCH   4   6
HETATM    6  C   UNL     1     -11.095  14.853  67.453  1.00  0.00    -0.325 C  
BRANCH   6   7
HETATM    7  C   UNL     1     -10.431  13.849  66.489  1.00  0.00    -0.282 C  
HETATM    8  H   UNL     1      -9.538  13.942  64.746  1.00  0.00     0.000 HD 
HETATM    9  O   UNL     1      -9.946  14.561  65.340  1.00  0.00    -0.352 OA 
BRANCH   7  10
HETATM   10  C   UNL     1      -9.305  13.113  67.238  1.00  0.00    -0.225 C  
BRANCH  10  11
HETATM   11  O   UNL     1      -9.768  12.659  68.511  1.00  0.00    -0.206 OA 
BRANCH  11  12
HETATM   12  C   UNL     1      -9.988  11.306  68.620  1.00  0.00    -0.204 A  
HETATM   13  C   UNL     1      -9.237  10.324  67.952  1.00  0.00    -0.143 A  
HETATM   14  C   UNL     1      -9.494   8.964  68.133  1.00  0.00    -0.155 A  
HETATM   15  C   UNL     1     -10.506   8.530  68.991  1.00  0.00    -0.216 A  
HETATM   16  C   UNL     1     -11.243   9.508  69.661  1.00  0.00    -0.108 A  
HETATM   17  C   UNL     1     -11.010  10.876  69.498  1.00  0.00    -0.306 A  
HETATM   18  C   UNL     1     -11.948  11.552  70.333  1.00  0.00    -0.459 A  
HETATM   19  C   UNL     1     -12.709  10.603  70.975  1.00  0.00    -0.415 A  
HETATM   20  N   UNL     1     -12.275   9.372  70.563  1.00  0.00    -0.477 NA 
HETATM   21  H   UNL     1     -12.660   8.482  70.879  1.00  0.00     0.000 HD 
ENDBRANCH  11  12
ENDBRANCH  10  11
ENDBRANCH   7  10
ENDBRANCH   6   7
ENDBRANCH   4   6
ENDBRANCH   2   4
TORSDOF 6
ENDMDL
MODEL      174
REMARK 921   NORMALIZED FREE ENERGY PREDICTED BY IDOCK:   -3.96 KCAL/MOL
REMARK 922        TOTAL FREE ENERGY PREDICTED BY IDOCK:   -5.72 KCAL/MOL
REMARK 923 INTER-LIGAND FREE ENERGY PREDICTED BY IDOCK:   -5.06 KCAL/MOL
REMARK 924 INTRA-LIGAND FREE ENERGY PREDICTED BY IDOCK:   -0.67 KCAL/MOL
REMARK 927      BINDING AFFINITY PREDICTED BY RF-SCORE:    0.00 PKD
ROOT
HETATM    1  C   UNL     1     -11.545   8.507  72.372  1.00  0.00    -0.425 C  
HETATM    2  C   UNL     1     -10.597   9.478  71.665  1.00  0.00    -0.030 C  
HETATM    3  C   UNL     1      -9.256   8.784  71.406  1.00  0.00    -0.325 C  
ENDROOT
BRANCH   2   4
HETATM    4  N   UNL     1     -11.236   9.920  70.422  1.00  0.00    -0.289 NA 
HETATM    5  H   UNL     1     -11.790   9.166  70.014  1.00  0.00     0.000 HD 
BRANCH   4   6
HETATM    6  C   UNL     1     -12.043  11.132  70.577  1.00  0.00    -0.381 C  
BRANCH   6   7
HETATM    7  C   UNL     1     -11.936  12.037  69.333  1.00  0.00    -0.275 C  
HETATM    8  H   UNL     1     -11.645  13.946  68.996  1.00  0.00     0.000 HD 
HETATM    9  O   UNL     1     -11.710  13.389  69.761  1.00  0.00    -0.293 OA 
BRANCH   7  10
HETATM   10  C   UNL     1     -10.803  11.512  68.434  1.00  0.00    -0.211 C  
BRANCH  10  11
HETATM   11  O   UNL     1     -11.342  10.794  67.322  1.00  0.00    -0.397 OA 
BRANCH  11  12
HETATM   12  C   UNL     1     -10.445  10.038  66.606  1.00  0.00    -0.174 A  
HETATM   13  C   UNL     1      -9.821   8.876  67.091  1.00  0.00    -0.267 A  
HETATM   14  C   UNL     1      -8.943   8.136  66.298  1.00  0.00    -0.215 A  
HETATM   15  C   UNL     1      -8.656   8.523  64.988  1.00  0.00    -0.162 A  
HETATM   16  C   UNL     1      -9.285   9.672  64.506  1.00  0.00    -0.218 A  
HETATM   17  C   UNL     1     -10.167  10.432  65.276  1.00  0.00    -0.332 A  
HETATM   18  C   UNL     1     -10.601  11.514  64.453  1.00  0.00    -0.392 A  
HETATM   19  C   UNL     1      -9.993  11.386  63.226  1.00  0.00    -0.401 A  
HETATM   20  N   UNL     1      -9.201  10.270  63.268  1.00  0.00    -0.270 NA 
HETATM   21  H   UNL     1      -8.631   9.931  62.493  1.00  0.00     0.000 HD 
ENDBRANCH  11  12
ENDBRANCH  10  11
ENDBRANCH   7  10
ENDBRANCH   6   7
ENDBRANCH   4   6
ENDBRANCH   2   4
TORSDOF 6
ENDMDL
MODEL      175
REMARK 921   NORMALIZED FREE ENERGY PREDICTED BY IDOCK:   -3.95 KCAL/MOL
REMARK 922        TOTAL FREE ENERGY PREDICTED BY IDOCK:   -5.71 KCAL/MOL
REMARK 923 INTER-LIGAND FREE ENERGY PREDICTED BY IDOCK:   -5.27 KCAL/MOL
REMARK 924 INTRA-LIGAND FREE ENERGY PREDICTED BY IDOCK:   -0.44 KCAL/MOL
REMARK 927      BINDING AFFINITY PREDICTED BY RF-SCORE:    0.00 PKD
ROOT
HETATM    1  C   UNL     1      -8.312   5.504  64.396  1.00  0.00    -0.115 C  
HETATM    2  C   UNL     1      -9.303   5.555  65.560  1.00  0.00     0.005 C  
HETATM    3  C   UNL     1      -8.738   4.766  66.746  1.00  0.00    -0.107 C  
ENDROOT
BRANCH   2   4
HETATM    4  N   UNL     1      -9.540   6.962  65.900  1.00  0.00    -0.384 NA 
HETATM    5  H   UNL     1      -9.704   7.513  65.057  1.00  0.00     0.000 HD 
BRANCH   4   6
HETATM    6  C   UNL     1     -10.624   7.156  66.866  1.00  0.00    -0.301 C  
BRANCH   6   7
HETATM    7  C   UNL     1     -10.520   8.534  67.550  1.00  0.00    -0.258 C  
HETATM    8  H   UNL     1     -10.258   9.186  69.381  1.00  0.00     0.000 HD 
HETATM    9  O   UNL     1     -10.322   8.338  68.959  1.00  0.00    -0.218 OA 
BRANCH   7  10
HETATM   10  C   UNL     1      -9.369   9.324  66.903  1.00  0.00    -0.151 C  
BRANCH  10  11
HETATM   11  O   UNL     1      -9.861  10.131  65.831  1.00  0.00    -0.212 OA 
BRANCH  11  12
HETATM   12  C   UNL     1     -10.465  11.310  66.198  1.00  0.00    -0.254 A  
HETATM   13  C   UNL     1     -10.364  11.890  67.474  1.00  0.00    -0.219 A  
HETATM   14  C   UNL     1     -10.977  13.108  67.771  1.00  0.00    -0.272 A  
HETATM   15  C   UNL     1     -11.710  13.799  66.804  1.00  0.00    -0.420 A  
HETATM   16  C   UNL     1     -11.800  13.226  65.535  1.00  0.00    -0.370 A  
HETATM   17  C   UNL     1     -11.198  12.008  65.210  1.00  0.00    -0.374 A  
HETATM   18  C   UNL     1     -11.507  11.753  63.841  1.00  0.00    -0.481 A  
HETATM   19  C   UNL     1     -12.266  12.799  63.373  1.00  0.00    -0.504 A  
HETATM   20  N   UNL     1     -12.436  13.684  64.402  1.00  0.00    -0.635 NA 
HETATM   21  H   UNL     1     -12.959  14.557  64.340  1.00  0.00     0.000 HD 
ENDBRANCH  11  12
ENDBRANCH  10  11
ENDBRANCH   7  10
ENDBRANCH   6   7
ENDBRANCH   4   6
ENDBRANCH   2   4
TORSDOF 6
ENDMDL
MODEL      176
REMARK 921   NORMALIZED FREE ENERGY PREDICTED BY IDOCK:   -3.94 KCAL/MOL
REMARK 922        TOTAL FREE ENERGY PREDICTED BY IDOCK:   -5.70 KCAL/MOL
REMARK 923 INTER-LIGAND FREE ENERGY PREDICTED BY IDOCK:   -5.34 KCAL/MOL
REMARK 924 INTRA-LIGAND FREE ENERGY PREDICTED BY IDOCK:   -0.36 KCAL/MOL
REMARK 927      BINDING AFFINITY PREDICTED BY RF-SCORE:    0.00 PKD
ROOT
HETATM    1  C   UNL     1     -11.241  11.706  63.730  1.00  0.00    -0.498 C  
HETATM    2  C   UNL     1     -11.303  12.545  65.008  1.00  0.00    -0.313 C  
HETATM    3  C   UNL     1     -12.648  13.274  65.075  1.00  0.00    -0.483 C  
ENDROOT
BRANCH   2   4
HETATM    4  N   UNL     1     -11.105  11.651  66.153  1.00  0.00    -0.300 NA 
HETATM    5  H   UNL     1     -10.192  11.199  66.104  1.00  0.00     0.000 HD 
BRANCH   4   6
HETATM    6  C   UNL     1     -11.287  12.311  67.448  1.00  0.00    -0.325 C  
BRANCH   6   7
HETATM    7  C   UNL     1     -11.178  11.302  68.609  1.00  0.00    -0.250 C  
HETATM    8  H   UNL     1     -12.433  10.363  69.787  1.00  0.00     0.000 HD 
HETATM    9  O   UNL     1     -12.500  10.985  69.073  1.00  0.00    -0.449 OA 
BRANCH   7  10
HETATM   10  C   UNL     1     -10.418  10.058  68.115  1.00  0.00    -0.211 C  
BRANCH  10  11
HETATM   11  O   UNL     1      -9.647   9.492  69.176  1.00  0.00    -0.159 OA 
BRANCH  11  12
HETATM   12  C   UNL     1     -10.012   8.228  69.573  1.00  0.00    -0.187 A  
HETATM   13  C   UNL     1     -10.474   7.225  68.704  1.00  0.00    -0.214 A  
HETATM   14  C   UNL     1     -10.798   5.949  69.170  1.00  0.00    -0.406 A  
HETATM   15  C   UNL     1     -10.670   5.623  70.520  1.00  0.00    -0.344 A  
HETATM   16  C   UNL     1     -10.202   6.618  71.380  1.00  0.00    -0.199 A  
HETATM   17  C   UNL     1      -9.871   7.902  70.943  1.00  0.00    -0.192 A  
HETATM   18  C   UNL     1      -9.438   8.627  72.093  1.00  0.00    -0.373 A  
HETATM   19  C   UNL     1      -9.507   7.785  73.178  1.00  0.00    -0.264 A  
HETATM   20  N   UNL     1      -9.968   6.574  72.737  1.00  0.00    -0.170 NA 
HETATM   21  H   UNL     1     -10.117   5.757  73.329  1.00  0.00     0.000 HD 
ENDBRANCH  11  12
ENDBRANCH  10  11
ENDBRANCH   7  10
ENDBRANCH   6   7
ENDBRANCH   4   6
ENDBRANCH   2   4
TORSDOF 6
ENDMDL
MODEL      177
REMARK 921   NORMALIZED FREE ENERGY PREDICTED BY IDOCK:   -3.94 KCAL/MOL
REMARK 922        TOTAL FREE ENERGY PREDICTED BY IDOCK:   -5.70 KCAL/MOL
REMARK 923 INTER-LIGAND FREE ENERGY PREDICTED BY IDOCK:   -4.89 KCAL/MOL
REMARK 924 INTRA-LIGAND FREE ENERGY PREDICTED BY IDOCK:   -0.80 KCAL/MOL
REMARK 927      BINDING AFFINITY PREDICTED BY RF-SCORE:    0.00 PKD
ROOT
HETATM    1  C   UNL     1     -10.034  14.927  65.520  1.00  0.00    -0.392 C  
HETATM    2  C   UNL     1     -10.978  13.929  64.847  1.00  0.00    -0.386 C  
HETATM    3  C   UNL     1     -12.160  14.682  64.229  1.00  0.00    -0.437 C  
ENDROOT
BRANCH   2   4
HETATM    4  N   UNL     1     -10.217  13.182  63.841  1.00  0.00    -0.744 NA 
HETATM    5  H   UNL     1      -9.286  12.953  64.191  1.00  0.00     0.000 HD 
BRANCH   4   6
HETATM    6  C   UNL     1     -10.902  11.980  63.362  1.00  0.00    -0.405 C  
BRANCH   6   7
HETATM    7  C   UNL     1      -9.899  10.846  63.067  1.00  0.00    -0.321 C  
HETATM    8  H   UNL     1      -8.145  10.701  62.203  1.00  0.00     0.000 HD 
HETATM    9  O   UNL     1      -8.762  11.398  62.384  1.00  0.00    -0.300 OA 
BRANCH   7  10
HETATM   10  C   UNL     1      -9.511  10.170  64.395  1.00  0.00    -0.308 C  
BRANCH  10  11
HETATM   11  O   UNL     1      -8.852  11.102  65.254  1.00  0.00    -0.171 OA 
BRANCH  11  12
HETATM   12  C   UNL     1      -8.796  10.754  66.583  1.00  0.00    -0.145 A  
HETATM   13  C   UNL     1      -9.397   9.607  67.129  1.00  0.00    -0.168 A  
HETATM   14  C   UNL     1      -9.272   9.296  68.484  1.00  0.00    -0.135 A  
HETATM   15  C   UNL     1      -8.539  10.112  69.346  1.00  0.00    -0.183 A  
HETATM   16  C   UNL     1      -7.934  11.245  68.798  1.00  0.00    -0.137 A  
HETATM   17  C   UNL     1      -8.043  11.583  67.448  1.00  0.00    -0.146 A  
HETATM   18  C   UNL     1      -7.302  12.788  67.267  1.00  0.00    -0.095 A  
HETATM   19  C   UNL     1      -6.766  13.145  68.483  1.00  0.00    -0.092 A  
HETATM   20  N   UNL     1      -7.153  12.207  69.400  1.00  0.00    -0.326 NA 
HETATM   21  H   UNL     1      -6.899  12.218  70.388  1.00  0.00     0.000 HD 
ENDBRANCH  11  12
ENDBRANCH  10  11
ENDBRANCH   7  10
ENDBRANCH   6   7
ENDBRANCH   4   6
ENDBRANCH   2   4
TORSDOF 6
ENDMDL
MODEL      178
REMARK 921   NORMALIZED FREE ENERGY PREDICTED BY IDOCK:   -3.93 KCAL/MOL
REMARK 922        TOTAL FREE ENERGY PREDICTED BY IDOCK:   -5.69 KCAL/MOL
REMARK 923 INTER-LIGAND FREE ENERGY PREDICTED BY IDOCK:   -5.02 KCAL/MOL
REMARK 924 INTRA-LIGAND FREE ENERGY PREDICTED BY IDOCK:   -0.67 KCAL/MOL
REMARK 927      BINDING AFFINITY PREDICTED BY RF-SCORE:    0.00 PKD
ROOT
HETATM    1  C   UNL     1      -9.124   6.361  69.229  1.00  0.00    -0.136 C  
HETATM    2  C   UNL     1      -8.311   7.634  68.984  1.00  0.00    -0.128 C  
HETATM    3  C   UNL     1      -6.928   7.260  68.443  1.00  0.00    -0.079 C  
ENDROOT
BRANCH   2   4
HETATM    4  N   UNL     1      -9.056   8.482  68.048  1.00  0.00    -0.140 NA 
HETATM    5  H   UNL     1      -9.874   8.888  68.503  1.00  0.00     0.000 HD 
BRANCH   4   6
HETATM    6  C   UNL     1      -8.238   9.524  67.424  1.00  0.00    -0.114 C  
BRANCH   6   7
HETATM    7  C   UNL     1      -8.530   9.633  65.914  1.00  0.00    -0.128 C  
HETATM    8  H   UNL     1      -8.170   8.545  64.323  1.00  0.00     0.000 HD 
HETATM    9  O   UNL     1      -7.990   8.478  65.253  1.00  0.00    -0.106 OA 
BRANCH   7  10
HETATM   10  C   UNL     1     -10.050   9.765  65.711  1.00  0.00    -0.238 C  
BRANCH  10  11
HETATM   11  O   UNL     1     -10.619  10.585  66.733  1.00  0.00    -0.247 OA 
BRANCH  11  12
HETATM   12  C   UNL     1     -11.161  11.776  66.312  1.00  0.00    -0.311 A  
HETATM   13  C   UNL     1     -11.396  12.110  64.968  1.00  0.00    -0.379 A  
HETATM   14  C   UNL     1     -11.980  13.327  64.611  1.00  0.00    -0.440 A  
HETATM   15  C   UNL     1     -12.357  14.256  65.582  1.00  0.00    -0.416 A  
HETATM   16  C   UNL     1     -12.131  13.917  66.917  1.00  0.00    -0.430 A  
HETATM   17  C   UNL     1     -11.548  12.708  67.303  1.00  0.00    -0.428 A  
HETATM   18  C   UNL     1     -11.482  12.724  68.728  1.00  0.00    -0.347 A  
HETATM   19  C   UNL     1     -12.021  13.910  69.167  1.00  0.00    -0.363 A  
HETATM   20  N   UNL     1     -12.410  14.624  68.066  1.00  0.00    -0.589 NA 
HETATM   21  H   UNL     1     -12.845  15.546  68.093  1.00  0.00     0.000 HD 
ENDBRANCH  11  12
ENDBRANCH  10  11
ENDBRANCH   7  10
ENDBRANCH   6   7
ENDBRANCH   4   6
ENDBRANCH   2   4
TORSDOF 6
ENDMDL
MODEL      179
REMARK 921   NORMALIZED FREE ENERGY PREDICTED BY IDOCK:   -3.91 KCAL/MOL
REMARK 922        TOTAL FREE ENERGY PREDICTED BY IDOCK:   -5.65 KCAL/MOL
REMARK 923 INTER-LIGAND FREE ENERGY PREDICTED BY IDOCK:   -4.98 KCAL/MOL
REMARK 924 INTRA-LIGAND FREE ENERGY PREDICTED BY IDOCK:   -0.68 KCAL/MOL
REMARK 927      BINDING AFFINITY PREDICTED BY RF-SCORE:    0.00 PKD
ROOT
HETATM    1  C   UNL     1      -6.307  12.276  67.648  1.00  0.00    -0.122 C  
HETATM    2  C   UNL     1      -6.893  10.863  67.672  1.00  0.00    -0.081 C  
HETATM    3  C   UNL     1      -6.501  10.170  68.980  1.00  0.00    -0.044 C  
ENDROOT
BRANCH   2   4
HETATM    4  N   UNL     1      -8.348  10.967  67.521  1.00  0.00    -0.116 NA 
HETATM    5  H   UNL     1      -8.643  11.943  67.537  1.00  0.00     0.000 HD 
BRANCH   4   6
HETATM    6  C   UNL     1      -8.862  10.290  66.328  1.00  0.00    -0.146 C  
BRANCH   6   7
HETATM    7  C   UNL     1      -9.629   9.005  66.703  1.00  0.00    -0.213 C  
HETATM    8  H   UNL     1      -9.179   7.275  67.507  1.00  0.00     0.000 HD 
HETATM    9  O   UNL     1      -8.707   8.066  67.277  1.00  0.00    -0.129 OA 
BRANCH   7  10
HETATM   10  C   UNL     1     -10.768   9.372  67.671  1.00  0.00    -0.230 C  
BRANCH  10  11
HETATM   11  O   UNL     1     -11.335  10.635  67.317  1.00  0.00    -0.380 OA 
BRANCH  11  12
HETATM   12  C   UNL     1     -11.690  11.447  68.368  1.00  0.00    -0.303 A  
HETATM   13  C   UNL     1     -11.939  10.992  69.674  1.00  0.00    -0.424 A  
HETATM   14  C   UNL     1     -12.264  11.876  70.704  1.00  0.00    -0.424 A  
HETATM   15  C   UNL     1     -12.349  13.250  70.472  1.00  0.00    -0.389 A  
HETATM   16  C   UNL     1     -12.092  13.700  69.176  1.00  0.00    -0.319 A  
HETATM   17  C   UNL     1     -11.765  12.839  68.126  1.00  0.00    -0.392 A  
HETATM   18  C   UNL     1     -11.576  13.655  66.972  1.00  0.00    -0.389 A  
HETATM   19  C   UNL     1     -11.780  14.965  67.338  1.00  0.00    -0.293 A  
HETATM   20  N   UNL     1     -12.090  14.982  68.670  1.00  0.00    -0.583 NA 
HETATM   21  H   UNL     1     -12.291  15.823  69.212  1.00  0.00     0.000 HD 
ENDBRANCH  11  12
ENDBRANCH  10  11
ENDBRANCH   7  10
ENDBRANCH   6   7
ENDBRANCH   4   6
ENDBRANCH   2   4
TORSDOF 6
ENDMDL
MODEL      180
REMARK 921   NORMALIZED FREE ENERGY PREDICTED BY IDOCK:   -3.90 KCAL/MOL
REMARK 922        TOTAL FREE ENERGY PREDICTED BY IDOCK:   -5.65 KCAL/MOL
REMARK 923 INTER-LIGAND FREE ENERGY PREDICTED BY IDOCK:   -4.87 KCAL/MOL
REMARK 924 INTRA-LIGAND FREE ENERGY PREDICTED BY IDOCK:   -0.78 KCAL/MOL
REMARK 927      BINDING AFFINITY PREDICTED BY RF-SCORE:    0.00 PKD
ROOT
HETATM    1  C   UNL     1      -9.033   5.369  65.595  1.00  0.00    -0.160 C  
HETATM    2  C   UNL     1      -9.855   6.078  66.674  1.00  0.00    -0.164 C  
HETATM    3  C   UNL     1      -9.895   5.211  67.936  1.00  0.00    -0.199 C  
ENDROOT
BRANCH   2   4
HETATM    4  N   UNL     1      -9.247   7.388  66.927  1.00  0.00    -0.145 NA 
HETATM    5  H   UNL     1      -9.958   8.119  66.938  1.00  0.00     0.000 HD 
BRANCH   4   6
HETATM    6  C   UNL     1      -8.439   7.432  68.148  1.00  0.00    -0.124 C  
BRANCH   6   7
HETATM    7  C   UNL     1      -7.920   8.858  68.423  1.00  0.00    -0.105 C  
HETATM    8  H   UNL     1      -7.502  10.441  67.344  1.00  0.00     0.000 HD 
HETATM    9  O   UNL     1      -7.821   9.563  67.176  1.00  0.00    -0.095 OA 
BRANCH   7  10
HETATM   10  C   UNL     1      -8.873   9.551  69.412  1.00  0.00    -0.170 C  
BRANCH  10  11
HETATM   11  O   UNL     1     -10.232   9.341  69.025  1.00  0.00    -0.193 OA 
BRANCH  11  12
HETATM   12  C   UNL     1     -11.178   9.630  69.979  1.00  0.00    -0.231 A  
HETATM   13  C   UNL     1     -11.699  10.914  70.216  1.00  0.00    -0.437 A  
HETATM   14  C   UNL     1     -12.684  11.133  71.181  1.00  0.00    -0.510 A  
HETATM   15  C   UNL     1     -13.192  10.079  71.943  1.00  0.00    -0.557 A  
HETATM   16  C   UNL     1     -12.680   8.804  71.698  1.00  0.00    -0.348 A  
HETATM   17  C   UNL     1     -11.694   8.555  70.740  1.00  0.00    -0.228 A  
HETATM   18  C   UNL     1     -11.431   7.154  70.780  1.00  0.00    -0.342 A  
HETATM   19  C   UNL     1     -12.249   6.593  71.732  1.00  0.00    -0.353 A  
HETATM   20  N   UNL     1     -12.999   7.597  72.280  1.00  0.00    -0.507 NA 
HETATM   21  H   UNL     1     -13.696   7.470  73.015  1.00  0.00     0.000 HD 
ENDBRANCH  11  12
ENDBRANCH  10  11
ENDBRANCH   7  10
ENDBRANCH   6   7
ENDBRANCH   4   6
ENDBRANCH   2   4
TORSDOF 6
ENDMDL
MODEL      181
REMARK 921   NORMALIZED FREE ENERGY PREDICTED BY IDOCK:   -3.89 KCAL/MOL
REMARK 922        TOTAL FREE ENERGY PREDICTED BY IDOCK:   -5.64 KCAL/MOL
REMARK 923 INTER-LIGAND FREE ENERGY PREDICTED BY IDOCK:   -5.27 KCAL/MOL
REMARK 924 INTRA-LIGAND FREE ENERGY PREDICTED BY IDOCK:   -0.37 KCAL/MOL
REMARK 927      BINDING AFFINITY PREDICTED BY RF-SCORE:    0.00 PKD
ROOT
HETATM    1  C   UNL     1      -6.635  10.031  64.489  1.00  0.00    -0.129 C  
HETATM    2  C   UNL     1      -8.051   9.666  64.939  1.00  0.00    -0.133 C  
HETATM    3  C   UNL     1      -8.121   8.164  65.233  1.00  0.00    -0.136 C  
ENDROOT
BRANCH   2   4
HETATM    4  N   UNL     1      -8.379  10.472  66.119  1.00  0.00    -0.149 NA 
HETATM    5  H   UNL     1      -8.034  11.426  66.012  1.00  0.00     0.000 HD 
BRANCH   4   6
HETATM    6  C   UNL     1      -9.806  10.471  66.449  1.00  0.00    -0.210 C  
BRANCH   6   7
HETATM    7  C   UNL     1     -10.042  10.023  67.906  1.00  0.00    -0.169 C  
HETATM    8  H   UNL     1      -9.102  10.222  69.615  1.00  0.00     0.000 HD 
HETATM    9  O   UNL     1      -8.957  10.498  68.718  1.00  0.00    -0.149 OA 
BRANCH   7  10
HETATM   10  C   UNL     1     -11.404  10.564  68.377  1.00  0.00    -0.262 C  
BRANCH  10  11
HETATM   11  O   UNL     1     -11.262  11.888  68.894  1.00  0.00    -0.218 OA 
BRANCH  11  12
HETATM   12  C   UNL     1     -11.988  12.168  70.028  1.00  0.00    -0.315 A  
HETATM   13  C   UNL     1     -12.515  11.195  70.894  1.00  0.00    -0.509 A  
HETATM   14  C   UNL     1     -13.216  11.550  72.048  1.00  0.00    -0.443 A  
HETATM   15  C   UNL     1     -13.414  12.889  72.386  1.00  0.00    -0.573 A  
HETATM   16  C   UNL     1     -12.880  13.853  71.529  1.00  0.00    -0.361 A  
HETATM   17  C   UNL     1     -12.176  13.528  70.368  1.00  0.00    -0.426 A  
HETATM   18  C   UNL     1     -11.793  14.763  69.763  1.00  0.00    -0.362 A  
HETATM   19  C   UNL     1     -12.257  15.787  70.555  1.00  0.00    -0.363 A  
HETATM   20  N   UNL     1     -12.911  15.228  71.619  1.00  0.00    -0.361 NA 
HETATM   21  H   UNL     1     -13.356  15.754  72.371  1.00  0.00     0.000 HD 
ENDBRANCH  11  12
ENDBRANCH  10  11
ENDBRANCH   7  10
ENDBRANCH   6   7
ENDBRANCH   4   6
ENDBRANCH   2   4
TORSDOF 6
ENDMDL
MODEL      182
REMARK 921   NORMALIZED FREE ENERGY PREDICTED BY IDOCK:   -3.89 KCAL/MOL
REMARK 922        TOTAL FREE ENERGY PREDICTED BY IDOCK:   -5.64 KCAL/MOL
REMARK 923 INTER-LIGAND FREE ENERGY PREDICTED BY IDOCK:   -5.21 KCAL/MOL
REMARK 924 INTRA-LIGAND FREE ENERGY PREDICTED BY IDOCK:   -0.42 KCAL/MOL
REMARK 927      BINDING AFFINITY PREDICTED BY RF-SCORE:    0.00 PKD
ROOT
HETATM    1  C   UNL     1      -6.827  11.849  67.383  1.00  0.00    -0.130 C  
HETATM    2  C   UNL     1      -7.495  11.027  68.487  1.00  0.00    -0.106 C  
HETATM    3  C   UNL     1      -6.665  11.128  69.771  1.00  0.00    -0.121 C  
ENDROOT
BRANCH   2   4
HETATM    4  N   UNL     1      -8.859  11.532  68.674  1.00  0.00    -0.294 NA 
HETATM    5  H   UNL     1      -8.919  12.515  68.407  1.00  0.00     0.000 HD 
BRANCH   4   6
HETATM    6  C   UNL     1      -9.876  10.742  67.976  1.00  0.00    -0.165 C  
BRANCH   6   7
HETATM    7  C   UNL     1     -10.992  10.292  68.940  1.00  0.00    -0.238 C  
HETATM    8  H   UNL     1     -11.325   8.738  70.088  1.00  0.00     0.000 HD 
HETATM    9  O   UNL     1     -10.638   9.015  69.494  1.00  0.00    -0.223 OA 
BRANCH   7  10
HETATM   10  C   UNL     1     -11.174  11.369  70.025  1.00  0.00    -0.078 C  
BRANCH  10  11
HETATM   11  O   UNL     1     -12.282  12.213  69.706  1.00  0.00    -0.237 OA 
BRANCH  11  12
HETATM   12  C   UNL     1     -12.607  13.156  70.652  1.00  0.00    -0.211 A  
HETATM   13  C   UNL     1     -13.450  12.920  71.751  1.00  0.00    -0.369 A  
HETATM   14  C   UNL     1     -13.712  13.916  72.694  1.00  0.00    -0.582 A  
HETATM   15  C   UNL     1     -13.140  15.184  72.580  1.00  0.00    -0.488 A  
HETATM   16  C   UNL     1     -12.295  15.412  71.492  1.00  0.00    -0.377 A  
HETATM   17  C   UNL     1     -12.016  14.436  70.533  1.00  0.00    -0.395 A  
HETATM   18  C   UNL     1     -11.126  15.032  69.591  1.00  0.00    -0.291 A  
HETATM   19  C   UNL     1     -10.885  16.325  69.992  1.00  0.00    -0.329 A  
HETATM   20  N   UNL     1     -11.595  16.545  71.141  1.00  0.00    -0.578 NA 
HETATM   21  H   UNL     1     -11.603  17.421  71.663  1.00  0.00     0.000 HD 
ENDBRANCH  11  12
ENDBRANCH  10  11
ENDBRANCH   7  10
ENDBRANCH   6   7
ENDBRANCH   4   6
ENDBRANCH   2   4
TORSDOF 6
ENDMDL
MODEL      183
REMARK 921   NORMALIZED FREE ENERGY PREDICTED BY IDOCK:   -3.88 KCAL/MOL
REMARK 922        TOTAL FREE ENERGY PREDICTED BY IDOCK:   -5.62 KCAL/MOL
REMARK 923 INTER-LIGAND FREE ENERGY PREDICTED BY IDOCK:   -5.06 KCAL/MOL
REMARK 924 INTRA-LIGAND FREE ENERGY PREDICTED BY IDOCK:   -0.56 KCAL/MOL
REMARK 927      BINDING AFFINITY PREDICTED BY RF-SCORE:    0.00 PKD
ROOT
HETATM    1  C   UNL     1      -8.336   8.604  62.561  1.00  0.00    -0.195 C  
HETATM    2  C   UNL     1      -7.264   9.389  63.319  1.00  0.00    -0.097 C  
HETATM    3  C   UNL     1      -6.552  10.342  62.353  1.00  0.00    -0.137 C  
ENDROOT
BRANCH   2   4
HETATM    4  N   UNL     1      -7.914  10.107  64.419  1.00  0.00    -0.154 NA 
HETATM    5  H   UNL     1      -8.133  11.065  64.145  1.00  0.00     0.000 HD 
BRANCH   4   6
HETATM    6  C   UNL     1      -9.105   9.430  64.938  1.00  0.00    -0.202 C  
BRANCH   6   7
HETATM    7  C   UNL     1      -9.170   9.515  66.476  1.00  0.00    -0.160 C  
HETATM    8  H   UNL     1      -8.169   8.748  67.977  1.00  0.00     0.000 HD 
HETATM    9  O   UNL     1      -8.129   8.696  67.030  1.00  0.00    -0.099 OA 
BRANCH   7  10
HETATM   10  C   UNL     1      -9.039  10.990  66.897  1.00  0.00    -0.156 C  
BRANCH  10  11
HETATM   11  O   UNL     1     -10.328  11.602  66.972  1.00  0.00    -0.208 OA 
BRANCH  11  12
HETATM   12  C   UNL     1     -10.448  12.822  66.348  1.00  0.00    -0.250 A  
HETATM   13  C   UNL     1      -9.795  13.994  66.766  1.00  0.00    -0.275 A  
HETATM   14  C   UNL     1      -9.936  15.194  66.066  1.00  0.00    -0.335 A  
HETATM   15  C   UNL     1     -10.728  15.270  64.920  1.00  0.00    -0.423 A  
HETATM   16  C   UNL     1     -11.367  14.102  64.502  1.00  0.00    -0.348 A  
HETATM   17  C   UNL     1     -11.246  12.888  65.182  1.00  0.00    -0.319 A  
HETATM   18  C   UNL     1     -12.032  11.937  64.465  1.00  0.00    -0.281 A  
HETATM   19  C   UNL     1     -12.594  12.578  63.386  1.00  0.00    -0.312 A  
HETATM   20  N   UNL     1     -12.187  13.883  63.417  1.00  0.00    -1.102 NA 
HETATM   21  H   UNL     1     -12.451  14.593  62.733  1.00  0.00     0.000 HD 
ENDBRANCH  11  12
ENDBRANCH  10  11
ENDBRANCH   7  10
ENDBRANCH   6   7
ENDBRANCH   4   6
ENDBRANCH   2   4
TORSDOF 6
ENDMDL
MODEL      184
REMARK 921   NORMALIZED FREE ENERGY PREDICTED BY IDOCK:   -3.85 KCAL/MOL
REMARK 922        TOTAL FREE ENERGY PREDICTED BY IDOCK:   -5.58 KCAL/MOL
REMARK 923 INTER-LIGAND FREE ENERGY PREDICTED BY IDOCK:   -4.91 KCAL/MOL
REMARK 924 INTRA-LIGAND FREE ENERGY PREDICTED BY IDOCK:   -0.67 KCAL/MOL
REMARK 927      BINDING AFFINITY PREDICTED BY RF-SCORE:    0.00 PKD
ROOT
HETATM    1  C   UNL     1     -14.411   8.481  72.391  1.00  0.00    -0.412 C  
HETATM    2  C   UNL     1     -13.515   9.210  71.387  1.00  0.00    -0.298 C  
HETATM    3  C   UNL     1     -13.142  10.588  71.943  1.00  0.00    -0.567 C  
ENDROOT
BRANCH   2   4
HETATM    4  N   UNL     1     -12.332   8.379  71.140  1.00  0.00    -0.431 NA 
HETATM    5  H   UNL     1     -11.758   8.781  70.399  1.00  0.00     0.000 HD 
BRANCH   4   6
HETATM    6  C   UNL     1     -11.530   8.132  72.341  1.00  0.00    -0.397 C  
BRANCH   6   7
HETATM    7  C   UNL     1     -10.045   8.469  72.099  1.00  0.00    -0.323 C  
HETATM    8  H   UNL     1      -8.328   7.927  72.876  1.00  0.00     0.000 HD 
HETATM    9  O   UNL     1      -9.243   7.720  73.025  1.00  0.00    -0.177 OA 
BRANCH   7  10
HETATM   10  C   UNL     1      -9.696   8.153  70.634  1.00  0.00    -0.170 C  
BRANCH  10  11
HETATM   11  O   UNL     1      -8.972   9.236  70.050  1.00  0.00    -0.163 OA 
BRANCH  11  12
HETATM   12  C   UNL     1      -9.669  10.004  69.147  1.00  0.00    -0.209 A  
HETATM   13  C   UNL     1     -10.557  11.034  69.501  1.00  0.00    -0.182 A  
HETATM   14  C   UNL     1     -11.209  11.798  68.532  1.00  0.00    -0.306 A  
HETATM   15  C   UNL     1     -10.996  11.569  67.171  1.00  0.00    -0.338 A  
HETATM   16  C   UNL     1     -10.105  10.553  66.823  1.00  0.00    -0.219 A  
HETATM   17  C   UNL     1      -9.440   9.772  67.771  1.00  0.00    -0.152 A  
HETATM   18  C   UNL     1      -8.627   8.852  67.044  1.00  0.00    -0.120 A  
HETATM   19  C   UNL     1      -8.806   9.093  65.702  1.00  0.00    -0.185 A  
HETATM   20  N   UNL     1      -9.699  10.122  65.579  1.00  0.00    -0.260 NA 
HETATM   21  H   UNL     1     -10.019  10.514  64.693  1.00  0.00     0.000 HD 
ENDBRANCH  11  12
ENDBRANCH  10  11
ENDBRANCH   7  10
ENDBRANCH   6   7
ENDBRANCH   4   6
ENDBRANCH   2   4
TORSDOF 6
ENDMDL
MODEL      185
REMARK 921   NORMALIZED FREE ENERGY PREDICTED BY IDOCK:   -3.85 KCAL/MOL
REMARK 922        TOTAL FREE ENERGY PREDICTED BY IDOCK:   -5.58 KCAL/MOL
REMARK 923 INTER-LIGAND FREE ENERGY PREDICTED BY IDOCK:   -5.06 KCAL/MOL
REMARK 924 INTRA-LIGAND FREE ENERGY PREDICTED BY IDOCK:   -0.52 KCAL/MOL
REMARK 927      BINDING AFFINITY PREDICTED BY RF-SCORE:    0.00 PKD
ROOT
HETATM    1  C   UNL     1      -9.847  14.325  66.154  1.00  0.00    -0.335 C  
HETATM    2  C   UNL     1     -10.879  13.206  65.989  1.00  0.00    -0.272 C  
HETATM    3  C   UNL     1     -10.818  12.663  64.558  1.00  0.00    -0.365 C  
ENDROOT
BRANCH   2   4
HETATM    4  N   UNL     1     -10.592  12.168  66.983  1.00  0.00    -0.223 NA 
HETATM    5  H   UNL     1     -10.278  11.310  66.528  1.00  0.00     0.000 HD 
BRANCH   4   6
HETATM    6  C   UNL     1      -9.638  12.589  68.011  1.00  0.00    -0.212 C  
BRANCH   6   7
HETATM    7  C   UNL     1      -8.378  11.700  68.002  1.00  0.00    -0.148 C  
HETATM    8  H   UNL     1      -6.590  11.774  68.802  1.00  0.00     0.000 HD 
HETATM    9  O   UNL     1      -7.365  12.322  68.808  1.00  0.00    -0.109 OA 
BRANCH   7  10
HETATM   10  C   UNL     1      -8.757  10.299  68.518  1.00  0.00    -0.130 C  
BRANCH  10  11
HETATM   11  O   UNL     1      -9.760  10.396  69.530  1.00  0.00    -0.219 OA 
BRANCH  11  12
HETATM   12  C   UNL     1      -9.735   9.415  70.492  1.00  0.00    -0.271 A  
HETATM   13  C   UNL     1      -8.619   8.609  70.776  1.00  0.00    -0.197 A  
HETATM   14  C   UNL     1      -8.652   7.651  71.791  1.00  0.00    -0.130 A  
HETATM   15  C   UNL     1      -9.797   7.463  72.566  1.00  0.00    -0.213 A  
HETATM   16  C   UNL     1     -10.900   8.272  72.289  1.00  0.00    -0.338 A  
HETATM   17  C   UNL     1     -10.897   9.237  71.280  1.00  0.00    -0.417 A  
HETATM   18  C   UNL     1     -12.184   9.852  71.299  1.00  0.00    -0.480 A  
HETATM   19  C   UNL     1     -12.922   9.266  72.300  1.00  0.00    -0.412 A  
HETATM   20  N   UNL     1     -12.138   8.314  72.893  1.00  0.00    -0.582 NA 
HETATM   21  H   UNL     1     -12.429   7.721  73.670  1.00  0.00     0.000 HD 
ENDBRANCH  11  12
ENDBRANCH  10  11
ENDBRANCH   7  10
ENDBRANCH   6   7
ENDBRANCH   4   6
ENDBRANCH   2   4
TORSDOF 6
ENDMDL
MODEL      186
REMARK 921   NORMALIZED FREE ENERGY PREDICTED BY IDOCK:   -3.85 KCAL/MOL
REMARK 922        TOTAL FREE ENERGY PREDICTED BY IDOCK:   -5.57 KCAL/MOL
REMARK 923 INTER-LIGAND FREE ENERGY PREDICTED BY IDOCK:   -5.00 KCAL/MOL
REMARK 924 INTRA-LIGAND FREE ENERGY PREDICTED BY IDOCK:   -0.58 KCAL/MOL
REMARK 927      BINDING AFFINITY PREDICTED BY RF-SCORE:    0.00 PKD
ROOT
HETATM    1  C   UNL     1      -8.118   7.070  68.049  1.00  0.00    -0.119 C  
HETATM    2  C   UNL     1      -8.586   8.045  69.131  1.00  0.00    -0.137 C  
HETATM    3  C   UNL     1      -7.370   8.732  69.760  1.00  0.00    -0.052 C  
ENDROOT
BRANCH   2   4
HETATM    4  N   UNL     1      -9.503   9.009  68.515  1.00  0.00    -0.143 NA 
HETATM    5  H   UNL     1      -9.511   8.901  67.501  1.00  0.00     0.000 HD 
BRANCH   4   6
HETATM    6  C   UNL     1     -10.864   8.950  69.054  1.00  0.00    -0.046 C  
BRANCH   6   7
HETATM    7  C   UNL     1     -11.429  10.363  69.300  1.00  0.00    -0.215 C  
HETATM    8  H   UNL     1     -11.806  11.481  70.866  1.00  0.00     0.000 HD 
HETATM    9  O   UNL     1     -11.458  10.611  70.714  1.00  0.00    -0.327 OA 
BRANCH   7  10
HETATM   10  C   UNL     1     -10.557  11.384  68.546  1.00  0.00    -0.198 C  
BRANCH  10  11
HETATM   11  O   UNL     1     -10.920  11.423  67.165  1.00  0.00    -0.255 OA 
BRANCH  11  12
HETATM   12  C   UNL     1     -10.852  12.657  66.563  1.00  0.00    -0.258 A  
HETATM   13  C   UNL     1     -10.102  13.739  67.055  1.00  0.00    -0.256 A  
HETATM   14  C   UNL     1     -10.050  14.958  66.375  1.00  0.00    -0.296 A  
HETATM   15  C   UNL     1     -10.740  15.143  65.176  1.00  0.00    -0.442 A  
HETATM   16  C   UNL     1     -11.476  14.063  64.685  1.00  0.00    -0.383 A  
HETATM   17  C   UNL     1     -11.547  12.833  65.344  1.00  0.00    -0.393 A  
HETATM   18  C   UNL     1     -12.381  11.992  64.549  1.00  0.00    -0.300 A  
HETATM   19  C   UNL     1     -12.783  12.709  63.447  1.00  0.00    -0.125 A  
HETATM   20  N   UNL     1     -12.231  13.958  63.538  1.00  0.00    -1.050 NA 
HETATM   21  H   UNL     1     -12.360  14.704  62.854  1.00  0.00     0.000 HD 
ENDBRANCH  11  12
ENDBRANCH  10  11
ENDBRANCH   7  10
ENDBRANCH   6   7
ENDBRANCH   4   6
ENDBRANCH   2   4
TORSDOF 6
ENDMDL
MODEL      187
REMARK 921   NORMALIZED FREE ENERGY PREDICTED BY IDOCK:   -3.84 KCAL/MOL
REMARK 922        TOTAL FREE ENERGY PREDICTED BY IDOCK:   -5.57 KCAL/MOL
REMARK 923 INTER-LIGAND FREE ENERGY PREDICTED BY IDOCK:   -5.29 KCAL/MOL
REMARK 924 INTRA-LIGAND FREE ENERGY PREDICTED BY IDOCK:   -0.28 KCAL/MOL
REMARK 927      BINDING AFFINITY PREDICTED BY RF-SCORE:    0.00 PKD
ROOT
HETATM    1  C   UNL     1      -9.565   4.537  65.431  1.00  0.00    -0.185 C  
HETATM    2  C   UNL     1      -9.629   5.372  66.712  1.00  0.00    -0.147 C  
HETATM    3  C   UNL     1      -8.273   5.321  67.422  1.00  0.00    -0.103 C  
ENDROOT
BRANCH   2   4
HETATM    4  N   UNL     1     -10.008   6.741  66.349  1.00  0.00    -0.401 NA 
HETATM    5  H   UNL     1     -10.620   6.741  65.532  1.00  0.00     0.000 HD 
BRANCH   4   6
HETATM    6  C   UNL     1     -10.614   7.492  67.450  1.00  0.00    -0.294 C  
BRANCH   6   7
HETATM    7  C   UNL     1      -9.789   8.751  67.787  1.00  0.00    -0.174 C  
HETATM    8  H   UNL     1      -8.625   9.982  66.802  1.00  0.00     0.000 HD 
HETATM    9  O   UNL     1      -9.133   9.208  66.595  1.00  0.00    -0.137 OA 
BRANCH   7  10
HETATM   10  C   UNL     1     -10.729   9.815  68.381  1.00  0.00    -0.221 C  
BRANCH  10  11
HETATM   11  O   UNL     1     -10.216  10.294  69.625  1.00  0.00    -0.228 OA 
BRANCH  11  12
HETATM   12  C   UNL     1     -10.386   9.459  70.704  1.00  0.00    -0.284 A  
HETATM   13  C   UNL     1      -9.345   8.762  71.339  1.00  0.00    -0.328 A  
HETATM   14  C   UNL     1      -9.583   7.954  72.453  1.00  0.00    -0.270 A  
HETATM   15  C   UNL     1     -10.868   7.815  72.979  1.00  0.00    -0.451 A  
HETATM   16  C   UNL     1     -11.898   8.518  72.352  1.00  0.00    -0.367 A  
HETATM   17  C   UNL     1     -11.690   9.332  71.237  1.00  0.00    -0.416 A  
HETATM   18  C   UNL     1     -12.961   9.874  70.884  1.00  0.00    -0.351 A  
HETATM   19  C   UNL     1     -13.891   9.395  71.776  1.00  0.00    -0.286 A  
HETATM   20  N   UNL     1     -13.240   8.578  72.659  1.00  0.00    -0.642 NA 
HETATM   21  H   UNL     1     -13.684   8.084  73.434  1.00  0.00     0.000 HD 
ENDBRANCH  11  12
ENDBRANCH  10  11
ENDBRANCH   7  10
ENDBRANCH   6   7
ENDBRANCH   4   6
ENDBRANCH   2   4
TORSDOF 6
ENDMDL
MODEL      188
REMARK 921   NORMALIZED FREE ENERGY PREDICTED BY IDOCK:   -3.83 KCAL/MOL
REMARK 922        TOTAL FREE ENERGY PREDICTED BY IDOCK:   -5.55 KCAL/MOL
REMARK 923 INTER-LIGAND FREE ENERGY PREDICTED BY IDOCK:   -4.88 KCAL/MOL
REMARK 924 INTRA-LIGAND FREE ENERGY PREDICTED BY IDOCK:   -0.67 KCAL/MOL
REMARK 927      BINDING AFFINITY PREDICTED BY RF-SCORE:    0.00 PKD
ROOT
HETATM    1  C   UNL     1      -7.064  19.705  65.302  1.00  0.00    -0.133 C  
HETATM    2  C   UNL     1      -6.407  19.241  66.604  1.00  0.00    -0.185 C  
HETATM    3  C   UNL     1      -5.567  20.382  67.185  1.00  0.00    -0.196 C  
ENDROOT
BRANCH   2   4
HETATM    4  N   UNL     1      -7.465  18.814  67.524  1.00  0.00    -0.227 NA 
HETATM    5  H   UNL     1      -7.130  18.825  68.488  1.00  0.00     0.000 HD 
BRANCH   4   6
HETATM    6  C   UNL     1      -8.701  19.590  67.396  1.00  0.00    -0.308 C  
BRANCH   6   7
HETATM    7  C   UNL     1      -9.581  19.450  68.654  1.00  0.00    -0.426 C  
HETATM    8  H   UNL     1     -11.001  20.497  69.509  1.00  0.00     0.000 HD 
HETATM    9  O   UNL     1     -10.459  20.583  68.735  1.00  0.00    -0.124 OA 
BRANCH   7  10
HETATM   10  C   UNL     1     -10.351  18.119  68.576  1.00  0.00    -0.336 C  
BRANCH  10  11
HETATM   11  O   UNL     1      -9.443  17.028  68.410  1.00  0.00    -0.251 OA 
BRANCH  11  12
HETATM   12  C   UNL     1      -9.867  16.018  67.579  1.00  0.00    -0.235 A  
HETATM   13  C   UNL     1      -9.614  15.969  66.198  1.00  0.00    -0.366 A  
HETATM   14  C   UNL     1     -10.046  14.896  65.416  1.00  0.00    -0.400 A  
HETATM   15  C   UNL     1     -10.742  13.828  65.983  1.00  0.00    -0.284 A  
HETATM   16  C   UNL     1     -10.983  13.875  67.357  1.00  0.00    -0.288 A  
HETATM   17  C   UNL     1     -10.564  14.935  68.163  1.00  0.00    -0.244 A  
HETATM   18  C   UNL     1     -10.987  14.631  69.491  1.00  0.00    -0.269 A  
HETATM   19  C   UNL     1     -11.633  13.417  69.465  1.00  0.00    -0.290 A  
HETATM   20  N   UNL     1     -11.624  12.968  68.173  1.00  0.00    -0.319 NA 
HETATM   21  H   UNL     1     -12.034  12.088  67.858  1.00  0.00     0.000 HD 
ENDBRANCH  11  12
ENDBRANCH  10  11
ENDBRANCH   7  10
ENDBRANCH   6   7
ENDBRANCH   4   6
ENDBRANCH   2   4
TORSDOF 6
ENDMDL
MODEL      189
REMARK 921   NORMALIZED FREE ENERGY PREDICTED BY IDOCK:   -3.83 KCAL/MOL
REMARK 922        TOTAL FREE ENERGY PREDICTED BY IDOCK:   -5.55 KCAL/MOL
REMARK 923 INTER-LIGAND FREE ENERGY PREDICTED BY IDOCK:   -5.20 KCAL/MOL
REMARK 924 INTRA-LIGAND FREE ENERGY PREDICTED BY IDOCK:   -0.35 KCAL/MOL
REMARK 927      BINDING AFFINITY PREDICTED BY RF-SCORE:    0.00 PKD
ROOT
HETATM    1  C   UNL     1     -10.562  19.818  65.799  1.00  0.00    -0.522 C  
HETATM    2  C   UNL     1      -9.528  20.043  66.905  1.00  0.00    -0.402 C  
HETATM    3  C   UNL     1     -10.205  19.904  68.272  1.00  0.00    -0.562 C  
ENDROOT
BRANCH   2   4
HETATM    4  N   UNL     1      -8.447  19.070  66.726  1.00  0.00    -0.287 NA 
HETATM    5  H   UNL     1      -7.539  19.503  66.899  1.00  0.00     0.000 HD 
BRANCH   4   6
HETATM    6  C   UNL     1      -8.607  17.861  67.538  1.00  0.00    -0.239 C  
BRANCH   6   7
HETATM    7  C   UNL     1      -8.313  16.592  66.713  1.00  0.00    -0.239 C  
HETATM    8  H   UNL     1      -6.947  15.186  66.722  1.00  0.00     0.000 HD 
HETATM    9  O   UNL     1      -7.128  15.967  67.230  1.00  0.00    -0.174 OA 
BRANCH   7  10
HETATM   10  C   UNL     1      -9.539  15.663  66.778  1.00  0.00    -0.240 C  
BRANCH  10  11
HETATM   11  O   UNL     1      -9.145  14.304  66.579  1.00  0.00    -0.249 OA 
BRANCH  11  12
HETATM   12  C   UNL     1      -9.960  13.355  67.149  1.00  0.00    -0.242 A  
HETATM   13  C   UNL     1     -10.865  13.610  68.193  1.00  0.00    -0.262 A  
HETATM   14  C   UNL     1     -11.689  12.605  68.705  1.00  0.00    -0.364 A  
HETATM   15  C   UNL     1     -11.646  11.309  68.190  1.00  0.00    -0.359 A  
HETATM   16  C   UNL     1     -10.753  11.061  67.146  1.00  0.00    -0.265 A  
HETATM   17  C   UNL     1      -9.917  12.046  66.616  1.00  0.00    -0.219 A  
HETATM   18  C   UNL     1      -9.160  11.424  65.579  1.00  0.00    -0.149 A  
HETATM   19  C   UNL     1      -9.549  10.107  65.499  1.00  0.00    -0.250 A  
HETATM   20  N   UNL     1     -10.511   9.898  66.448  1.00  0.00    -0.172 NA 
HETATM   21  H   UNL     1     -10.983   9.009  66.615  1.00  0.00     0.000 HD 
ENDBRANCH  11  12
ENDBRANCH  10  11
ENDBRANCH   7  10
ENDBRANCH   6   7
ENDBRANCH   4   6
ENDBRANCH   2   4
TORSDOF 6
ENDMDL
MODEL      190
REMARK 921   NORMALIZED FREE ENERGY PREDICTED BY IDOCK:   -3.83 KCAL/MOL
REMARK 922        TOTAL FREE ENERGY PREDICTED BY IDOCK:   -5.55 KCAL/MOL
REMARK 923 INTER-LIGAND FREE ENERGY PREDICTED BY IDOCK:   -5.16 KCAL/MOL
REMARK 924 INTRA-LIGAND FREE ENERGY PREDICTED BY IDOCK:   -0.39 KCAL/MOL
REMARK 927      BINDING AFFINITY PREDICTED BY RF-SCORE:    0.00 PKD
ROOT
HETATM    1  C   UNL     1      -9.807  10.908  69.212  1.00  0.00    -0.113 C  
HETATM    2  C   UNL     1      -9.291  11.370  67.847  1.00  0.00    -0.164 C  
HETATM    3  C   UNL     1      -9.347  10.201  66.859  1.00  0.00    -0.185 C  
ENDROOT
BRANCH   2   4
HETATM    4  N   UNL     1     -10.112  12.502  67.406  1.00  0.00    -0.209 NA 
HETATM    5  H   UNL     1     -10.378  13.085  68.199  1.00  0.00     0.000 HD 
BRANCH   4   6
HETATM    6  C   UNL     1      -9.483  13.308  66.357  1.00  0.00    -0.217 C  
BRANCH   6   7
HETATM    7  C   UNL     1     -10.530  14.140  65.589  1.00  0.00    -0.321 C  
HETATM    8  H   UNL     1     -12.348  13.849  64.915  1.00  0.00     0.000 HD 
HETATM    9  O   UNL     1     -11.703  13.337  65.388  1.00  0.00    -0.320 OA 
BRANCH   7  10
HETATM   10  C   UNL     1     -10.828  15.421  66.389  1.00  0.00    -0.303 C  
BRANCH  10  11
HETATM   11  O   UNL     1      -9.627  15.943  66.958  1.00  0.00    -0.217 OA 
BRANCH  11  12
HETATM   12  C   UNL     1      -9.574  17.311  67.093  1.00  0.00    -0.257 A  
HETATM   13  C   UNL     1     -10.527  18.198  66.564  1.00  0.00    -0.356 A  
HETATM   14  C   UNL     1     -10.431  19.576  66.766  1.00  0.00    -0.590 A  
HETATM   15  C   UNL     1      -9.383  20.122  67.509  1.00  0.00    -0.507 A  
HETATM   16  C   UNL     1      -8.444  19.238  68.042  1.00  0.00    -0.317 A  
HETATM   17  C   UNL     1      -8.514  17.855  67.855  1.00  0.00    -0.251 A  
HETATM   18  C   UNL     1      -7.396  17.293  68.540  1.00  0.00    -0.235 A  
HETATM   19  C   UNL     1      -6.691  18.321  69.120  1.00  0.00    -0.249 A  
HETATM   20  N   UNL     1      -7.332  19.491  68.815  1.00  0.00    -0.349 NA 
HETATM   21  H   UNL     1      -7.030  20.417  69.117  1.00  0.00     0.000 HD 
ENDBRANCH  11  12
ENDBRANCH  10  11
ENDBRANCH   7  10
ENDBRANCH   6   7
ENDBRANCH   4   6
ENDBRANCH   2   4
TORSDOF 6
ENDMDL
MODEL      191
REMARK 921   NORMALIZED FREE ENERGY PREDICTED BY IDOCK:   -3.82 KCAL/MOL
REMARK 922        TOTAL FREE ENERGY PREDICTED BY IDOCK:   -5.54 KCAL/MOL
REMARK 923 INTER-LIGAND FREE ENERGY PREDICTED BY IDOCK:   -4.78 KCAL/MOL
REMARK 924 INTRA-LIGAND FREE ENERGY PREDICTED BY IDOCK:   -0.76 KCAL/MOL
REMARK 927      BINDING AFFINITY PREDICTED BY RF-SCORE:    0.00 PKD
ROOT
HETATM    1  C   UNL     1     -11.550   8.383  72.277  1.00  0.00    -0.453 C  
HETATM    2  C   UNL     1     -10.577   9.282  71.513  1.00  0.00    -0.335 C  
HETATM    3  C   UNL     1      -9.329   8.478  71.136  1.00  0.00    -0.249 C  
ENDROOT
BRANCH   2   4
HETATM    4  N   UNL     1     -11.269   9.808  70.332  1.00  0.00    -0.278 NA 
HETATM    5  H   UNL     1     -11.891   9.103  69.935  1.00  0.00     0.000 HD 
BRANCH   4   6
HETATM    6  C   UNL     1     -11.993  11.055  70.585  1.00  0.00    -0.365 C  
BRANCH   6   7
HETATM    7  C   UNL     1     -11.858  12.030  69.398  1.00  0.00    -0.324 C  
HETATM    8  H   UNL     1     -11.507  13.946  69.175  1.00  0.00     0.000 HD 
HETATM    9  O   UNL     1     -11.590  13.346  69.906  1.00  0.00    -0.267 OA 
BRANCH   7  10
HETATM   10  C   UNL     1     -10.741  11.525  68.466  1.00  0.00    -0.209 C  
BRANCH  10  11
HETATM   11  O   UNL     1     -11.300  10.837  67.346  1.00  0.00    -0.416 OA 
BRANCH  11  12
HETATM   12  C   UNL     1     -10.398  10.221  66.512  1.00  0.00    -0.211 A  
HETATM   13  C   UNL     1      -9.547  10.900  65.623  1.00  0.00    -0.268 A  
HETATM   14  C   UNL     1      -8.630  10.213  64.825  1.00  0.00    -0.191 A  
HETATM   15  C   UNL     1      -8.522   8.823  64.887  1.00  0.00    -0.189 A  
HETATM   16  C   UNL     1      -9.361   8.153  65.778  1.00  0.00     0.017 A  
HETATM   17  C   UNL     1     -10.289   8.813  66.587  1.00  0.00    -0.298 A  
HETATM   18  C   UNL     1     -10.953   7.807  67.351  1.00  0.00    -0.060 A  
HETATM   19  C   UNL     1     -10.422   6.587  67.003  1.00  0.00    -0.295 A  
HETATM   20  N   UNL     1      -9.461   6.807  66.053  1.00  0.00    -0.391 NA 
HETATM   21  H   UNL     1      -8.900   6.077  65.613  1.00  0.00     0.000 HD 
ENDBRANCH  11  12
ENDBRANCH  10  11
ENDBRANCH   7  10
ENDBRANCH   6   7
ENDBRANCH   4   6
ENDBRANCH   2   4
TORSDOF 6
ENDMDL
MODEL      192
REMARK 921   NORMALIZED FREE ENERGY PREDICTED BY IDOCK:   -3.82 KCAL/MOL
REMARK 922        TOTAL FREE ENERGY PREDICTED BY IDOCK:   -5.54 KCAL/MOL
REMARK 923 INTER-LIGAND FREE ENERGY PREDICTED BY IDOCK:   -5.11 KCAL/MOL
REMARK 924 INTRA-LIGAND FREE ENERGY PREDICTED BY IDOCK:   -0.43 KCAL/MOL
REMARK 927      BINDING AFFINITY PREDICTED BY RF-SCORE:    0.00 PKD
ROOT
HETATM    1  C   UNL     1      -6.879   7.281  62.882  1.00  0.00    -0.054 C  
HETATM    2  C   UNL     1      -7.378   7.251  64.328  1.00  0.00    -0.086 C  
HETATM    3  C   UNL     1      -6.292   7.806  65.254  1.00  0.00    -0.038 C  
ENDROOT
BRANCH   2   4
HETATM    4  N   UNL     1      -8.616   8.033  64.403  1.00  0.00    -0.384 NA 
HETATM    5  H   UNL     1      -9.431   7.420  64.383  1.00  0.00     0.000 HD 
BRANCH   4   6
HETATM    6  C   UNL     1      -8.671   8.932  65.558  1.00  0.00    -0.183 C  
BRANCH   6   7
HETATM    7  C   UNL     1      -9.927   8.665  66.413  1.00  0.00    -0.260 C  
HETATM    8  H   UNL     1     -10.467   7.343  67.756  1.00  0.00     0.000 HD 
HETATM    9  O   UNL     1      -9.694   7.507  67.229  1.00  0.00    -0.147 OA 
BRANCH   7  10
HETATM   10  C   UNL     1     -10.232   9.920  67.251  1.00  0.00    -0.222 C  
BRANCH  10  11
HETATM   11  O   UNL     1      -9.736  11.088  66.596  1.00  0.00    -0.188 OA 
BRANCH  11  12
HETATM   12  C   UNL     1     -10.685  12.002  66.204  1.00  0.00    -0.275 A  
HETATM   13  C   UNL     1     -11.330  11.990  64.956  1.00  0.00    -0.365 A  
HETATM   14  C   UNL     1     -12.310  12.931  64.633  1.00  0.00    -0.501 A  
HETATM   15  C   UNL     1     -12.688  13.917  65.546  1.00  0.00    -0.536 A  
HETATM   16  C   UNL     1     -12.053  13.920  66.788  1.00  0.00    -0.439 A  
HETATM   17  C   UNL     1     -11.069  12.993  67.138  1.00  0.00    -0.304 A  
HETATM   18  C   UNL     1     -10.661  13.311  68.467  1.00  0.00    -0.280 A  
HETATM   19  C   UNL     1     -11.394  14.395  68.890  1.00  0.00    -0.274 A  
HETATM   20  N   UNL     1     -12.232  14.755  67.869  1.00  0.00    -0.572 NA 
HETATM   21  H   UNL     1     -12.894  15.530  67.905  1.00  0.00     0.000 HD 
ENDBRANCH  11  12
ENDBRANCH  10  11
ENDBRANCH   7  10
ENDBRANCH   6   7
ENDBRANCH   4   6
ENDBRANCH   2   4
TORSDOF 6
ENDMDL
MODEL      193
REMARK 921   NORMALIZED FREE ENERGY PREDICTED BY IDOCK:   -3.81 KCAL/MOL
REMARK 922        TOTAL FREE ENERGY PREDICTED BY IDOCK:   -5.52 KCAL/MOL
REMARK 923 INTER-LIGAND FREE ENERGY PREDICTED BY IDOCK:   -4.87 KCAL/MOL
REMARK 924 INTRA-LIGAND FREE ENERGY PREDICTED BY IDOCK:   -0.65 KCAL/MOL
REMARK 927      BINDING AFFINITY PREDICTED BY RF-SCORE:    0.00 PKD
ROOT
HETATM    1  C   UNL     1      -9.066   8.238  68.135  1.00  0.00    -0.134 C  
HETATM    2  C   UNL     1      -9.231   9.726  68.449  1.00  0.00    -0.130 C  
HETATM    3  C   UNL     1      -8.292  10.112  69.596  1.00  0.00    -0.174 C  
ENDROOT
BRANCH   2   4
HETATM    4  N   UNL     1      -8.948  10.487  67.228  1.00  0.00    -0.139 NA 
HETATM    5  H   UNL     1      -7.944  10.516  67.047  1.00  0.00     0.000 HD 
BRANCH   4   6
HETATM    6  C   UNL     1      -9.673   9.999  66.053  1.00  0.00    -0.240 C  
BRANCH   6   7
HETATM    7  C   UNL     1     -10.117  11.166  65.147  1.00  0.00    -0.281 C  
HETATM    8  H   UNL     1     -10.606  11.383  63.261  1.00  0.00     0.000 HD 
HETATM    9  O   UNL     1     -10.333  10.665  63.819  1.00  0.00    -0.297 OA 
BRANCH   7  10
HETATM   10  C   UNL     1     -11.384  11.804  65.745  1.00  0.00    -0.250 C  
BRANCH  10  11
HETATM   11  O   UNL     1     -11.059  13.024  66.411  1.00  0.00    -0.278 OA 
BRANCH  11  12
HETATM   12  C   UNL     1     -11.412  13.094  67.739  1.00  0.00    -0.313 A  
HETATM   13  C   UNL     1     -11.813  11.991  68.511  1.00  0.00    -0.369 A  
HETATM   14  C   UNL     1     -12.127  12.126  69.865  1.00  0.00    -0.324 A  
HETATM   15  C   UNL     1     -12.048  13.365  70.502  1.00  0.00    -0.399 A  
HETATM   16  C   UNL     1     -11.639  14.457  69.734  1.00  0.00    -0.298 A  
HETATM   17  C   UNL     1     -11.320  14.352  68.378  1.00  0.00    -0.312 A  
HETATM   18  C   UNL     1     -10.952  15.660  67.943  1.00  0.00    -0.319 A  
HETATM   19  C   UNL     1     -11.047  16.510  69.019  1.00  0.00    -0.284 A  
HETATM   20  N   UNL     1     -11.462  15.774  70.096  1.00  0.00    -0.330 NA 
HETATM   21  H   UNL     1     -11.616  16.148  71.033  1.00  0.00     0.000 HD 
ENDBRANCH  11  12
ENDBRANCH  10  11
ENDBRANCH   7  10
ENDBRANCH   6   7
ENDBRANCH   4   6
ENDBRANCH   2   4
TORSDOF 6
ENDMDL
MODEL      194
REMARK 921   NORMALIZED FREE ENERGY PREDICTED BY IDOCK:   -3.81 KCAL/MOL
REMARK 922        TOTAL FREE ENERGY PREDICTED BY IDOCK:   -5.52 KCAL/MOL
REMARK 923 INTER-LIGAND FREE ENERGY PREDICTED BY IDOCK:   -4.89 KCAL/MOL
REMARK 924 INTRA-LIGAND FREE ENERGY PREDICTED BY IDOCK:   -0.62 KCAL/MOL
REMARK 927      BINDING AFFINITY PREDICTED BY RF-SCORE:    0.00 PKD
ROOT
HETATM    1  C   UNL     1      -9.887  11.230  68.767  1.00  0.00    -0.194 C  
HETATM    2  C   UNL     1      -9.738  10.823  67.300  1.00  0.00    -0.161 C  
HETATM    3  C   UNL     1      -9.682   9.296  67.197  1.00  0.00    -0.225 C  
ENDROOT
BRANCH   2   4
HETATM    4  N   UNL     1     -10.868  11.382  66.552  1.00  0.00    -0.281 NA 
HETATM    5  H   UNL     1     -11.359  12.082  67.109  1.00  0.00     0.000 HD 
BRANCH   4   6
HETATM    6  C   UNL     1     -10.493  11.929  65.246  1.00  0.00    -0.275 C  
BRANCH   6   7
HETATM    7  C   UNL     1     -11.544  12.938  64.740  1.00  0.00    -0.331 C  
HETATM    8  H   UNL     1     -13.469  13.215  64.986  1.00  0.00     0.000 HD 
HETATM    9  O   UNL     1     -12.822  12.594  65.298  1.00  0.00    -0.656 OA 
BRANCH   7  10
HETATM   10  C   UNL     1     -11.098  14.358  65.133  1.00  0.00    -0.362 C  
BRANCH  10  11
HETATM   11  O   UNL     1     -10.663  14.384  66.493  1.00  0.00    -0.298 OA 
BRANCH  11  12
HETATM   12  C   UNL     1      -9.454  14.998  66.723  1.00  0.00    -0.246 A  
HETATM   13  C   UNL     1      -8.273  14.320  67.068  1.00  0.00    -0.116 A  
HETATM   14  C   UNL     1      -7.070  15.003  67.256  1.00  0.00    -0.134 A  
HETATM   15  C   UNL     1      -6.998  16.389  67.102  1.00  0.00    -0.239 A  
HETATM   16  C   UNL     1      -8.170  17.058  66.749  1.00  0.00    -0.238 A  
HETATM   17  C   UNL     1      -9.388  16.401  66.556  1.00  0.00    -0.300 A  
HETATM   18  C   UNL     1     -10.342  17.404  66.211  1.00  0.00    -0.330 A  
HETATM   19  C   UNL     1      -9.698  18.619  66.195  1.00  0.00    -0.239 A  
HETATM   20  N   UNL     1      -8.387  18.399  66.521  1.00  0.00    -0.269 NA 
HETATM   21  H   UNL     1      -7.673  19.125  66.585  1.00  0.00     0.000 HD 
ENDBRANCH  11  12
ENDBRANCH  10  11
ENDBRANCH   7  10
ENDBRANCH   6   7
ENDBRANCH   4   6
ENDBRANCH   2   4
TORSDOF 6
ENDMDL
MODEL      195
REMARK 921   NORMALIZED FREE ENERGY PREDICTED BY IDOCK:   -3.79 KCAL/MOL
REMARK 922        TOTAL FREE ENERGY PREDICTED BY IDOCK:   -5.49 KCAL/MOL
REMARK 923 INTER-LIGAND FREE ENERGY PREDICTED BY IDOCK:   -4.99 KCAL/MOL
REMARK 924 INTRA-LIGAND FREE ENERGY PREDICTED BY IDOCK:   -0.51 KCAL/MOL
REMARK 927      BINDING AFFINITY PREDICTED BY RF-SCORE:    0.00 PKD
ROOT
HETATM    1  C   UNL     1      -8.561   9.106  62.732  1.00  0.00    -0.209 C  
HETATM    2  C   UNL     1      -7.637   9.762  63.760  1.00  0.00    -0.131 C  
HETATM    3  C   UNL     1      -6.377  10.276  63.058  1.00  0.00    -0.138 C  
ENDROOT
BRANCH   2   4
HETATM    4  N   UNL     1      -8.378  10.841  64.420  1.00  0.00    -0.367 NA 
HETATM    5  H   UNL     1      -8.206  11.733  63.954  1.00  0.00     0.000 HD 
BRANCH   4   6
HETATM    6  C   UNL     1      -9.815  10.583  64.530  1.00  0.00    -0.337 C  
BRANCH   6   7
HETATM    7  C   UNL     1     -10.205  10.205  65.974  1.00  0.00    -0.218 C  
HETATM    8  H   UNL     1     -10.179   8.576  67.064  1.00  0.00     0.000 HD 
HETATM    9  O   UNL     1      -9.939   8.808  66.176  1.00  0.00    -0.275 OA 
BRANCH   7  10
HETATM   10  C   UNL     1      -9.416  11.097  66.950  1.00  0.00    -0.185 C  
BRANCH  10  11
HETATM   11  O   UNL     1      -9.937  12.427  66.941  1.00  0.00    -0.210 OA 
BRANCH  11  12
HETATM   12  C   UNL     1     -10.708  12.775  68.025  1.00  0.00    -0.230 A  
HETATM   13  C   UNL     1     -11.231  11.859  68.953  1.00  0.00    -0.310 A  
HETATM   14  C   UNL     1     -11.980  12.283  70.052  1.00  0.00    -0.379 A  
HETATM   15  C   UNL     1     -12.232  13.638  70.271  1.00  0.00    -0.423 A  
HETATM   16  C   UNL     1     -11.702  14.546  69.353  1.00  0.00    -0.318 A  
HETATM   17  C   UNL     1     -10.950  14.151  68.244  1.00  0.00    -0.266 A  
HETATM   18  C   UNL     1     -10.588  15.343  67.550  1.00  0.00    -0.283 A  
HETATM   19  C   UNL     1     -11.109  16.413  68.240  1.00  0.00    -0.337 A  
HETATM   20  N   UNL     1     -11.778  15.922  69.327  1.00  0.00    -0.370 NA 
HETATM   21  H   UNL     1     -12.265  16.493  70.018  1.00  0.00     0.000 HD 
ENDBRANCH  11  12
ENDBRANCH  10  11
ENDBRANCH   7  10
ENDBRANCH   6   7
ENDBRANCH   4   6
ENDBRANCH   2   4
TORSDOF 6
ENDMDL
MODEL      196
REMARK 921   NORMALIZED FREE ENERGY PREDICTED BY IDOCK:   -3.78 KCAL/MOL
REMARK 922        TOTAL FREE ENERGY PREDICTED BY IDOCK:   -5.49 KCAL/MOL
REMARK 923 INTER-LIGAND FREE ENERGY PREDICTED BY IDOCK:   -4.76 KCAL/MOL
REMARK 924 INTRA-LIGAND FREE ENERGY PREDICTED BY IDOCK:   -0.72 KCAL/MOL
REMARK 927      BINDING AFFINITY PREDICTED BY RF-SCORE:    0.00 PKD
ROOT
HETATM    1  C   UNL     1      -7.025   6.101  69.967  1.00  0.00    -0.070 C  
HETATM    2  C   UNL     1      -8.309   5.376  69.558  1.00  0.00    -0.100 C  
HETATM    3  C   UNL     1      -9.082   4.961  70.813  1.00  0.00    -0.181 C  
ENDROOT
BRANCH   2   4
HETATM    4  N   UNL     1      -9.091   6.275  68.703  1.00  0.00    -0.127 NA 
HETATM    5  H   UNL     1     -10.012   6.445  69.107  1.00  0.00     0.000 HD 
BRANCH   4   6
HETATM    6  C   UNL     1      -8.412   7.539  68.408  1.00  0.00    -0.125 C  
BRANCH   6   7
HETATM    7  C   UNL     1      -9.242   8.404  67.438  1.00  0.00    -0.140 C  
HETATM    8  H   UNL     1     -10.031   8.171  65.659  1.00  0.00     0.000 HD 
HETATM    9  O   UNL     1      -9.520   7.638  66.256  1.00  0.00    -0.176 OA 
BRANCH   7  10
HETATM   10  C   UNL     1     -10.526   8.860  68.155  1.00  0.00    -0.202 C  
BRANCH  10  11
HETATM   11  O   UNL     1     -10.225   9.306  69.478  1.00  0.00    -0.191 OA 
BRANCH  11  12
HETATM   12  C   UNL     1     -11.240   9.180  70.397  1.00  0.00    -0.240 A  
HETATM   13  C   UNL     1     -11.628   7.965  70.988  1.00  0.00    -0.299 A  
HETATM   14  C   UNL     1     -12.647   7.912  71.941  1.00  0.00    -0.348 A  
HETATM   15  C   UNL     1     -13.315   9.069  72.345  1.00  0.00    -0.516 A  
HETATM   16  C   UNL     1     -12.920  10.275  71.764  1.00  0.00    -0.469 A  
HETATM   17  C   UNL     1     -11.905  10.358  70.808  1.00  0.00    -0.466 A  
HETATM   18  C   UNL     1     -11.789  11.736  70.455  1.00  0.00    -0.362 A  
HETATM   19  C   UNL     1     -12.709  12.444  71.191  1.00  0.00    -0.240 A  
HETATM   20  N   UNL     1     -13.386  11.553  71.979  1.00  0.00    -0.511 NA 
HETATM   21  H   UNL     1     -14.130  11.801  72.633  1.00  0.00     0.000 HD 
ENDBRANCH  11  12
ENDBRANCH  10  11
ENDBRANCH   7  10
ENDBRANCH   6   7
ENDBRANCH   4   6
ENDBRANCH   2   4
TORSDOF 6
ENDMDL
MODEL      197
REMARK 921   NORMALIZED FREE ENERGY PREDICTED BY IDOCK:   -3.78 KCAL/MOL
REMARK 922        TOTAL FREE ENERGY PREDICTED BY IDOCK:   -5.48 KCAL/MOL
REMARK 923 INTER-LIGAND FREE ENERGY PREDICTED BY IDOCK:   -4.85 KCAL/MOL
REMARK 924 INTRA-LIGAND FREE ENERGY PREDICTED BY IDOCK:   -0.63 KCAL/MOL
REMARK 927      BINDING AFFINITY PREDICTED BY RF-SCORE:    0.00 PKD
ROOT
HETATM    1  C   UNL     1      -9.042  11.137  62.561  1.00  0.00    -0.347 C  
HETATM    2  C   UNL     1      -9.667  11.110  63.958  1.00  0.00    -0.283 C  
HETATM    3  C   UNL     1      -8.974  10.039  64.805  1.00  0.00    -0.247 C  
ENDROOT
BRANCH   2   4
HETATM    4  N   UNL     1      -9.534  12.446  64.546  1.00  0.00    -0.389 NA 
HETATM    5  H   UNL     1      -9.276  13.130  63.833  1.00  0.00     0.000 HD 
BRANCH   4   6
HETATM    6  C   UNL     1     -10.724  12.885  65.277  1.00  0.00    -0.296 C  
BRANCH   6   7
HETATM    7  C   UNL     1     -10.366  13.337  66.707  1.00  0.00    -0.257 C  
HETATM    8  H   UNL     1      -8.878  13.045  67.950  1.00  0.00     0.000 HD 
HETATM    9  O   UNL     1      -9.099  12.767  67.070  1.00  0.00    -0.207 OA 
BRANCH   7  10
HETATM   10  C   UNL     1     -10.347  14.876  66.750  1.00  0.00    -0.269 C  
BRANCH  10  11
HETATM   11  O   UNL     1      -9.278  15.383  65.949  1.00  0.00    -0.327 OA 
BRANCH  11  12
HETATM   12  C   UNL     1      -8.366  16.177  66.603  1.00  0.00    -0.286 A  
HETATM   13  C   UNL     1      -7.197  15.700  67.221  1.00  0.00    -0.252 A  
HETATM   14  C   UNL     1      -6.295  16.568  67.840  1.00  0.00    -0.151 A  
HETATM   15  C   UNL     1      -6.521  17.945  67.862  1.00  0.00    -0.183 A  
HETATM   16  C   UNL     1      -7.677  18.416  67.239  1.00  0.00    -0.223 A  
HETATM   17  C   UNL     1      -8.598  17.573  66.613  1.00  0.00    -0.284 A  
HETATM   18  C   UNL     1      -9.634  18.409  66.099  1.00  0.00    -0.195 A  
HETATM   19  C   UNL     1      -9.324  19.712  66.410  1.00  0.00    -0.387 A  
HETATM   20  N   UNL     1      -8.141  19.706  67.098  1.00  0.00    -0.273 NA 
HETATM   21  H   UNL     1      -7.670  20.538  67.454  1.00  0.00     0.000 HD 
ENDBRANCH  11  12
ENDBRANCH  10  11
ENDBRANCH   7  10
ENDBRANCH   6   7
ENDBRANCH   4   6
ENDBRANCH   2   4
TORSDOF 6
ENDMDL
MODEL      198
REMARK 921   NORMALIZED FREE ENERGY PREDICTED BY IDOCK:   -3.78 KCAL/MOL
REMARK 922        TOTAL FREE ENERGY PREDICTED BY IDOCK:   -5.48 KCAL/MOL
REMARK 923 INTER-LIGAND FREE ENERGY PREDICTED BY IDOCK:   -5.09 KCAL/MOL
REMARK 924 INTRA-LIGAND FREE ENERGY PREDICTED BY IDOCK:   -0.39 KCAL/MOL
REMARK 927      BINDING AFFINITY PREDICTED BY RF-SCORE:    0.00 PKD
ROOT
HETATM    1  C   UNL     1     -11.823  15.906  69.104  1.00  0.00    -0.340 C  
HETATM    2  C   UNL     1     -11.234  15.108  67.939  1.00  0.00    -0.329 C  
HETATM    3  C   UNL     1      -9.763  15.490  67.752  1.00  0.00    -0.211 C  
ENDROOT
BRANCH   2   4
HETATM    4  N   UNL     1     -11.399  13.681  68.230  1.00  0.00    -0.271 NA 
HETATM    5  H   UNL     1     -12.210  13.527  68.830  1.00  0.00     0.000 HD 
BRANCH   4   6
HETATM    6  C   UNL     1     -11.474  12.844  67.031  1.00  0.00    -0.339 C  
BRANCH   6   7
HETATM    7  C   UNL     1     -10.796  11.478  67.260  1.00  0.00    -0.256 C  
HETATM    8  H   UNL     1      -8.992  10.854  67.706  1.00  0.00     0.000 HD 
HETATM    9  O   UNL     1      -9.410  11.695  67.565  1.00  0.00    -0.164 OA 
BRANCH   7  10
HETATM   10  C   UNL     1     -11.535  10.741  68.391  1.00  0.00    -0.288 C  
BRANCH  10  11
HETATM   11  O   UNL     1     -10.599  10.113  69.269  1.00  0.00    -0.202 OA 
BRANCH  11  12
HETATM   12  C   UNL     1     -11.131   9.221  70.170  1.00  0.00    -0.230 A  
HETATM   13  C   UNL     1     -11.962   9.579  71.245  1.00  0.00    -0.445 A  
HETATM   14  C   UNL     1     -12.495   8.617  72.105  1.00  0.00    -0.453 A  
HETATM   15  C   UNL     1     -12.224   7.260  71.924  1.00  0.00    -0.348 A  
HETATM   16  C   UNL     1     -11.406   6.907  70.849  1.00  0.00    -0.304 A  
HETATM   17  C   UNL     1     -10.858   7.847  69.974  1.00  0.00    -0.238 A  
HETATM   18  C   UNL     1     -10.091   7.116  69.018  1.00  0.00    -0.183 A  
HETATM   19  C   UNL     1     -10.192   5.779  69.323  1.00  0.00    -0.226 A  
HETATM   20  N   UNL     1     -10.989   5.663  70.429  1.00  0.00    -0.259 NA 
HETATM   21  H   UNL     1     -11.238   4.781  70.878  1.00  0.00     0.000 HD 
ENDBRANCH  11  12
ENDBRANCH  10  11
ENDBRANCH   7  10
ENDBRANCH   6   7
ENDBRANCH   4   6
ENDBRANCH   2   4
TORSDOF 6
ENDMDL
MODEL      199
REMARK 921   NORMALIZED FREE ENERGY PREDICTED BY IDOCK:   -3.77 KCAL/MOL
REMARK 922        TOTAL FREE ENERGY PREDICTED BY IDOCK:   -5.47 KCAL/MOL
REMARK 923 INTER-LIGAND FREE ENERGY PREDICTED BY IDOCK:   -4.63 KCAL/MOL
REMARK 924 INTRA-LIGAND FREE ENERGY PREDICTED BY IDOCK:   -0.84 KCAL/MOL
REMARK 927      BINDING AFFINITY PREDICTED BY RF-SCORE:    0.00 PKD
ROOT
HETATM    1  C   UNL     1      -8.208   5.526  68.723  1.00  0.00    -0.102 C  
HETATM    2  C   UNL     1      -9.518   5.365  67.948  1.00  0.00    -0.120 C  
HETATM    3  C   UNL     1      -9.717   3.890  67.584  1.00  0.00    -0.156 C  
ENDROOT
BRANCH   2   4
HETATM    4  N   UNL     1     -10.610   5.877  68.782  1.00  0.00    -0.252 NA 
HETATM    5  H   UNL     1     -11.515   5.649  68.370  1.00  0.00     0.000 HD 
BRANCH   4   6
HETATM    6  C   UNL     1     -10.545   5.425  70.173  1.00  0.00    -0.274 C  
BRANCH   6   7
HETATM    7  C   UNL     1     -11.151   6.472  71.129  1.00  0.00    -0.282 C  
HETATM    8  H   UNL     1     -11.935   6.459  72.926  1.00  0.00     0.000 HD 
HETATM    9  O   UNL     1     -11.562   5.814  72.338  1.00  0.00    -0.301 OA 
BRANCH   7  10
HETATM   10  C   UNL     1     -10.105   7.571  71.388  1.00  0.00    -0.186 C  
BRANCH  10  11
HETATM   11  O   UNL     1      -9.775   8.240  70.170  1.00  0.00    -0.174 OA 
BRANCH  11  12
HETATM   12  C   UNL     1     -10.543   9.339  69.864  1.00  0.00    -0.226 A  
HETATM   13  C   UNL     1     -11.321  10.048  70.795  1.00  0.00    -0.439 A  
HETATM   14  C   UNL     1     -12.053  11.177  70.423  1.00  0.00    -0.475 A  
HETATM   15  C   UNL     1     -12.032  11.646  69.109  1.00  0.00    -0.378 A  
HETATM   16  C   UNL     1     -11.250  10.947  68.189  1.00  0.00    -0.301 A  
HETATM   17  C   UNL     1     -10.509   9.814  68.532  1.00  0.00    -0.239 A  
HETATM   18  C   UNL     1      -9.849   9.382  67.343  1.00  0.00    -0.222 A  
HETATM   19  C   UNL     1     -10.190  10.245  66.329  1.00  0.00    -0.221 A  
HETATM   20  N   UNL     1     -11.035  11.187  66.850  1.00  0.00    -0.285 NA 
HETATM   21  H   UNL     1     -11.447  11.957  66.321  1.00  0.00     0.000 HD 
ENDBRANCH  11  12
ENDBRANCH  10  11
ENDBRANCH   7  10
ENDBRANCH   6   7
ENDBRANCH   4   6
ENDBRANCH   2   4
TORSDOF 6
ENDMDL
MODEL      200
REMARK 921   NORMALIZED FREE ENERGY PREDICTED BY IDOCK:   -3.76 KCAL/MOL
REMARK 922        TOTAL FREE ENERGY PREDICTED BY IDOCK:   -5.46 KCAL/MOL
REMARK 923 INTER-LIGAND FREE ENERGY PREDICTED BY IDOCK:   -5.15 KCAL/MOL
REMARK 924 INTRA-LIGAND FREE ENERGY PREDICTED BY IDOCK:   -0.31 KCAL/MOL
REMARK 927      BINDING AFFINITY PREDICTED BY RF-SCORE:    0.00 PKD
ROOT
HETATM    1  C   UNL     1     -11.549   7.797  72.334  1.00  0.00    -0.410 C  
HETATM    2  C   UNL     1     -12.531   7.048  71.431  1.00  0.00    -0.384 C  
HETATM    3  C   UNL     1     -13.960   7.496  71.748  1.00  0.00    -0.473 C  
ENDROOT
BRANCH   2   4
HETATM    4  N   UNL     1     -12.168   7.317  70.036  1.00  0.00    -0.338 NA 
HETATM    5  H   UNL     1     -11.856   8.282  69.925  1.00  0.00     0.000 HD 
BRANCH   4   6
HETATM    6  C   UNL     1     -11.173   6.385  69.499  1.00  0.00    -0.412 C  
BRANCH   6   7
HETATM    7  C   UNL     1     -10.596   6.894  68.163  1.00  0.00    -0.216 C  
HETATM    8  H   UNL     1     -11.153   6.872  66.283  1.00  0.00     0.000 HD 
HETATM    9  O   UNL     1     -11.508   6.559  67.106  1.00  0.00    -0.221 OA 
BRANCH   7  10
HETATM   10  C   UNL     1     -10.359   8.411  68.271  1.00  0.00    -0.199 C  
BRANCH  10  11
HETATM   11  O   UNL     1     -10.658   9.051  67.029  1.00  0.00    -0.261 OA 
BRANCH  11  12
HETATM   12  C   UNL     1      -9.574   9.393  66.256  1.00  0.00    -0.234 A  
HETATM   13  C   UNL     1      -8.291   8.839  66.399  1.00  0.00    -0.117 A  
HETATM   14  C   UNL     1      -7.240   9.208  65.557  1.00  0.00    -0.082 A  
HETATM   15  C   UNL     1      -7.430  10.141  64.536  1.00  0.00    -0.127 A  
HETATM   16  C   UNL     1      -8.708  10.682  64.390  1.00  0.00    -0.137 A  
HETATM   17  C   UNL     1      -9.778  10.332  65.218  1.00  0.00    -0.354 A  
HETATM   18  C   UNL     1     -10.905  11.082  64.768  1.00  0.00    -0.234 A  
HETATM   19  C   UNL     1     -10.507  11.847  63.697  1.00  0.00    -0.447 A  
HETATM   20  N   UNL     1      -9.180  11.598  63.476  1.00  0.00    -0.507 NA 
HETATM   21  H   UNL     1      -8.621  12.030  62.740  1.00  0.00     0.000 HD 
ENDBRANCH  11  12
ENDBRANCH  10  11
ENDBRANCH   7  10
ENDBRANCH   6   7
ENDBRANCH   4   6
ENDBRANCH   2   4
TORSDOF 6
ENDMDL
MODEL      201
REMARK 921   NORMALIZED FREE ENERGY PREDICTED BY IDOCK:   -3.74 KCAL/MOL
REMARK 922        TOTAL FREE ENERGY PREDICTED BY IDOCK:   -5.43 KCAL/MOL
REMARK 923 INTER-LIGAND FREE ENERGY PREDICTED BY IDOCK:   -4.67 KCAL/MOL
REMARK 924 INTRA-LIGAND FREE ENERGY PREDICTED BY IDOCK:   -0.75 KCAL/MOL
REMARK 927      BINDING AFFINITY PREDICTED BY RF-SCORE:    0.00 PKD
ROOT
HETATM    1  C   UNL     1     -11.932  10.448  70.016  1.00  0.00    -0.324 C  
HETATM    2  C   UNL     1     -12.155  10.329  71.525  1.00  0.00    -0.314 C  
HETATM    3  C   UNL     1     -13.656  10.373  71.824  1.00  0.00    -0.246 C  
ENDROOT
BRANCH   2   4
HETATM    4  N   UNL     1     -11.540   9.079  71.983  1.00  0.00    -0.364 NA 
HETATM    5  H   UNL     1     -12.046   8.273  71.615  1.00  0.00     0.000 HD 
BRANCH   4   6
HETATM    6  C   UNL     1     -10.112   8.981  71.671  1.00  0.00    -0.335 C  
BRANCH   6   7
HETATM    7  C   UNL     1      -9.476   7.752  72.352  1.00  0.00    -0.178 C  
HETATM    8  H   UNL     1      -8.161   7.448  73.774  1.00  0.00     0.000 HD 
HETATM    9  O   UNL     1      -8.553   8.205  73.355  1.00  0.00    -0.219 OA 
BRANCH   7  10
HETATM   10  C   UNL     1     -10.596   6.877  72.942  1.00  0.00    -0.261 C  
BRANCH  10  11
HETATM   11  O   UNL     1     -11.295   6.195  71.899  1.00  0.00    -0.273 OA 
BRANCH  11  12
HETATM   12  C   UNL     1     -10.527   5.396  71.087  1.00  0.00    -0.225 A  
HETATM   13  C   UNL     1      -9.771   4.300  71.537  1.00  0.00    -0.244 A  
HETATM   14  C   UNL     1      -9.037   3.509  70.651  1.00  0.00    -0.186 A  
HETATM   15  C   UNL     1      -9.032   3.777  69.281  1.00  0.00    -0.172 A  
HETATM   16  C   UNL     1      -9.792   4.859  68.836  1.00  0.00    -0.170 A  
HETATM   17  C   UNL     1     -10.535   5.669  69.699  1.00  0.00    -0.374 A  
HETATM   18  C   UNL     1     -11.168   6.656  68.887  1.00  0.00    -0.273 A  
HETATM   19  C   UNL     1     -10.810   6.427  67.580  1.00  0.00    -0.354 A  
HETATM   20  N   UNL     1      -9.980   5.340  67.559  1.00  0.00    -0.159 NA 
HETATM   21  H   UNL     1      -9.561   4.942  66.718  1.00  0.00     0.000 HD 
ENDBRANCH  11  12
ENDBRANCH  10  11
ENDBRANCH   7  10
ENDBRANCH   6   7
ENDBRANCH   4   6
ENDBRANCH   2   4
TORSDOF 6
ENDMDL
MODEL      202
REMARK 921   NORMALIZED FREE ENERGY PREDICTED BY IDOCK:   -3.74 KCAL/MOL
REMARK 922        TOTAL FREE ENERGY PREDICTED BY IDOCK:   -5.42 KCAL/MOL
REMARK 923 INTER-LIGAND FREE ENERGY PREDICTED BY IDOCK:   -4.81 KCAL/MOL
REMARK 924 INTRA-LIGAND FREE ENERGY PREDICTED BY IDOCK:   -0.62 KCAL/MOL
REMARK 927      BINDING AFFINITY PREDICTED BY RF-SCORE:    0.00 PKD
ROOT
HETATM    1  C   UNL     1      -9.123   8.943  71.309  1.00  0.00    -0.323 C  
HETATM    2  C   UNL     1      -7.950   8.989  70.327  1.00  0.00    -0.121 C  
HETATM    3  C   UNL     1      -6.664   8.574  71.049  1.00  0.00    -0.054 C  
ENDROOT
BRANCH   2   4
HETATM    4  N   UNL     1      -8.259   8.102  69.201  1.00  0.00    -0.121 NA 
HETATM    5  H   UNL     1      -7.820   7.190  69.330  1.00  0.00     0.000 HD 
BRANCH   4   6
HETATM    6  C   UNL     1      -9.694   7.956  68.949  1.00  0.00    -0.158 C  
BRANCH   6   7
HETATM    7  C   UNL     1      -9.957   7.047  67.731  1.00  0.00    -0.152 C  
HETATM    8  H   UNL     1     -11.275   5.678  67.248  1.00  0.00     0.000 HD 
HETATM    9  O   UNL     1     -11.113   6.238  67.997  1.00  0.00    -0.333 OA 
BRANCH   7  10
HETATM   10  C   UNL     1     -10.136   7.929  66.482  1.00  0.00    -0.175 C  
BRANCH  10  11
HETATM   11  O   UNL     1      -9.479   9.185  66.662  1.00  0.00    -0.159 OA 
BRANCH  11  12
HETATM   12  C   UNL     1     -10.219  10.299  66.344  1.00  0.00    -0.225 A  
HETATM   13  C   UNL     1     -11.051  10.983  67.246  1.00  0.00    -0.359 A  
HETATM   14  C   UNL     1     -11.752  12.129  66.864  1.00  0.00    -0.374 A  
HETATM   15  C   UNL     1     -11.644  12.640  65.570  1.00  0.00    -0.409 A  
HETATM   16  C   UNL     1     -10.809  11.965  64.680  1.00  0.00    -0.311 A  
HETATM   17  C   UNL     1     -10.097  10.816  65.032  1.00  0.00    -0.377 A  
HETATM   18  C   UNL     1      -9.365  10.417  63.875  1.00  0.00    -0.322 A  
HETATM   19  C   UNL     1      -9.635  11.316  62.869  1.00  0.00    -0.352 A  
HETATM   20  N   UNL     1     -10.507  12.246  63.365  1.00  0.00    -0.481 NA 
HETATM   21  H   UNL     1     -10.880  13.036  62.837  1.00  0.00     0.000 HD 
ENDBRANCH  11  12
ENDBRANCH  10  11
ENDBRANCH   7  10
ENDBRANCH   6   7
ENDBRANCH   4   6
ENDBRANCH   2   4
TORSDOF 6
ENDMDL
MODEL      203
REMARK 921   NORMALIZED FREE ENERGY PREDICTED BY IDOCK:   -3.73 KCAL/MOL
REMARK 922        TOTAL FREE ENERGY PREDICTED BY IDOCK:   -5.42 KCAL/MOL
REMARK 923 INTER-LIGAND FREE ENERGY PREDICTED BY IDOCK:   -4.59 KCAL/MOL
REMARK 924 INTRA-LIGAND FREE ENERGY PREDICTED BY IDOCK:   -0.83 KCAL/MOL
REMARK 927      BINDING AFFINITY PREDICTED BY RF-SCORE:    0.00 PKD
ROOT
HETATM    1  C   UNL     1     -10.207  15.457  65.496  1.00  0.00    -0.411 C  
HETATM    2  C   UNL     1     -11.319  14.635  64.840  1.00  0.00    -0.403 C  
HETATM    3  C   UNL     1     -12.270  15.572  64.089  1.00  0.00    -0.019 C  
ENDROOT
BRANCH   2   4
HETATM    4  N   UNL     1     -10.697  13.653  63.947  1.00  0.00    -0.485 NA 
HETATM    5  H   UNL     1      -9.770  13.394  64.286  1.00  0.00     0.000 HD 
BRANCH   4   6
HETATM    6  C   UNL     1     -11.519  12.462  63.724  1.00  0.00    -0.467 C  
BRANCH   6   7
HETATM    7  C   UNL     1     -10.646  11.197  63.593  1.00  0.00    -0.347 C  
HETATM    8  H   UNL     1      -8.789  10.808  63.099  1.00  0.00     0.000 HD 
HETATM    9  O   UNL     1      -9.327  11.586  63.180  1.00  0.00    -0.309 OA 
BRANCH   7  10
HETATM   10  C   UNL     1     -10.641  10.456  64.943  1.00  0.00     0.102 C  
BRANCH  10  11
HETATM   11  O   UNL     1     -11.014  11.343  65.999  1.00  0.00    -0.285 OA 
BRANCH  11  12
HETATM   12  C   UNL     1      -9.976  11.876  66.726  1.00  0.00    -0.195 A  
HETATM   13  C   UNL     1      -8.617  11.627  66.471  1.00  0.00    -0.164 A  
HETATM   14  C   UNL     1      -7.612  12.228  67.231  1.00  0.00    -0.152 A  
HETATM   15  C   UNL     1      -7.922  13.106  68.270  1.00  0.00    -0.148 A  
HETATM   16  C   UNL     1      -9.273  13.360  68.514  1.00  0.00    -0.082 A  
HETATM   17  C   UNL     1     -10.300  12.772  67.772  1.00  0.00    -0.222 A  
HETATM   18  C   UNL     1     -11.526  13.267  68.309  1.00  0.00    -0.351 A  
HETATM   19  C   UNL     1     -11.224  14.130  69.336  1.00  0.00    -0.255 A  
HETATM   20  N   UNL     1      -9.862  14.180  69.452  1.00  0.00    -0.391 NA 
HETATM   21  H   UNL     1      -9.355  14.744  70.135  1.00  0.00     0.000 HD 
ENDBRANCH  11  12
ENDBRANCH  10  11
ENDBRANCH   7  10
ENDBRANCH   6   7
ENDBRANCH   4   6
ENDBRANCH   2   4
TORSDOF 6
ENDMDL
MODEL      204
REMARK 921   NORMALIZED FREE ENERGY PREDICTED BY IDOCK:   -3.72 KCAL/MOL
REMARK 922        TOTAL FREE ENERGY PREDICTED BY IDOCK:   -5.40 KCAL/MOL
REMARK 923 INTER-LIGAND FREE ENERGY PREDICTED BY IDOCK:   -4.83 KCAL/MOL
REMARK 924 INTRA-LIGAND FREE ENERGY PREDICTED BY IDOCK:   -0.57 KCAL/MOL
REMARK 927      BINDING AFFINITY PREDICTED BY RF-SCORE:    0.00 PKD
ROOT
HETATM    1  C   UNL     1     -12.410  16.146  71.219  1.00  0.00    -0.181 C  
HETATM    2  C   UNL     1     -12.386  14.763  71.873  1.00  0.00    -0.345 C  
HETATM    3  C   UNL     1     -13.784  14.423  72.397  1.00  0.00    -0.590 C  
ENDROOT
BRANCH   2   4
HETATM    4  N   UNL     1     -11.922  13.792  70.877  1.00  0.00    -0.502 NA 
HETATM    5  H   UNL     1     -10.926  13.604  70.994  1.00  0.00     0.000 HD 
BRANCH   4   6
HETATM    6  C   UNL     1     -12.688  12.544  70.875  1.00  0.00    -0.182 C  
BRANCH   6   7
HETATM    7  C   UNL     1     -11.767  11.325  70.666  1.00  0.00    -0.161 C  
HETATM    8  H   UNL     1     -11.638   9.510  71.397  1.00  0.00     0.000 HD 
HETATM    9  O   UNL     1     -12.205  10.260  71.526  1.00  0.00    -0.374 OA 
BRANCH   7  10
HETATM   10  C   UNL     1     -11.802  10.926  69.179  1.00  0.00    -0.317 C  
BRANCH  10  11
HETATM   11  O   UNL     1     -11.180  11.933  68.380  1.00  0.00    -0.218 OA 
BRANCH  11  12
HETATM   12  C   UNL     1     -10.048  11.544  67.703  1.00  0.00    -0.184 A  
HETATM   13  C   UNL     1      -8.831  11.208  68.319  1.00  0.00    -0.155 A  
HETATM   14  C   UNL     1      -7.728  10.789  67.572  1.00  0.00    -0.105 A  
HETATM   15  C   UNL     1      -7.799  10.685  66.182  1.00  0.00    -0.152 A  
HETATM   16  C   UNL     1      -9.012  11.010  65.574  1.00  0.00    -0.194 A  
HETATM   17  C   UNL     1     -10.131  11.433  66.295  1.00  0.00    -0.263 A  
HETATM   18  C   UNL     1     -11.166  11.669  65.342  1.00  0.00    -0.262 A  
HETATM   19  C   UNL     1     -10.667  11.385  64.092  1.00  0.00    -0.371 A  
HETATM   20  N   UNL     1      -9.367  10.987  64.243  1.00  0.00    -0.274 NA 
HETATM   21  H   UNL     1      -8.749  10.713  63.479  1.00  0.00     0.000 HD 
ENDBRANCH  11  12
ENDBRANCH  10  11
ENDBRANCH   7  10
ENDBRANCH   6   7
ENDBRANCH   4   6
ENDBRANCH   2   4
TORSDOF 6
ENDMDL
MODEL      205
REMARK 921   NORMALIZED FREE ENERGY PREDICTED BY IDOCK:   -3.71 KCAL/MOL
REMARK 922        TOTAL FREE ENERGY PREDICTED BY IDOCK:   -5.39 KCAL/MOL
REMARK 923 INTER-LIGAND FREE ENERGY PREDICTED BY IDOCK:   -4.73 KCAL/MOL
REMARK 924 INTRA-LIGAND FREE ENERGY PREDICTED BY IDOCK:   -0.66 KCAL/MOL
REMARK 927      BINDING AFFINITY PREDICTED BY RF-SCORE:    0.00 PKD
ROOT
HETATM    1  C   UNL     1      -8.506  12.958  67.556  1.00  0.00    -0.186 C  
HETATM    2  C   UNL     1      -9.585  12.836  66.478  1.00  0.00    -0.257 C  
HETATM    3  C   UNL     1      -9.985  14.234  65.997  1.00  0.00    -0.337 C  
ENDROOT
BRANCH   2   4
HETATM    4  N   UNL     1      -9.054  12.011  65.389  1.00  0.00    -0.417 NA 
HETATM    5  H   UNL     1      -8.166  11.588  65.657  1.00  0.00     0.000 HD 
BRANCH   4   6
HETATM    6  C   UNL     1      -9.993  10.990  64.917  1.00  0.00    -0.288 C  
BRANCH   6   7
HETATM    7  C   UNL     1      -9.477   9.571  65.228  1.00  0.00    -0.258 C  
HETATM    8  H   UNL     1      -7.730   8.742  65.552  1.00  0.00     0.000 HD 
HETATM    9  O   UNL     1      -8.048   9.616  65.360  1.00  0.00    -0.119 OA 
BRANCH   7  10
HETATM   10  C   UNL     1     -10.166   9.061  66.507  1.00  0.00    -0.248 C  
BRANCH  10  11
HETATM   11  O   UNL     1      -9.607   9.694  67.659  1.00  0.00    -0.139 OA 
BRANCH  11  12
HETATM   12  C   UNL     1     -10.380   9.657  68.796  1.00  0.00    -0.213 A  
HETATM   13  C   UNL     1     -11.113  10.748  69.293  1.00  0.00    -0.312 A  
HETATM   14  C   UNL     1     -11.904  10.633  70.437  1.00  0.00    -0.441 A  
HETATM   15  C   UNL     1     -12.000   9.424  71.127  1.00  0.00    -0.413 A  
HETATM   16  C   UNL     1     -11.279   8.339  70.624  1.00  0.00    -0.256 A  
HETATM   17  C   UNL     1     -10.478   8.425  69.483  1.00  0.00    -0.225 A  
HETATM   18  C   UNL     1      -9.909   7.132  69.285  1.00  0.00    -0.161 A  
HETATM   19  C   UNL     1     -10.370   6.306  70.283  1.00  0.00    -0.205 A  
HETATM   20  N   UNL     1     -11.197   7.044  71.086  1.00  0.00    -0.260 NA 
HETATM   21  H   UNL     1     -11.684   6.685  71.908  1.00  0.00     0.000 HD 
ENDBRANCH  11  12
ENDBRANCH  10  11
ENDBRANCH   7  10
ENDBRANCH   6   7
ENDBRANCH   4   6
ENDBRANCH   2   4
TORSDOF 6
ENDMDL
MODEL      206
REMARK 921   NORMALIZED FREE ENERGY PREDICTED BY IDOCK:   -3.71 KCAL/MOL
REMARK 922        TOTAL FREE ENERGY PREDICTED BY IDOCK:   -5.38 KCAL/MOL
REMARK 923 INTER-LIGAND FREE ENERGY PREDICTED BY IDOCK:   -4.78 KCAL/MOL
REMARK 924 INTRA-LIGAND FREE ENERGY PREDICTED BY IDOCK:   -0.60 KCAL/MOL
REMARK 927      BINDING AFFINITY PREDICTED BY RF-SCORE:    0.00 PKD
ROOT
HETATM    1  C   UNL     1      -5.323  16.029  67.948  1.00  0.00    -0.140 C  
HETATM    2  C   UNL     1      -6.334  16.180  69.087  1.00  0.00    -0.159 C  
HETATM    3  C   UNL     1      -5.604  16.093  70.430  1.00  0.00    -0.141 C  
ENDROOT
BRANCH   2   4
HETATM    4  N   UNL     1      -7.026  17.461  68.919  1.00  0.00    -0.235 NA 
HETATM    5  H   UNL     1      -6.733  18.125  69.636  1.00  0.00     0.000 HD 
BRANCH   4   6
HETATM    6  C   UNL     1      -6.870  18.040  67.582  1.00  0.00    -0.191 C  
BRANCH   6   7
HETATM    7  C   UNL     1      -8.240  18.344  66.944  1.00  0.00    -0.247 C  
HETATM    8  H   UNL     1      -8.911  18.684  65.133  1.00  0.00     0.000 HD 
HETATM    9  O   UNL     1      -8.068  18.496  65.526  1.00  0.00    -0.298 OA 
BRANCH   7  10
HETATM   10  C   UNL     1      -9.216  17.206  67.295  1.00  0.00    -0.230 C  
BRANCH  10  11
HETATM   11  O   UNL     1      -8.883  16.024  66.566  1.00  0.00    -0.244 OA 
BRANCH  11  12
HETATM   12  C   UNL     1      -9.796  14.998  66.641  1.00  0.00    -0.254 A  
HETATM   13  C   UNL     1      -9.782  13.994  67.624  1.00  0.00    -0.228 A  
HETATM   14  C   UNL     1     -10.760  12.999  67.661  1.00  0.00    -0.239 A  
HETATM   15  C   UNL     1     -11.793  12.969  66.722  1.00  0.00    -0.451 A  
HETATM   16  C   UNL     1     -11.809  13.974  65.754  1.00  0.00    -0.383 A  
HETATM   17  C   UNL     1     -10.844  14.981  65.691  1.00  0.00    -0.356 A  
HETATM   18  C   UNL     1     -11.190  15.810  64.583  1.00  0.00    -0.373 A  
HETATM   19  C   UNL     1     -12.335  15.305  64.014  1.00  0.00     0.071 A  
HETATM   20  N   UNL     1     -12.702  14.197  64.728  1.00  0.00    -0.678 NA 
HETATM   21  H   UNL     1     -13.519  13.619  64.529  1.00  0.00     0.000 HD 
ENDBRANCH  11  12
ENDBRANCH  10  11
ENDBRANCH   7  10
ENDBRANCH   6   7
ENDBRANCH   4   6
ENDBRANCH   2   4
TORSDOF 6
ENDMDL
MODEL      207
REMARK 921   NORMALIZED FREE ENERGY PREDICTED BY IDOCK:   -3.71 KCAL/MOL
REMARK 922        TOTAL FREE ENERGY PREDICTED BY IDOCK:   -5.38 KCAL/MOL
REMARK 923 INTER-LIGAND FREE ENERGY PREDICTED BY IDOCK:   -4.62 KCAL/MOL
REMARK 924 INTRA-LIGAND FREE ENERGY PREDICTED BY IDOCK:   -0.76 KCAL/MOL
REMARK 927      BINDING AFFINITY PREDICTED BY RF-SCORE:    0.00 PKD
ROOT
HETATM    1  C   UNL     1      -8.930  10.826  68.677  1.00  0.00    -0.162 C  
HETATM    2  C   UNL     1      -8.998  11.236  67.204  1.00  0.00    -0.155 C  
HETATM    3  C   UNL     1      -8.854   9.993  66.321  1.00  0.00    -0.160 C  
ENDROOT
BRANCH   2   4
HETATM    4  N   UNL     1     -10.273  11.925  66.979  1.00  0.00    -0.208 NA 
HETATM    5  H   UNL     1     -10.583  12.396  67.829  1.00  0.00     0.000 HD 
BRANCH   4   6
HETATM    6  C   UNL     1     -10.242  12.858  65.851  1.00  0.00    -0.290 C  
BRANCH   6   7
HETATM    7  C   UNL     1     -11.655  13.382  65.521  1.00  0.00    -0.325 C  
HETATM    8  H   UNL     1     -13.465  12.629  65.473  1.00  0.00     0.000 HD 
HETATM    9  O   UNL     1     -12.595  12.307  65.676  1.00  0.00    -0.504 OA 
BRANCH   7  10
HETATM   10  C   UNL     1     -11.971  14.572  66.444  1.00  0.00    -0.334 C  
BRANCH  10  11
HETATM   11  O   UNL     1     -11.090  14.577  67.569  1.00  0.00    -0.288 OA 
BRANCH  11  12
HETATM   12  C   UNL     1     -10.464  15.772  67.834  1.00  0.00    -0.270 A  
HETATM   13  C   UNL     1     -11.030  17.035  67.591  1.00  0.00    -0.164 A  
HETATM   14  C   UNL     1     -10.351  18.211  67.915  1.00  0.00    -0.410 A  
HETATM   15  C   UNL     1      -9.083  18.173  68.497  1.00  0.00    -0.318 A  
HETATM   16  C   UNL     1      -8.529  16.917  68.747  1.00  0.00    -0.244 A  
HETATM   17  C   UNL     1      -9.184  15.724  68.433  1.00  0.00    -0.192 A  
HETATM   18  C   UNL     1      -8.315  14.664  68.829  1.00  0.00    -0.163 A  
HETATM   19  C   UNL     1      -7.180  15.223  69.369  1.00  0.00    -0.201 A  
HETATM   20  N   UNL     1      -7.319  16.583  69.316  1.00  0.00    -0.232 NA 
HETATM   21  H   UNL     1      -6.626  17.254  69.649  1.00  0.00     0.000 HD 
ENDBRANCH  11  12
ENDBRANCH  10  11
ENDBRANCH   7  10
ENDBRANCH   6   7
ENDBRANCH   4   6
ENDBRANCH   2   4
TORSDOF 6
ENDMDL
MODEL      208
REMARK 921   NORMALIZED FREE ENERGY PREDICTED BY IDOCK:   -3.70 KCAL/MOL
REMARK 922        TOTAL FREE ENERGY PREDICTED BY IDOCK:   -5.38 KCAL/MOL
REMARK 923 INTER-LIGAND FREE ENERGY PREDICTED BY IDOCK:   -5.12 KCAL/MOL
REMARK 924 INTRA-LIGAND FREE ENERGY PREDICTED BY IDOCK:   -0.26 KCAL/MOL
REMARK 927      BINDING AFFINITY PREDICTED BY RF-SCORE:    0.00 PKD
ROOT
HETATM    1  C   UNL     1     -11.377   7.681  72.074  1.00  0.00    -0.322 C  
HETATM    2  C   UNL     1     -10.380   6.678  71.490  1.00  0.00    -0.209 C  
HETATM    3  C   UNL     1     -11.143   5.492  70.890  1.00  0.00    -0.107 C  
ENDROOT
BRANCH   2   4
HETATM    4  N   UNL     1      -9.566   7.371  70.488  1.00  0.00    -0.172 NA 
HETATM    5  H   UNL     1      -9.158   6.704  69.831  1.00  0.00     0.000 HD 
BRANCH   4   6
HETATM    6  C   UNL     1     -10.289   8.425  69.773  1.00  0.00    -0.216 C  
BRANCH   6   7
HETATM    7  C   UNL     1     -10.030   8.349  68.255  1.00  0.00    -0.187 C  
HETATM    8  H   UNL     1     -10.150   6.967  66.869  1.00  0.00     0.000 HD 
HETATM    9  O   UNL     1     -10.309   7.014  67.803  1.00  0.00    -0.172 OA 
BRANCH   7  10
HETATM   10  C   UNL     1     -10.907   9.399  67.549  1.00  0.00    -0.138 C  
BRANCH  10  11
HETATM   11  O   UNL     1     -10.219  10.648  67.469  1.00  0.00    -0.183 OA 
BRANCH  11  12
HETATM   12  C   UNL     1     -10.617  11.487  66.455  1.00  0.00    -0.259 A  
HETATM   13  C   UNL     1     -11.369  12.659  66.644  1.00  0.00    -0.379 A  
HETATM   14  C   UNL     1     -11.713  13.484  65.572  1.00  0.00    -0.361 A  
HETATM   15  C   UNL     1     -11.317  13.175  64.270  1.00  0.00    -0.427 A  
HETATM   16  C   UNL     1     -10.562  12.016  64.087  1.00  0.00    -0.355 A  
HETATM   17  C   UNL     1     -10.204  11.171  65.139  1.00  0.00    -0.347 A  
HETATM   18  C   UNL     1      -9.446  10.106  64.569  1.00  0.00    -0.364 A  
HETATM   19  C   UNL     1      -9.356  10.325  63.214  1.00  0.00    -0.306 A  
HETATM   20  N   UNL     1     -10.032  11.480  62.933  1.00  0.00    -0.614 NA 
HETATM   21  H   UNL     1     -10.129  11.887  62.002  1.00  0.00     0.000 HD 
ENDBRANCH  11  12
ENDBRANCH  10  11
ENDBRANCH   7  10
ENDBRANCH   6   7
ENDBRANCH   4   6
ENDBRANCH   2   4
TORSDOF 6
ENDMDL
MODEL      209
REMARK 921   NORMALIZED FREE ENERGY PREDICTED BY IDOCK:   -3.69 KCAL/MOL
REMARK 922        TOTAL FREE ENERGY PREDICTED BY IDOCK:   -5.37 KCAL/MOL
REMARK 923 INTER-LIGAND FREE ENERGY PREDICTED BY IDOCK:   -4.61 KCAL/MOL
REMARK 924 INTRA-LIGAND FREE ENERGY PREDICTED BY IDOCK:   -0.75 KCAL/MOL
REMARK 927      BINDING AFFINITY PREDICTED BY RF-SCORE:    0.00 PKD
ROOT
HETATM    1  C   UNL     1     -10.676  10.067  66.990  1.00  0.00    -0.248 C  
HETATM    2  C   UNL     1     -10.226   8.606  67.056  1.00  0.00    -0.290 C  
HETATM    3  C   UNL     1      -8.892   8.450  66.320  1.00  0.00    -0.190 C  
ENDROOT
BRANCH   2   4
HETATM    4  N   UNL     1     -10.124   8.220  68.467  1.00  0.00    -0.192 NA 
HETATM    5  H   UNL     1     -10.919   7.643  68.741  1.00  0.00     0.000 HD 
BRANCH   4   6
HETATM    6  C   UNL     1      -8.862   7.557  68.802  1.00  0.00    -0.131 C  
BRANCH   6   7
HETATM    7  C   UNL     1      -8.065   8.369  69.843  1.00  0.00    -0.119 C  
HETATM    8  H   UNL     1      -6.349   9.318  69.882  1.00  0.00     0.000 HD 
HETATM    9  O   UNL     1      -6.840   8.818  69.241  1.00  0.00    -0.049 OA 
BRANCH   7  10
HETATM   10  C   UNL     1      -8.937   9.539  70.334  1.00  0.00    -0.243 C  
BRANCH  10  11
HETATM   11  O   UNL     1      -9.627   9.176  71.531  1.00  0.00    -0.283 OA 
BRANCH  11  12
HETATM   12  C   UNL     1     -11.000   9.218  71.466  1.00  0.00    -0.375 A  
HETATM   13  C   UNL     1     -11.740  10.338  71.052  1.00  0.00    -0.461 A  
HETATM   14  C   UNL     1     -13.134  10.303  70.978  1.00  0.00    -0.458 A  
HETATM   15  C   UNL     1     -13.843   9.147  71.310  1.00  0.00    -0.213 A  
HETATM   16  C   UNL     1     -13.104   8.033  71.711  1.00  0.00    -0.336 A  
HETATM   17  C   UNL     1     -11.710   8.040  71.795  1.00  0.00    -0.335 A  
HETATM   18  C   UNL     1     -11.321   6.740  72.235  1.00  0.00    -0.310 A  
HETATM   19  C   UNL     1     -12.459   5.987  72.398  1.00  0.00     0.125 A  
HETATM   20  N   UNL     1     -13.530   6.776  72.079  1.00  0.00    -0.507 NA 
HETATM   21  H   UNL     1     -14.505   6.476  72.108  1.00  0.00     0.000 HD 
ENDBRANCH  11  12
ENDBRANCH  10  11
ENDBRANCH   7  10
ENDBRANCH   6   7
ENDBRANCH   4   6
ENDBRANCH   2   4
TORSDOF 6
ENDMDL
MODEL      210
REMARK 921   NORMALIZED FREE ENERGY PREDICTED BY IDOCK:   -3.69 KCAL/MOL
REMARK 922        TOTAL FREE ENERGY PREDICTED BY IDOCK:   -5.36 KCAL/MOL
REMARK 923 INTER-LIGAND FREE ENERGY PREDICTED BY IDOCK:   -4.86 KCAL/MOL
REMARK 924 INTRA-LIGAND FREE ENERGY PREDICTED BY IDOCK:   -0.49 KCAL/MOL
REMARK 927      BINDING AFFINITY PREDICTED BY RF-SCORE:    0.00 PKD
ROOT
HETATM    1  C   UNL     1      -8.610   6.820  67.838  1.00  0.00    -0.122 C  
HETATM    2  C   UNL     1      -9.689   7.317  66.873  1.00  0.00    -0.194 C  
HETATM    3  C   UNL     1     -10.944   6.452  67.022  1.00  0.00    -0.463 C  
ENDROOT
BRANCH   2   4
HETATM    4  N   UNL     1      -9.956   8.728  67.172  1.00  0.00    -0.208 NA 
HETATM    5  H   UNL     1      -9.236   9.109  67.785  1.00  0.00     0.000 HD 
BRANCH   4   6
HETATM    6  C   UNL     1     -10.113   9.559  65.976  1.00  0.00    -0.249 C  
BRANCH   6   7
HETATM    7  C   UNL     1      -9.092  10.715  65.963  1.00  0.00    -0.180 C  
HETATM    8  H   UNL     1      -8.996  12.506  65.171  1.00  0.00     0.000 HD 
HETATM    9  O   UNL     1      -9.625  11.794  65.179  1.00  0.00    -0.228 OA 
BRANCH   7  10
HETATM   10  C   UNL     1      -8.800  11.136  67.415  1.00  0.00    -0.139 C  
BRANCH  10  11
HETATM   11  O   UNL     1      -9.362  12.421  67.682  1.00  0.00    -0.177 OA 
BRANCH  11  12
HETATM   12  C   UNL     1     -10.422  12.441  68.558  1.00  0.00    -0.228 A  
HETATM   13  C   UNL     1     -10.914  11.311  69.232  1.00  0.00    -0.297 A  
HETATM   14  C   UNL     1     -11.976  11.407  70.134  1.00  0.00    -0.460 A  
HETATM   15  C   UNL     1     -12.583  12.634  70.402  1.00  0.00    -0.115 A  
HETATM   16  C   UNL     1     -12.085  13.756  69.738  1.00  0.00    -0.340 A  
HETATM   17  C   UNL     1     -11.026  13.690  68.830  1.00  0.00    -0.281 A  
HETATM   18  C   UNL     1     -10.805  15.020  68.364  1.00  0.00    -0.256 A  
HETATM   19  C   UNL     1     -11.708  15.847  68.989  1.00  0.00    -0.370 A  
HETATM   20  N   UNL     1     -12.476  15.075  69.817  1.00  0.00    -0.556 NA 
HETATM   21  H   UNL     1     -13.230  15.426  70.409  1.00  0.00     0.000 HD 
ENDBRANCH  11  12
ENDBRANCH  10  11
ENDBRANCH   7  10
ENDBRANCH   6   7
ENDBRANCH   4   6
ENDBRANCH   2   4
TORSDOF 6
ENDMDL
MODEL      211
REMARK 921   NORMALIZED FREE ENERGY PREDICTED BY IDOCK:   -3.68 KCAL/MOL
REMARK 922        TOTAL FREE ENERGY PREDICTED BY IDOCK:   -5.35 KCAL/MOL
REMARK 923 INTER-LIGAND FREE ENERGY PREDICTED BY IDOCK:   -4.73 KCAL/MOL
REMARK 924 INTRA-LIGAND FREE ENERGY PREDICTED BY IDOCK:   -0.61 KCAL/MOL
REMARK 927      BINDING AFFINITY PREDICTED BY RF-SCORE:    0.00 PKD
ROOT
HETATM    1  C   UNL     1     -10.530  17.354  67.667  1.00  0.00    -0.368 C  
HETATM    2  C   UNL     1     -10.653  15.832  67.565  1.00  0.00    -0.309 C  
HETATM    3  C   UNL     1     -11.773  15.348  68.491  1.00  0.00    -0.355 C  
ENDROOT
BRANCH   2   4
HETATM    4  N   UNL     1     -10.909  15.485  66.164  1.00  0.00    -0.317 NA 
HETATM    5  H   UNL     1     -10.068  15.110  65.726  1.00  0.00     0.000 HD 
BRANCH   4   6
HETATM    6  C   UNL     1     -12.039  14.570  65.985  1.00  0.00    -0.287 C  
BRANCH   6   7
HETATM    7  C   UNL     1     -11.694  13.446  64.988  1.00  0.00    -0.325 C  
HETATM    8  H   UNL     1     -10.185  13.014  63.812  1.00  0.00     0.000 HD 
HETATM    9  O   UNL     1     -10.398  13.706  64.427  1.00  0.00    -0.428 OA 
BRANCH   7  10
HETATM   10  C   UNL     1     -11.752  12.095  65.724  1.00  0.00    -0.327 C  
BRANCH  10  11
HETATM   11  O   UNL     1     -10.554  11.352  65.494  1.00  0.00    -0.268 OA 
BRANCH  11  12
HETATM   12  C   UNL     1     -10.095  10.613  66.558  1.00  0.00    -0.223 A  
HETATM   13  C   UNL     1     -10.487   9.292  66.835  1.00  0.00    -0.284 A  
HETATM   14  C   UNL     1      -9.957   8.586  67.917  1.00  0.00    -0.225 A  
HETATM   15  C   UNL     1      -9.010   9.169  68.761  1.00  0.00    -0.136 A  
HETATM   16  C   UNL     1      -8.615  10.477  68.477  1.00  0.00    -0.135 A  
HETATM   17  C   UNL     1      -9.129  11.207  67.404  1.00  0.00    -0.143 A  
HETATM   18  C   UNL     1      -8.494  12.485  67.437  1.00  0.00    -0.181 A  
HETATM   19  C   UNL     1      -7.623  12.500  68.501  1.00  0.00    -0.119 A  
HETATM   20  N   UNL     1      -7.703  11.283  69.122  1.00  0.00    -0.304 NA 
HETATM   21  H   UNL     1      -7.163  11.012  69.945  1.00  0.00     0.000 HD 
ENDBRANCH  11  12
ENDBRANCH  10  11
ENDBRANCH   7  10
ENDBRANCH   6   7
ENDBRANCH   4   6
ENDBRANCH   2   4
TORSDOF 6
ENDMDL
MODEL      212
REMARK 921   NORMALIZED FREE ENERGY PREDICTED BY IDOCK:   -3.68 KCAL/MOL
REMARK 922        TOTAL FREE ENERGY PREDICTED BY IDOCK:   -5.34 KCAL/MOL
REMARK 923 INTER-LIGAND FREE ENERGY PREDICTED BY IDOCK:   -4.84 KCAL/MOL
REMARK 924 INTRA-LIGAND FREE ENERGY PREDICTED BY IDOCK:   -0.51 KCAL/MOL
REMARK 927      BINDING AFFINITY PREDICTED BY RF-SCORE:    0.00 PKD
ROOT
HETATM    1  C   UNL     1      -8.820   5.198  64.796  1.00  0.00    -0.100 C  
HETATM    2  C   UNL     1      -9.962   4.258  65.190  1.00  0.00    -0.204 C  
HETATM    3  C   UNL     1      -9.382   2.987  65.817  1.00  0.00    -0.086 C  
ENDROOT
BRANCH   2   4
HETATM    4  N   UNL     1     -10.846   4.973  66.115  1.00  0.00    -0.633 NA 
HETATM    5  H   UNL     1     -11.319   4.319  66.739  1.00  0.00     0.000 HD 
BRANCH   4   6
HETATM    6  C   UNL     1     -10.167   6.021  66.881  1.00  0.00    -0.210 C  
BRANCH   6   7
HETATM    7  C   UNL     1      -9.814   5.535  68.301  1.00  0.00    -0.144 C  
HETATM    8  H   UNL     1      -8.316   5.769  69.544  1.00  0.00     0.000 HD 
HETATM    9  O   UNL     1      -8.533   6.069  68.670  1.00  0.00    -0.112 OA 
BRANCH   7  10
HETATM   10  C   UNL     1     -10.930   5.974  69.267  1.00  0.00    -0.366 C  
BRANCH  10  11
HETATM   11  O   UNL     1     -10.396   6.808  70.296  1.00  0.00    -0.193 OA 
BRANCH  11  12
HETATM   12  C   UNL     1     -11.045   8.004  70.494  1.00  0.00    -0.251 A  
HETATM   13  C   UNL     1     -12.135   8.182  71.363  1.00  0.00    -0.326 A  
HETATM   14  C   UNL     1     -12.729   9.433  71.541  1.00  0.00    -0.444 A  
HETATM   15  C   UNL     1     -12.255  10.557  70.863  1.00  0.00    -0.490 A  
HETATM   16  C   UNL     1     -11.166  10.379  70.008  1.00  0.00    -0.316 A  
HETATM   17  C   UNL     1     -10.553   9.140  69.809  1.00  0.00    -0.240 A  
HETATM   18  C   UNL     1      -9.492   9.353  68.880  1.00  0.00    -0.154 A  
HETATM   19  C   UNL     1      -9.478  10.688  68.547  1.00  0.00    -0.176 A  
HETATM   20  N   UNL     1     -10.492  11.298  69.234  1.00  0.00    -0.391 NA 
HETATM   21  H   UNL     1     -10.716  12.292  69.180  1.00  0.00     0.000 HD 
ENDBRANCH  11  12
ENDBRANCH  10  11
ENDBRANCH   7  10
ENDBRANCH   6   7
ENDBRANCH   4   6
ENDBRANCH   2   4
TORSDOF 6
ENDMDL
MODEL      213
REMARK 921   NORMALIZED FREE ENERGY PREDICTED BY IDOCK:   -3.67 KCAL/MOL
REMARK 922        TOTAL FREE ENERGY PREDICTED BY IDOCK:   -5.34 KCAL/MOL
REMARK 923 INTER-LIGAND FREE ENERGY PREDICTED BY IDOCK:   -4.79 KCAL/MOL
REMARK 924 INTRA-LIGAND FREE ENERGY PREDICTED BY IDOCK:   -0.55 KCAL/MOL
REMARK 927      BINDING AFFINITY PREDICTED BY RF-SCORE:    0.00 PKD
ROOT
HETATM    1  C   UNL     1      -5.954   8.656  67.398  1.00  0.00    -0.047 C  
HETATM    2  C   UNL     1      -7.303   8.058  66.994  1.00  0.00    -0.091 C  
HETATM    3  C   UNL     1      -7.637   6.884  67.919  1.00  0.00    -0.107 C  
ENDROOT
BRANCH   2   4
HETATM    4  N   UNL     1      -8.314   9.117  67.064  1.00  0.00    -0.119 NA 
HETATM    5  H   UNL     1      -8.848   9.164  66.196  1.00  0.00     0.000 HD 
BRANCH   4   6
HETATM    6  C   UNL     1      -9.209   8.996  68.217  1.00  0.00    -0.136 C  
BRANCH   6   7
HETATM    7  C   UNL     1     -10.313  10.073  68.181  1.00  0.00    -0.194 C  
HETATM    8  H   UNL     1     -10.642  11.789  69.071  1.00  0.00     0.000 HD 
HETATM    9  O   UNL     1      -9.963  11.126  69.093  1.00  0.00    -0.179 OA 
BRANCH   7  10
HETATM   10  C   UNL     1     -10.467  10.578  66.736  1.00  0.00    -0.242 C  
BRANCH  10  11
HETATM   11  O   UNL     1      -9.947  11.903  66.614  1.00  0.00    -0.195 OA 
BRANCH  11  12
HETATM   12  C   UNL     1     -10.665  12.756  65.811  1.00  0.00    -0.272 A  
HETATM   13  C   UNL     1     -11.765  12.370  65.026  1.00  0.00    -0.420 A  
HETATM   14  C   UNL     1     -12.472  13.296  64.257  1.00  0.00    -0.337 A  
HETATM   15  C   UNL     1     -12.113  14.645  64.244  1.00  0.00    -0.437 A  
HETATM   16  C   UNL     1     -11.026  15.027  65.032  1.00  0.00    -0.423 A  
HETATM   17  C   UNL     1     -10.300  14.123  65.811  1.00  0.00    -0.338 A  
HETATM   18  C   UNL     1      -9.280  14.875  66.465  1.00  0.00    -0.314 A  
HETATM   19  C   UNL     1      -9.409  16.190  66.085  1.00  0.00    -0.336 A  
HETATM   20  N   UNL     1     -10.467  16.272  65.221  1.00  0.00    -0.604 NA 
HETATM   21  H   UNL     1     -10.794  17.131  64.779  1.00  0.00     0.000 HD 
ENDBRANCH  11  12
ENDBRANCH  10  11
ENDBRANCH   7  10
ENDBRANCH   6   7
ENDBRANCH   4   6
ENDBRANCH   2   4
TORSDOF 6
ENDMDL
MODEL      214
REMARK 921   NORMALIZED FREE ENERGY PREDICTED BY IDOCK:   -3.67 KCAL/MOL
REMARK 922        TOTAL FREE ENERGY PREDICTED BY IDOCK:   -5.33 KCAL/MOL
REMARK 923 INTER-LIGAND FREE ENERGY PREDICTED BY IDOCK:   -4.60 KCAL/MOL
REMARK 924 INTRA-LIGAND FREE ENERGY PREDICTED BY IDOCK:   -0.74 KCAL/MOL
REMARK 927      BINDING AFFINITY PREDICTED BY RF-SCORE:    0.00 PKD
ROOT
HETATM    1  C   UNL     1     -12.933  14.026  65.286  1.00  0.00    -0.315 C  
HETATM    2  C   UNL     1     -12.258  12.663  65.115  1.00  0.00    -0.481 C  
HETATM    3  C   UNL     1     -11.736  12.530  63.682  1.00  0.00    -0.594 C  
ENDROOT
BRANCH   2   4
HETATM    4  N   UNL     1     -11.181  12.558  66.104  1.00  0.00    -0.305 NA 
HETATM    5  H   UNL     1     -11.551  12.265  67.009  1.00  0.00     0.000 HD 
BRANCH   4   6
HETATM    6  C   UNL     1     -10.085  11.682  65.684  1.00  0.00    -0.240 C  
BRANCH   6   7
HETATM    7  C   UNL     1      -9.559  10.841  66.865  1.00  0.00    -0.171 C  
HETATM    8  H   UNL     1      -8.744   9.072  67.088  1.00  0.00     0.000 HD 
HETATM    9  O   UNL     1      -9.068   9.589  66.361  1.00  0.00    -0.147 OA 
BRANCH   7  10
HETATM   10  C   UNL     1      -8.468  11.644  67.598  1.00  0.00    -0.142 C  
BRANCH  10  11
HETATM   11  O   UNL     1      -8.164  12.840  66.879  1.00  0.00    -0.135 OA 
BRANCH  11  12
HETATM   12  C   UNL     1      -8.151  13.997  67.622  1.00  0.00    -0.174 A  
HETATM   13  C   UNL     1      -7.506  14.137  68.862  1.00  0.00    -0.112 A  
HETATM   14  C   UNL     1      -7.505  15.352  69.550  1.00  0.00    -0.211 A  
HETATM   15  C   UNL     1      -8.143  16.476  69.024  1.00  0.00    -0.214 A  
HETATM   16  C   UNL     1      -8.774  16.337  67.787  1.00  0.00    -0.179 A  
HETATM   17  C   UNL     1      -8.793  15.134  67.078  1.00  0.00    -0.258 A  
HETATM   18  C   UNL     1      -9.522  15.380  65.876  1.00  0.00    -0.369 A  
HETATM   19  C   UNL     1      -9.917  16.697  65.879  1.00  0.00    -0.295 A  
HETATM   20  N   UNL     1      -9.459  17.267  67.036  1.00  0.00    -0.254 NA 
HETATM   21  H   UNL     1      -9.605  18.241  67.303  1.00  0.00     0.000 HD 
ENDBRANCH  11  12
ENDBRANCH  10  11
ENDBRANCH   7  10
ENDBRANCH   6   7
ENDBRANCH   4   6
ENDBRANCH   2   4
TORSDOF 6
ENDMDL
MODEL      215
REMARK 921   NORMALIZED FREE ENERGY PREDICTED BY IDOCK:   -3.64 KCAL/MOL
REMARK 922        TOTAL FREE ENERGY PREDICTED BY IDOCK:   -5.30 KCAL/MOL
REMARK 923 INTER-LIGAND FREE ENERGY PREDICTED BY IDOCK:   -5.01 KCAL/MOL
REMARK 924 INTRA-LIGAND FREE ENERGY PREDICTED BY IDOCK:   -0.29 KCAL/MOL
REMARK 927      BINDING AFFINITY PREDICTED BY RF-SCORE:    0.00 PKD
ROOT
HETATM    1  C   UNL     1     -10.305  17.068  65.853  1.00  0.00    -0.310 C  
HETATM    2  C   UNL     1      -8.954  17.688  66.218  1.00  0.00    -0.183 C  
HETATM    3  C   UNL     1      -9.154  19.158  66.598  1.00  0.00    -0.361 C  
ENDROOT
BRANCH   2   4
HETATM    4  N   UNL     1      -8.375  16.910  67.318  1.00  0.00    -0.180 NA 
HETATM    5  H   UNL     1      -9.043  16.813  68.082  1.00  0.00     0.000 HD 
BRANCH   4   6
HETATM    6  C   UNL     1      -7.866  15.600  66.904  1.00  0.00    -0.223 C  
BRANCH   6   7
HETATM    7  C   UNL     1      -7.892  14.596  68.074  1.00  0.00    -0.133 C  
HETATM    8  H   UNL     1      -8.875  14.418  69.761  1.00  0.00     0.000 HD 
HETATM    9  O   UNL     1      -8.860  15.036  69.040  1.00  0.00    -0.197 OA 
BRANCH   7  10
HETATM   10  C   UNL     1      -8.214  13.197  67.520  1.00  0.00    -0.183 C  
BRANCH  10  11
HETATM   11  O   UNL     1      -9.531  12.800  67.906  1.00  0.00    -0.194 OA 
BRANCH  11  12
HETATM   12  C   UNL     1     -10.530  13.084  67.005  1.00  0.00    -0.247 A  
HETATM   13  C   UNL     1     -11.544  14.033  67.218  1.00  0.00    -0.396 A  
HETATM   14  C   UNL     1     -12.511  14.296  66.246  1.00  0.00    -0.329 A  
HETATM   15  C   UNL     1     -12.500  13.627  65.021  1.00  0.00    -0.454 A  
HETATM   16  C   UNL     1     -11.485  12.693  64.808  1.00  0.00    -0.321 A  
HETATM   17  C   UNL     1     -10.506  12.408  65.762  1.00  0.00    -0.288 A  
HETATM   18  C   UNL     1      -9.655  11.416  65.191  1.00  0.00    -0.258 A  
HETATM   19  C   UNL     1     -10.121  11.131  63.929  1.00  0.00    -0.348 A  
HETATM   20  N   UNL     1     -11.225  11.908  63.707  1.00  0.00    -0.407 NA 
HETATM   21  H   UNL     1     -11.777  11.905  62.848  1.00  0.00     0.000 HD 
ENDBRANCH  11  12
ENDBRANCH  10  11
ENDBRANCH   7  10
ENDBRANCH   6   7
ENDBRANCH   4   6
ENDBRANCH   2   4
TORSDOF 6
ENDMDL
MODEL      216
REMARK 921   NORMALIZED FREE ENERGY PREDICTED BY IDOCK:   -3.63 KCAL/MOL
REMARK 922        TOTAL FREE ENERGY PREDICTED BY IDOCK:   -5.28 KCAL/MOL
REMARK 923 INTER-LIGAND FREE ENERGY PREDICTED BY IDOCK:   -5.43 KCAL/MOL
REMARK 924 INTRA-LIGAND FREE ENERGY PREDICTED BY IDOCK:    0.15 KCAL/MOL
REMARK 927      BINDING AFFINITY PREDICTED BY RF-SCORE:    0.00 PKD
ROOT
HETATM    1  C   UNL     1     -11.204  15.562  67.571  1.00  0.00    -0.272 C  
HETATM    2  C   UNL     1      -9.789  15.364  68.118  1.00  0.00    -0.213 C  
HETATM    3  C   UNL     1      -9.331  16.644  68.823  1.00  0.00    -0.256 C  
ENDROOT
BRANCH   2   4
HETATM    4  N   UNL     1      -9.805  14.213  69.025  1.00  0.00    -0.413 NA 
HETATM    5  H   UNL     1     -10.675  14.185  69.557  1.00  0.00     0.000 HD 
BRANCH   4   6
HETATM    6  C   UNL     1      -9.567  12.934  68.352  1.00  0.00    -0.176 C  
BRANCH   6   7
HETATM    7  C   UNL     1     -10.539  11.848  68.857  1.00  0.00    -0.173 C  
HETATM    8  H   UNL     1     -12.273  11.820  69.773  1.00  0.00     0.000 HD 
HETATM    9  O   UNL     1     -11.674  12.488  69.462  1.00  0.00    -0.290 OA 
BRANCH   7  10
HETATM   10  C   UNL     1     -10.938  10.950  67.672  1.00  0.00    -0.293 C  
BRANCH  10  11
HETATM   11  O   UNL     1     -12.129  11.441  67.055  1.00  0.00    -0.317 OA 
BRANCH  11  12
HETATM   12  C   UNL     1     -11.952  12.149  65.890  1.00  0.00    -0.177 A  
HETATM   13  C   UNL     1     -12.625  13.342  65.577  1.00  0.00    -0.520 A  
HETATM   14  C   UNL     1     -12.372  14.029  64.388  1.00  0.00    -0.401 A  
HETATM   15  C   UNL     1     -11.435  13.557  63.468  1.00  0.00     0.034 A  
HETATM   16  C   UNL     1     -10.761  12.377  63.788  1.00  0.00    -0.451 A  
HETATM   17  C   UNL     1     -10.993  11.668  64.968  1.00  0.00    -0.334 A  
HETATM   18  C   UNL     1     -10.128  10.533  64.940  1.00  0.00    -0.403 A  
HETATM   19  C   UNL     1      -9.401  10.580  63.774  1.00  0.00    -0.281 A  
HETATM   20  N   UNL     1      -9.790  11.697  63.086  1.00  0.00    -0.495 NA 
HETATM   21  H   UNL     1      -9.413  11.986  62.182  1.00  0.00     0.000 HD 
ENDBRANCH  11  12
ENDBRANCH  10  11
ENDBRANCH   7  10
ENDBRANCH   6   7
ENDBRANCH   4   6
ENDBRANCH   2   4
TORSDOF 6
ENDMDL
MODEL      217
REMARK 921   NORMALIZED FREE ENERGY PREDICTED BY IDOCK:   -3.63 KCAL/MOL
REMARK 922        TOTAL FREE ENERGY PREDICTED BY IDOCK:   -5.28 KCAL/MOL
REMARK 923 INTER-LIGAND FREE ENERGY PREDICTED BY IDOCK:   -4.73 KCAL/MOL
REMARK 924 INTRA-LIGAND FREE ENERGY PREDICTED BY IDOCK:   -0.55 KCAL/MOL
REMARK 927      BINDING AFFINITY PREDICTED BY RF-SCORE:    0.00 PKD
ROOT
HETATM    1  C   UNL     1      -5.538  16.114  68.137  1.00  0.00    -0.111 C  
HETATM    2  C   UNL     1      -6.711  16.147  69.120  1.00  0.00    -0.190 C  
HETATM    3  C   UNL     1      -6.196  15.883  70.538  1.00  0.00     0.217 C  
ENDROOT
BRANCH   2   4
HETATM    4  N   UNL     1      -7.367  17.453  69.008  1.00  0.00    -0.237 NA 
HETATM    5  H   UNL     1      -7.164  18.029  69.825  1.00  0.00     0.000 HD 
BRANCH   4   6
HETATM    6  C   UNL     1      -7.037  18.170  67.774  1.00  0.00    -0.212 C  
BRANCH   6   7
HETATM    7  C   UNL     1      -8.306  18.720  67.092  1.00  0.00    -0.271 C  
HETATM    8  H   UNL     1      -8.732  19.578  65.381  1.00  0.00     0.000 HD 
HETATM    9  O   UNL     1      -7.950  19.239  65.801  1.00  0.00    -0.446 OA 
BRANCH   7  10
HETATM   10  C   UNL     1      -9.349  17.592  67.001  1.00  0.00    -0.259 C  
BRANCH  10  11
HETATM   11  O   UNL     1      -9.089  16.765  65.865  1.00  0.00    -0.492 OA 
BRANCH  11  12
HETATM   12  C   UNL     1     -10.066  15.847  65.558  1.00  0.00    -0.320 A  
HETATM   13  C   UNL     1     -11.114  16.077  64.650  1.00  0.00    -0.346 A  
HETATM   14  C   UNL     1     -12.055  15.088  64.358  1.00  0.00    -0.373 A  
HETATM   15  C   UNL     1     -11.984  13.829  64.957  1.00  0.00    -0.401 A  
HETATM   16  C   UNL     1     -10.937  13.601  65.850  1.00  0.00    -0.282 A  
HETATM   17  C   UNL     1      -9.982  14.571  66.162  1.00  0.00    -0.330 A  
HETATM   18  C   UNL     1      -9.085  13.975  67.098  1.00  0.00    -0.239 A  
HETATM   19  C   UNL     1      -9.500  12.684  67.324  1.00  0.00    -0.199 A  
HETATM   20  N   UNL     1     -10.618  12.467  66.566  1.00  0.00    -0.239 NA 
HETATM   21  H   UNL     1     -11.140  11.591  66.535  1.00  0.00     0.000 HD 
ENDBRANCH  11  12
ENDBRANCH  10  11
ENDBRANCH   7  10
ENDBRANCH   6   7
ENDBRANCH   4   6
ENDBRANCH   2   4
TORSDOF 6
ENDMDL
MODEL      218
REMARK 921   NORMALIZED FREE ENERGY PREDICTED BY IDOCK:   -3.62 KCAL/MOL
REMARK 922        TOTAL FREE ENERGY PREDICTED BY IDOCK:   -5.27 KCAL/MOL
REMARK 923 INTER-LIGAND FREE ENERGY PREDICTED BY IDOCK:   -4.20 KCAL/MOL
REMARK 924 INTRA-LIGAND FREE ENERGY PREDICTED BY IDOCK:   -1.07 KCAL/MOL
REMARK 927      BINDING AFFINITY PREDICTED BY RF-SCORE:    0.00 PKD
ROOT
HETATM    1  C   UNL     1     -10.614  10.143  67.282  1.00  0.00    -0.321 C  
HETATM    2  C   UNL     1      -9.793  10.481  66.036  1.00  0.00    -0.222 C  
HETATM    3  C   UNL     1     -10.564  11.486  65.174  1.00  0.00    -0.350 C  
ENDROOT
BRANCH   2   4
HETATM    4  N   UNL     1      -8.496  11.010  66.470  1.00  0.00    -0.156 NA 
HETATM    5  H   UNL     1      -8.392  11.985  66.187  1.00  0.00     0.000 HD 
BRANCH   4   6
HETATM    6  C   UNL     1      -8.253  10.858  67.906  1.00  0.00    -0.114 C  
BRANCH   6   7
HETATM    7  C   UNL     1      -7.529  12.090  68.483  1.00  0.00    -0.117 C  
HETATM    8  H   UNL     1      -5.848  12.424  69.436  1.00  0.00     0.000 HD 
HETATM    9  O   UNL     1      -6.294  11.665  69.080  1.00  0.00    -0.068 OA 
BRANCH   7  10
HETATM   10  C   UNL     1      -7.309  13.112  67.352  1.00  0.00    -0.111 C  
BRANCH  10  11
HETATM   11  O   UNL     1      -7.943  14.351  67.672  1.00  0.00    -0.149 OA 
BRANCH  11  12
HETATM   12  C   UNL     1      -9.154  14.579  67.063  1.00  0.00    -0.239 A  
HETATM   13  C   UNL     1      -9.306  15.006  65.733  1.00  0.00    -0.171 A  
HETATM   14  C   UNL     1     -10.569  15.187  65.167  1.00  0.00    -0.447 A  
HETATM   15  C   UNL     1     -11.730  14.943  65.903  1.00  0.00    -0.175 A  
HETATM   16  C   UNL     1     -11.575  14.509  67.220  1.00  0.00    -0.385 A  
HETATM   17  C   UNL     1     -10.325  14.321  67.814  1.00  0.00    -0.238 A  
HETATM   18  C   UNL     1     -10.569  13.879  69.148  1.00  0.00    -0.124 A  
HETATM   19  C   UNL     1     -11.930  13.804  69.330  1.00  0.00    -0.347 A  
HETATM   20  N   UNL     1     -12.529  14.185  68.160  1.00  0.00    -0.470 NA 
HETATM   21  H   UNL     1     -13.537  14.224  68.007  1.00  0.00     0.000 HD 
ENDBRANCH  11  12
ENDBRANCH  10  11
ENDBRANCH   7  10
ENDBRANCH   6   7
ENDBRANCH   4   6
ENDBRANCH   2   4
TORSDOF 6
ENDMDL
MODEL      219
REMARK 921   NORMALIZED FREE ENERGY PREDICTED BY IDOCK:   -3.62 KCAL/MOL
REMARK 922        TOTAL FREE ENERGY PREDICTED BY IDOCK:   -5.26 KCAL/MOL
REMARK 923 INTER-LIGAND FREE ENERGY PREDICTED BY IDOCK:   -4.65 KCAL/MOL
REMARK 924 INTRA-LIGAND FREE ENERGY PREDICTED BY IDOCK:   -0.62 KCAL/MOL
REMARK 927      BINDING AFFINITY PREDICTED BY RF-SCORE:    0.00 PKD
ROOT
HETATM    1  C   UNL     1      -8.051   6.462  66.409  1.00  0.00    -0.112 C  
HETATM    2  C   UNL     1      -9.004   6.866  67.536  1.00  0.00    -0.116 C  
HETATM    3  C   UNL     1     -10.225   7.574  66.941  1.00  0.00    -0.359 C  
ENDROOT
BRANCH   2   4
HETATM    4  N   UNL     1      -9.377   5.657  68.277  1.00  0.00    -0.110 NA 
HETATM    5  H   UNL     1      -9.330   4.836  67.673  1.00  0.00     0.000 HD 
BRANCH   4   6
HETATM    6  C   UNL     1      -8.589   5.451  69.494  1.00  0.00    -0.103 C  
BRANCH   6   7
HETATM    7  C   UNL     1      -9.473   4.945  70.652  1.00  0.00    -0.173 C  
HETATM    8  H   UNL     1      -9.291   4.769  72.596  1.00  0.00     0.000 HD 
HETATM    9  O   UNL     1      -8.747   5.081  71.883  1.00  0.00    -0.126 OA 
BRANCH   7  10
HETATM   10  C   UNL     1     -10.788   5.745  70.657  1.00  0.00    -0.267 C  
BRANCH  10  11
HETATM   11  O   UNL     1     -10.791   6.689  71.729  1.00  0.00    -0.224 OA 
BRANCH  11  12
HETATM   12  C   UNL     1     -11.487   7.853  71.499  1.00  0.00    -0.265 A  
HETATM   13  C   UNL     1     -12.799   8.093  71.942  1.00  0.00    -0.360 A  
HETATM   14  C   UNL     1     -13.437   9.311  71.701  1.00  0.00    -0.465 A  
HETATM   15  C   UNL     1     -12.789  10.339  71.015  1.00  0.00    -0.490 A  
HETATM   16  C   UNL     1     -11.483  10.101  70.585  1.00  0.00    -0.349 A  
HETATM   17  C   UNL     1     -10.820   8.892  70.810  1.00  0.00    -0.294 A  
HETATM   18  C   UNL     1      -9.522   9.025  70.233  1.00  0.00    -0.230 A  
HETATM   19  C   UNL     1      -9.424  10.284  69.689  1.00  0.00    -0.151 A  
HETATM   20  N   UNL     1     -10.612  10.926  69.908  1.00  0.00    -0.451 NA 
HETATM   21  H   UNL     1     -10.823  11.879  69.611  1.00  0.00     0.000 HD 
ENDBRANCH  11  12
ENDBRANCH  10  11
ENDBRANCH   7  10
ENDBRANCH   6   7
ENDBRANCH   4   6
ENDBRANCH   2   4
TORSDOF 6
ENDMDL
MODEL      220
REMARK 921   NORMALIZED FREE ENERGY PREDICTED BY IDOCK:   -3.61 KCAL/MOL
REMARK 922        TOTAL FREE ENERGY PREDICTED BY IDOCK:   -5.25 KCAL/MOL
REMARK 923 INTER-LIGAND FREE ENERGY PREDICTED BY IDOCK:   -4.76 KCAL/MOL
REMARK 924 INTRA-LIGAND FREE ENERGY PREDICTED BY IDOCK:   -0.49 KCAL/MOL
REMARK 927      BINDING AFFINITY PREDICTED BY RF-SCORE:    0.00 PKD
ROOT
HETATM    1  C   UNL     1      -8.066   8.576  63.584  1.00  0.00    -0.154 C  
HETATM    2  C   UNL     1      -8.315   8.597  65.094  1.00  0.00    -0.168 C  
HETATM    3  C   UNL     1      -7.161   9.323  65.791  1.00  0.00    -0.090 C  
ENDROOT
BRANCH   2   4
HETATM    4  N   UNL     1      -9.604   9.253  65.337  1.00  0.00    -0.439 NA 
HETATM    5  H   UNL     1     -10.356   8.566  65.378  1.00  0.00     0.000 HD 
BRANCH   4   6
HETATM    6  C   UNL     1      -9.612  10.103  66.530  1.00  0.00    -0.187 C  
BRANCH   6   7
HETATM    7  C   UNL     1     -10.652   9.612  67.557  1.00  0.00    -0.277 C  
HETATM    8  H   UNL     1     -10.706   8.263  68.980  1.00  0.00     0.000 HD 
HETATM    9  O   UNL     1     -10.066   8.566  68.347  1.00  0.00    -0.183 OA 
BRANCH   7  10
HETATM   10  C   UNL     1     -11.105  10.807  68.415  1.00  0.00    -0.266 C  
BRANCH  10  11
HETATM   11  O   UNL     1     -10.177  11.886  68.294  1.00  0.00    -0.193 OA 
BRANCH  11  12
HETATM   12  C   UNL     1     -10.711  13.149  68.397  1.00  0.00    -0.253 A  
HETATM   13  C   UNL     1     -11.364  13.644  69.538  1.00  0.00    -0.276 A  
HETATM   14  C   UNL     1     -11.855  14.950  69.588  1.00  0.00    -0.356 A  
HETATM   15  C   UNL     1     -11.709  15.815  68.503  1.00  0.00    -0.328 A  
HETATM   16  C   UNL     1     -11.050  15.324  67.374  1.00  0.00    -0.326 A  
HETATM   17  C   UNL     1     -10.550  14.023  67.296  1.00  0.00    -0.273 A  
HETATM   18  C   UNL     1      -9.952  13.892  66.007  1.00  0.00    -0.325 A  
HETATM   19  C   UNL     1     -10.093  15.091  65.348  1.00  0.00    -0.362 A  
HETATM   20  N   UNL     1     -10.756  15.949  66.182  1.00  0.00    -0.301 NA 
HETATM   21  H   UNL     1     -10.998  16.914  65.954  1.00  0.00     0.000 HD 
ENDBRANCH  11  12
ENDBRANCH  10  11
ENDBRANCH   7  10
ENDBRANCH   6   7
ENDBRANCH   4   6
ENDBRANCH   2   4
TORSDOF 6
ENDMDL
MODEL      221
REMARK 921   NORMALIZED FREE ENERGY PREDICTED BY IDOCK:   -3.60 KCAL/MOL
REMARK 922        TOTAL FREE ENERGY PREDICTED BY IDOCK:   -5.24 KCAL/MOL
REMARK 923 INTER-LIGAND FREE ENERGY PREDICTED BY IDOCK:   -4.46 KCAL/MOL
REMARK 924 INTRA-LIGAND FREE ENERGY PREDICTED BY IDOCK:   -0.78 KCAL/MOL
REMARK 927      BINDING AFFINITY PREDICTED BY RF-SCORE:    0.00 PKD
ROOT
HETATM    1  C   UNL     1     -10.917  11.150  63.108  1.00  0.00     0.089 C  
HETATM    2  C   UNL     1      -9.968  11.599  64.222  1.00  0.00    -0.267 C  
HETATM    3  C   UNL     1     -10.291  13.044  64.615  1.00  0.00    -0.374 C  
ENDROOT
BRANCH   2   4
HETATM    4  N   UNL     1     -10.117  10.677  65.351  1.00  0.00    -0.280 NA 
HETATM    5  H   UNL     1     -11.101  10.554  65.589  1.00  0.00     0.000 HD 
BRANCH   4   6
HETATM    6  C   UNL     1      -9.469   9.380  65.137  1.00  0.00    -0.185 C  
BRANCH   6   7
HETATM    7  C   UNL     1      -8.915   8.809  66.457  1.00  0.00    -0.148 C  
HETATM    8  H   UNL     1      -7.328   9.106  67.570  1.00  0.00     0.000 HD 
HETATM    9  O   UNL     1      -7.670   9.458  66.757  1.00  0.00    -0.097 OA 
BRANCH   7  10
HETATM   10  C   UNL     1      -9.963   9.014  67.566  1.00  0.00    -0.207 C  
BRANCH  10  11
HETATM   11  O   UNL     1      -9.637  10.161  68.352  1.00  0.00    -0.139 OA 
BRANCH  11  12
HETATM   12  C   UNL     1     -10.639  10.633  69.167  1.00  0.00    -0.226 A  
HETATM   13  C   UNL     1     -11.314   9.857  70.124  1.00  0.00    -0.335 A  
HETATM   14  C   UNL     1     -12.301  10.408  70.943  1.00  0.00    -0.480 A  
HETATM   15  C   UNL     1     -12.650  11.756  70.843  1.00  0.00    -0.384 A  
HETATM   16  C   UNL     1     -11.970  12.526  69.898  1.00  0.00    -0.301 A  
HETATM   17  C   UNL     1     -10.979  12.002  69.065  1.00  0.00    -0.260 A  
HETATM   18  C   UNL     1     -10.523  13.077  68.246  1.00  0.00    -0.258 A  
HETATM   19  C   UNL     1     -11.226  14.207  68.596  1.00  0.00    -0.266 A  
HETATM   20  N   UNL     1     -12.096  13.864  69.594  1.00  0.00    -0.340 NA 
HETATM   21  H   UNL     1     -12.744  14.507  70.049  1.00  0.00     0.000 HD 
ENDBRANCH  11  12
ENDBRANCH  10  11
ENDBRANCH   7  10
ENDBRANCH   6   7
ENDBRANCH   4   6
ENDBRANCH   2   4
TORSDOF 6
ENDMDL
MODEL      222
REMARK 921   NORMALIZED FREE ENERGY PREDICTED BY IDOCK:   -3.60 KCAL/MOL
REMARK 922        TOTAL FREE ENERGY PREDICTED BY IDOCK:   -5.23 KCAL/MOL
REMARK 923 INTER-LIGAND FREE ENERGY PREDICTED BY IDOCK:   -4.23 KCAL/MOL
REMARK 924 INTRA-LIGAND FREE ENERGY PREDICTED BY IDOCK:   -1.01 KCAL/MOL
REMARK 927      BINDING AFFINITY PREDICTED BY RF-SCORE:    0.00 PKD
ROOT
HETATM    1  C   UNL     1     -10.295  18.212  68.764  1.00  0.00    -0.270 C  
HETATM    2  C   UNL     1     -10.299  16.686  68.872  1.00  0.00    -0.300 C  
HETATM    3  C   UNL     1     -11.215  16.259  70.023  1.00  0.00    -0.324 C  
ENDROOT
BRANCH   2   4
HETATM    4  N   UNL     1     -10.739  16.136  67.586  1.00  0.00    -0.319 NA 
HETATM    5  H   UNL     1     -10.068  16.359  66.850  1.00  0.00     0.000 HD 
BRANCH   4   6
HETATM    6  C   UNL     1     -11.005  14.696  67.626  1.00  0.00    -0.293 C  
BRANCH   6   7
HETATM    7  C   UNL     1     -10.039  13.925  66.705  1.00  0.00    -0.273 C  
HETATM    8  H   UNL     1      -9.373  14.125  64.871  1.00  0.00     0.000 HD 
HETATM    9  O   UNL     1      -9.967  14.600  65.439  1.00  0.00    -0.359 OA 
BRANCH   7  10
HETATM   10  C   UNL     1      -8.666  13.828  67.394  1.00  0.00    -0.207 C  
BRANCH  10  11
HETATM   11  O   UNL     1      -7.762  14.785  66.838  1.00  0.00    -0.091 OA 
BRANCH  11  12
HETATM   12  C   UNL     1      -7.215  15.678  67.729  1.00  0.00    -0.155 A  
HETATM   13  C   UNL     1      -6.790  15.345  69.026  1.00  0.00    -0.136 A  
HETATM   14  C   UNL     1      -6.211  16.296  69.869  1.00  0.00    -0.161 A  
HETATM   15  C   UNL     1      -6.030  17.615  69.449  1.00  0.00    -0.235 A  
HETATM   16  C   UNL     1      -6.444  17.939  68.156  1.00  0.00    -0.189 A  
HETATM   17  C   UNL     1      -7.027  17.010  67.292  1.00  0.00    -0.196 A  
HETATM   18  C   UNL     1      -7.312  17.704  66.078  1.00  0.00    -0.301 A  
HETATM   19  C   UNL     1      -6.901  19.007  66.226  1.00  0.00    -0.219 A  
HETATM   20  N   UNL     1      -6.377  19.139  67.483  1.00  0.00    -0.198 NA 
HETATM   21  H   UNL     1      -5.992  20.003  67.866  1.00  0.00     0.000 HD 
ENDBRANCH  11  12
ENDBRANCH  10  11
ENDBRANCH   7  10
ENDBRANCH   6   7
ENDBRANCH   4   6
ENDBRANCH   2   4
TORSDOF 6
ENDMDL
MODEL      223
REMARK 921   NORMALIZED FREE ENERGY PREDICTED BY IDOCK:   -3.60 KCAL/MOL
REMARK 922        TOTAL FREE ENERGY PREDICTED BY IDOCK:   -5.23 KCAL/MOL
REMARK 923 INTER-LIGAND FREE ENERGY PREDICTED BY IDOCK:   -4.86 KCAL/MOL
REMARK 924 INTRA-LIGAND FREE ENERGY PREDICTED BY IDOCK:   -0.37 KCAL/MOL
REMARK 927      BINDING AFFINITY PREDICTED BY RF-SCORE:    0.00 PKD
ROOT
HETATM    1  C   UNL     1     -12.106  16.371  74.076  1.00  0.00    -0.448 C  
HETATM    2  C   UNL     1     -12.454  15.136  73.242  1.00  0.00    -0.483 C  
HETATM    3  C   UNL     1     -13.862  15.293  72.661  1.00  0.00    -0.585 C  
ENDROOT
BRANCH   2   4
HETATM    4  N   UNL     1     -11.440  14.991  72.193  1.00  0.00    -0.462 NA 
HETATM    5  H   UNL     1     -11.436  14.040  71.825  1.00  0.00     0.000 HD 
BRANCH   4   6
HETATM    6  C   UNL     1     -11.576  15.966  71.109  1.00  0.00    -0.432 C  
BRANCH   6   7
HETATM    7  C   UNL     1     -11.660  15.267  69.737  1.00  0.00    -0.314 C  
HETATM    8  H   UNL     1     -11.619  15.830  67.859  1.00  0.00     0.000 HD 
HETATM    9  O   UNL     1     -11.567  16.260  68.704  1.00  0.00    -0.355 OA 
BRANCH   7  10
HETATM   10  C   UNL     1     -10.536  14.220  69.644  1.00  0.00     0.064 C  
BRANCH  10  11
HETATM   11  O   UNL     1     -10.899  13.180  68.734  1.00  0.00    -0.251 OA 
BRANCH  11  12
HETATM   12  C   UNL     1     -10.489  11.914  69.079  1.00  0.00    -0.070 A  
HETATM   13  C   UNL     1     -11.212  11.045  69.913  1.00  0.00    -0.327 A  
HETATM   14  C   UNL     1     -10.753   9.757  70.197  1.00  0.00    -0.339 A  
HETATM   15  C   UNL     1      -9.557   9.284  69.655  1.00  0.00    -0.192 A  
HETATM   16  C   UNL     1      -8.846  10.146  68.818  1.00  0.00    -0.146 A  
HETATM   17  C   UNL     1      -9.280  11.439  68.518  1.00  0.00    -0.174 A  
HETATM   18  C   UNL     1      -8.304  12.005  67.645  1.00  0.00    -0.160 A  
HETATM   19  C   UNL     1      -7.324  11.063  67.433  1.00  0.00    -0.105 A  
HETATM   20  N   UNL     1      -7.661   9.944  68.145  1.00  0.00    -0.082 NA 
HETATM   21  H   UNL     1      -7.113   9.084  68.172  1.00  0.00     0.000 HD 
ENDBRANCH  11  12
ENDBRANCH  10  11
ENDBRANCH   7  10
ENDBRANCH   6   7
ENDBRANCH   4   6
ENDBRANCH   2   4
TORSDOF 6
ENDMDL
MODEL      224
REMARK 921   NORMALIZED FREE ENERGY PREDICTED BY IDOCK:   -3.59 KCAL/MOL
REMARK 922        TOTAL FREE ENERGY PREDICTED BY IDOCK:   -5.23 KCAL/MOL
REMARK 923 INTER-LIGAND FREE ENERGY PREDICTED BY IDOCK:   -4.71 KCAL/MOL
REMARK 924 INTRA-LIGAND FREE ENERGY PREDICTED BY IDOCK:   -0.52 KCAL/MOL
REMARK 927      BINDING AFFINITY PREDICTED BY RF-SCORE:    0.00 PKD
ROOT
HETATM    1  C   UNL     1      -8.978  12.510  66.347  1.00  0.00    -0.077 C  
HETATM    2  C   UNL     1      -7.884  11.688  67.032  1.00  0.00    -0.164 C  
HETATM    3  C   UNL     1      -6.816  12.631  67.594  1.00  0.00    -0.144 C  
ENDROOT
BRANCH   2   4
HETATM    4  N   UNL     1      -8.509  10.878  68.081  1.00  0.00    -0.126 NA 
HETATM    5  H   UNL     1      -8.802   9.973  67.712  1.00  0.00     0.000 HD 
BRANCH   4   6
HETATM    6  C   UNL     1      -7.667  10.705  69.267  1.00  0.00    -0.142 C  
BRANCH   6   7
HETATM    7  C   UNL     1      -7.774   9.272  69.824  1.00  0.00    -0.096 C  
HETATM    8  H   UNL     1      -7.976   8.456  71.596  1.00  0.00     0.000 HD 
HETATM    9  O   UNL     1      -7.910   9.338  71.253  1.00  0.00    -0.322 OA 
BRANCH   7  10
HETATM   10  C   UNL     1      -8.970   8.568  69.157  1.00  0.00    -0.146 C  
BRANCH  10  11
HETATM   11  O   UNL     1     -10.186   9.247  69.473  1.00  0.00    -0.191 OA 
BRANCH  11  12
HETATM   12  C   UNL     1     -11.060   8.562  70.283  1.00  0.00    -0.214 A  
HETATM   13  C   UNL     1     -11.055   7.167  70.457  1.00  0.00    -0.299 A  
HETATM   14  C   UNL     1     -11.951   6.538  71.322  1.00  0.00    -0.364 A  
HETATM   15  C   UNL     1     -12.885   7.275  72.052  1.00  0.00    -0.212 A  
HETATM   16  C   UNL     1     -12.881   8.660  71.885  1.00  0.00    -0.369 A  
HETATM   17  C   UNL     1     -11.997   9.317  71.026  1.00  0.00    -0.369 A  
HETATM   18  C   UNL     1     -12.293  10.710  71.123  1.00  0.00    -0.505 A  
HETATM   19  C   UNL     1     -13.321  10.866  72.023  1.00  0.00    -0.289 A  
HETATM   20  N   UNL     1     -13.668   9.623  72.478  1.00  0.00    -0.684 NA 
HETATM   21  H   UNL     1     -14.405   9.437  73.159  1.00  0.00     0.000 HD 
ENDBRANCH  11  12
ENDBRANCH  10  11
ENDBRANCH   7  10
ENDBRANCH   6   7
ENDBRANCH   4   6
ENDBRANCH   2   4
TORSDOF 6
ENDMDL
MODEL      225
REMARK 921   NORMALIZED FREE ENERGY PREDICTED BY IDOCK:   -3.59 KCAL/MOL
REMARK 922        TOTAL FREE ENERGY PREDICTED BY IDOCK:   -5.22 KCAL/MOL
REMARK 923 INTER-LIGAND FREE ENERGY PREDICTED BY IDOCK:   -4.57 KCAL/MOL
REMARK 924 INTRA-LIGAND FREE ENERGY PREDICTED BY IDOCK:   -0.66 KCAL/MOL
REMARK 927      BINDING AFFINITY PREDICTED BY RF-SCORE:    0.00 PKD
ROOT
HETATM    1  C   UNL     1      -9.422   4.775  66.411  1.00  0.00    -0.159 C  
HETATM    2  C   UNL     1      -9.628   5.430  67.778  1.00  0.00    -0.128 C  
HETATM    3  C   UNL     1     -10.868   6.327  67.732  1.00  0.00    -0.424 C  
ENDROOT
BRANCH   2   4
HETATM    4  N   UNL     1      -9.755   4.369  68.781  1.00  0.00    -0.154 NA 
HETATM    5  H   UNL     1      -8.896   3.821  68.838  1.00  0.00     0.000 HD 
BRANCH   4   6
HETATM    6  C   UNL     1     -10.145   4.858  70.105  1.00  0.00    -0.261 C  
BRANCH   6   7
HETATM    7  C   UNL     1      -8.910   5.112  70.993  1.00  0.00    -0.133 C  
HETATM    8  H   UNL     1      -7.000   4.675  70.914  1.00  0.00     0.000 HD 
HETATM    9  O   UNL     1      -7.760   4.519  70.368  1.00  0.00    -0.052 OA 
BRANCH   7  10
HETATM   10  C   UNL     1      -8.747   6.629  71.195  1.00  0.00    -0.137 C  
BRANCH  10  11
HETATM   11  O   UNL     1     -10.014   7.235  71.458  1.00  0.00    -0.182 OA 
BRANCH  11  12
HETATM   12  C   UNL     1     -10.230   8.454  70.860  1.00  0.00    -0.194 A  
HETATM   13  C   UNL     1      -9.384   9.026  69.895  1.00  0.00    -0.182 A  
HETATM   14  C   UNL     1      -9.680  10.255  69.304  1.00  0.00    -0.240 A  
HETATM   15  C   UNL     1     -10.834  10.960  69.648  1.00  0.00    -0.271 A  
HETATM   16  C   UNL     1     -11.678  10.385  70.600  1.00  0.00    -0.351 A  
HETATM   17  C   UNL     1     -11.407   9.157  71.209  1.00  0.00    -0.406 A  
HETATM   18  C   UNL     1     -12.482   8.903  72.111  1.00  0.00    -0.459 A  
HETATM   19  C   UNL     1     -13.366   9.954  72.028  1.00  0.00    -0.432 A  
HETATM   20  N   UNL     1     -12.872  10.842  71.113  1.00  0.00    -0.399 NA 
HETATM   21  H   UNL     1     -13.323  11.718  70.848  1.00  0.00     0.000 HD 
ENDBRANCH  11  12
ENDBRANCH  10  11
ENDBRANCH   7  10
ENDBRANCH   6   7
ENDBRANCH   4   6
ENDBRANCH   2   4
TORSDOF 6
ENDMDL
MODEL      226
REMARK 921   NORMALIZED FREE ENERGY PREDICTED BY IDOCK:   -3.59 KCAL/MOL
REMARK 922        TOTAL FREE ENERGY PREDICTED BY IDOCK:   -5.22 KCAL/MOL
REMARK 923 INTER-LIGAND FREE ENERGY PREDICTED BY IDOCK:   -4.68 KCAL/MOL
REMARK 924 INTRA-LIGAND FREE ENERGY PREDICTED BY IDOCK:   -0.54 KCAL/MOL
REMARK 927      BINDING AFFINITY PREDICTED BY RF-SCORE:    0.00 PKD
ROOT
HETATM    1  C   UNL     1     -12.232  16.139  72.383  1.00  0.00    -0.592 C  
HETATM    2  C   UNL     1     -11.776  14.747  71.937  1.00  0.00    -0.221 C  
HETATM    3  C   UNL     1     -12.999  13.844  71.756  1.00  0.00    -0.442 C  
ENDROOT
BRANCH   2   4
HETATM    4  N   UNL     1     -11.011  14.892  70.695  1.00  0.00    -0.507 NA 
HETATM    5  H   UNL     1     -10.954  14.001  70.201  1.00  0.00     0.000 HD 
BRANCH   4   6
HETATM    6  C   UNL     1     -11.522  15.942  69.811  1.00  0.00    -0.342 C  
BRANCH   6   7
HETATM    7  C   UNL     1     -10.393  16.549  68.955  1.00  0.00    -0.296 C  
HETATM    8  H   UNL     1      -9.642  18.338  68.671  1.00  0.00     0.000 HD 
HETATM    9  O   UNL     1     -10.337  17.964  69.198  1.00  0.00    -0.340 OA 
BRANCH   7  10
HETATM   10  C   UNL     1      -9.071  15.844  69.305  1.00  0.00    -0.253 C  
BRANCH  10  11
HETATM   11  O   UNL     1      -8.388  15.447  68.114  1.00  0.00    -0.141 OA 
BRANCH  11  12
HETATM   12  C   UNL     1      -7.994  14.131  68.060  1.00  0.00    -0.149 A  
HETATM   13  C   UNL     1      -6.915  13.596  68.784  1.00  0.00    -0.106 A  
HETATM   14  C   UNL     1      -6.588  12.241  68.708  1.00  0.00    -0.084 A  
HETATM   15  C   UNL     1      -7.329  11.366  67.912  1.00  0.00    -0.093 A  
HETATM   16  C   UNL     1      -8.406  11.898  67.203  1.00  0.00    -0.174 A  
HETATM   17  C   UNL     1      -8.756  13.249  67.258  1.00  0.00    -0.214 A  
HETATM   18  C   UNL     1      -9.893  13.412  66.413  1.00  0.00    -0.299 A  
HETATM   19  C   UNL     1     -10.207  12.184  65.880  1.00  0.00    -0.244 A  
HETATM   20  N   UNL     1      -9.305  11.277  66.363  1.00  0.00    -0.187 NA 
HETATM   21  H   UNL     1      -9.298  10.282  66.135  1.00  0.00     0.000 HD 
ENDBRANCH  11  12
ENDBRANCH  10  11
ENDBRANCH   7  10
ENDBRANCH   6   7
ENDBRANCH   4   6
ENDBRANCH   2   4
TORSDOF 6
ENDMDL
MODEL      227
REMARK 921   NORMALIZED FREE ENERGY PREDICTED BY IDOCK:   -3.58 KCAL/MOL
REMARK 922        TOTAL FREE ENERGY PREDICTED BY IDOCK:   -5.21 KCAL/MOL
REMARK 923 INTER-LIGAND FREE ENERGY PREDICTED BY IDOCK:   -4.81 KCAL/MOL
REMARK 924 INTRA-LIGAND FREE ENERGY PREDICTED BY IDOCK:   -0.40 KCAL/MOL
REMARK 927      BINDING AFFINITY PREDICTED BY RF-SCORE:    0.00 PKD
ROOT
HETATM    1  C   UNL     1     -11.454  16.320  69.626  1.00  0.00    -0.213 C  
HETATM    2  C   UNL     1     -11.848  15.349  70.741  1.00  0.00    -0.353 C  
HETATM    3  C   UNL     1     -13.373  15.314  70.871  1.00  0.00    -0.475 C  
ENDROOT
BRANCH   2   4
HETATM    4  N   UNL     1     -11.294  14.030  70.418  1.00  0.00    -0.496 NA 
HETATM    5  H   UNL     1     -10.695  13.696  71.174  1.00  0.00     0.000 HD 
BRANCH   4   6
HETATM    6  C   UNL     1     -12.314  13.033  70.086  1.00  0.00    -0.200 C  
BRANCH   6   7
HETATM    7  C   UNL     1     -11.903  12.204  68.853  1.00  0.00    -0.304 C  
HETATM    8  H   UNL     1     -10.483  12.289  67.503  1.00  0.00     0.000 HD 
HETATM    9  O   UNL     1     -10.736  12.799  68.262  1.00  0.00    -0.223 OA 
BRANCH   7  10
HETATM   10  C   UNL     1     -11.658  10.749  69.292  1.00  0.00    -0.305 C  
BRANCH  10  11
HETATM   11  O   UNL     1     -10.415  10.642  69.989  1.00  0.00    -0.186 OA 
BRANCH  11  12
HETATM   12  C   UNL     1      -9.868   9.382  70.047  1.00  0.00    -0.221 A  
HETATM   13  C   UNL     1      -8.889   8.901  69.162  1.00  0.00    -0.136 A  
HETATM   14  C   UNL     1      -8.351   7.620  69.297  1.00  0.00    -0.134 A  
HETATM   15  C   UNL     1      -8.765   6.771  70.324  1.00  0.00    -0.144 A  
HETATM   16  C   UNL     1      -9.731   7.255  71.208  1.00  0.00    -0.166 A  
HETATM   17  C   UNL     1     -10.287   8.532  71.096  1.00  0.00    -0.273 A  
HETATM   18  C   UNL     1     -11.224   8.664  72.164  1.00  0.00    -0.438 A  
HETATM   19  C   UNL     1     -11.212   7.495  72.889  1.00  0.00    -0.346 A  
HETATM   20  N   UNL     1     -10.307   6.652  72.304  1.00  0.00    -0.195 NA 
HETATM   21  H   UNL     1     -10.090   5.711  72.634  1.00  0.00     0.000 HD 
ENDBRANCH  11  12
ENDBRANCH  10  11
ENDBRANCH   7  10
ENDBRANCH   6   7
ENDBRANCH   4   6
ENDBRANCH   2   4
TORSDOF 6
ENDMDL
MODEL      228
REMARK 921   NORMALIZED FREE ENERGY PREDICTED BY IDOCK:   -3.54 KCAL/MOL
REMARK 922        TOTAL FREE ENERGY PREDICTED BY IDOCK:   -5.15 KCAL/MOL
REMARK 923 INTER-LIGAND FREE ENERGY PREDICTED BY IDOCK:   -4.60 KCAL/MOL
REMARK 924 INTRA-LIGAND FREE ENERGY PREDICTED BY IDOCK:   -0.56 KCAL/MOL
REMARK 927      BINDING AFFINITY PREDICTED BY RF-SCORE:    0.00 PKD
ROOT
HETATM    1  C   UNL     1     -11.993  13.897  67.788  1.00  0.00    -0.390 C  
HETATM    2  C   UNL     1     -11.163  13.889  69.074  1.00  0.00    -0.274 C  
HETATM    3  C   UNL     1     -11.792  12.922  70.081  1.00  0.00    -0.319 C  
ENDROOT
BRANCH   2   4
HETATM    4  N   UNL     1      -9.790  13.508  68.731  1.00  0.00    -0.413 NA 
HETATM    5  H   UNL     1      -9.357  12.990  69.496  1.00  0.00     0.000 HD 
BRANCH   4   6
HETATM    6  C   UNL     1      -9.686  12.759  67.476  1.00  0.00    -0.201 C  
BRANCH   6   7
HETATM    7  C   UNL     1      -8.510  11.763  67.515  1.00  0.00    -0.154 C  
HETATM    8  H   UNL     1      -6.957  11.456  68.672  1.00  0.00     0.000 HD 
HETATM    9  O   UNL     1      -7.682  12.069  68.648  1.00  0.00    -0.125 OA 
BRANCH   7  10
HETATM   10  C   UNL     1      -9.073  10.332  67.573  1.00  0.00    -0.137 C  
BRANCH  10  11
HETATM   11  O   UNL     1     -10.236  10.288  68.402  1.00  0.00    -0.155 OA 
BRANCH  11  12
HETATM   12  C   UNL     1     -10.312   9.224  69.270  1.00  0.00    -0.215 A  
HETATM   13  C   UNL     1     -10.270   9.337  70.670  1.00  0.00    -0.335 A  
HETATM   14  C   UNL     1     -10.385   8.216  71.494  1.00  0.00    -0.265 A  
HETATM   15  C   UNL     1     -10.552   6.940  70.955  1.00  0.00    -0.243 A  
HETATM   16  C   UNL     1     -10.603   6.832  69.564  1.00  0.00    -0.232 A  
HETATM   17  C   UNL     1     -10.489   7.935  68.715  1.00  0.00    -0.198 A  
HETATM   18  C   UNL     1     -10.587   7.436  67.382  1.00  0.00    -0.371 A  
HETATM   19  C   UNL     1     -10.761   6.073  67.449  1.00  0.00    -0.310 A  
HETATM   20  N   UNL     1     -10.770   5.719  68.770  1.00  0.00    -0.259 NA 
HETATM   21  H   UNL     1     -10.885   4.766  69.118  1.00  0.00     0.000 HD 
ENDBRANCH  11  12
ENDBRANCH  10  11
ENDBRANCH   7  10
ENDBRANCH   6   7
ENDBRANCH   4   6
ENDBRANCH   2   4
TORSDOF 6
ENDMDL
MODEL      229
REMARK 921   NORMALIZED FREE ENERGY PREDICTED BY IDOCK:   -3.53 KCAL/MOL
REMARK 922        TOTAL FREE ENERGY PREDICTED BY IDOCK:   -5.15 KCAL/MOL
REMARK 923 INTER-LIGAND FREE ENERGY PREDICTED BY IDOCK:   -4.68 KCAL/MOL
REMARK 924 INTRA-LIGAND FREE ENERGY PREDICTED BY IDOCK:   -0.47 KCAL/MOL
REMARK 927      BINDING AFFINITY PREDICTED BY RF-SCORE:    0.00 PKD
ROOT
HETATM    1  C   UNL     1     -10.863   5.000  72.649  1.00  0.00    -0.286 C  
HETATM    2  C   UNL     1     -11.160   6.459  73.006  1.00  0.00    -0.200 C  
HETATM    3  C   UNL     1     -10.137   6.951  74.033  1.00  0.00    -0.383 C  
ENDROOT
BRANCH   2   4
HETATM    4  N   UNL     1     -11.123   7.249  71.772  1.00  0.00    -0.232 NA 
HETATM    5  H   UNL     1     -10.511   6.812  71.082  1.00  0.00     0.000 HD 
BRANCH   4   6
HETATM    6  C   UNL     1     -12.447   7.505  71.200  1.00  0.00    -0.275 C  
BRANCH   6   7
HETATM    7  C   UNL     1     -12.866   8.976  71.398  1.00  0.00    -0.300 C  
HETATM    8  H   UNL     1     -13.596  10.052  72.865  1.00  0.00     0.000 HD 
HETATM    9  O   UNL     1     -13.338   9.147  72.743  1.00  0.00    -0.410 OA 
BRANCH   7  10
HETATM   10  C   UNL     1     -11.661   9.880  71.082  1.00  0.00    -0.389 C  
BRANCH  10  11
HETATM   11  O   UNL     1     -11.723  10.339  69.731  1.00  0.00    -0.240 OA 
BRANCH  11  12
HETATM   12  C   UNL     1     -10.513  10.537  69.110  1.00  0.00    -0.228 A  
HETATM   13  C   UNL     1      -9.352   9.791  69.378  1.00  0.00    -0.212 A  
HETATM   14  C   UNL     1      -8.162  10.023  68.686  1.00  0.00    -0.111 A  
HETATM   15  C   UNL     1      -8.085  11.003  67.695  1.00  0.00    -0.116 A  
HETATM   16  C   UNL     1      -9.242  11.735  67.424  1.00  0.00    -0.174 A  
HETATM   17  C   UNL     1     -10.446  11.526  68.101  1.00  0.00    -0.216 A  
HETATM   18  C   UNL     1     -11.386  12.450  67.556  1.00  0.00    -0.375 A  
HETATM   19  C   UNL     1     -10.751  13.178  66.578  1.00  0.00    -0.279 A  
HETATM   20  N   UNL     1      -9.457  12.739  66.505  1.00  0.00    -0.255 NA 
HETATM   21  H   UNL     1      -8.753  13.102  65.862  1.00  0.00     0.000 HD 
ENDBRANCH  11  12
ENDBRANCH  10  11
ENDBRANCH   7  10
ENDBRANCH   6   7
ENDBRANCH   4   6
ENDBRANCH   2   4
TORSDOF 6
ENDMDL
MODEL      230
REMARK 921   NORMALIZED FREE ENERGY PREDICTED BY IDOCK:   -3.53 KCAL/MOL
REMARK 922        TOTAL FREE ENERGY PREDICTED BY IDOCK:   -5.15 KCAL/MOL
REMARK 923 INTER-LIGAND FREE ENERGY PREDICTED BY IDOCK:   -4.76 KCAL/MOL
REMARK 924 INTRA-LIGAND FREE ENERGY PREDICTED BY IDOCK:   -0.39 KCAL/MOL
REMARK 927      BINDING AFFINITY PREDICTED BY RF-SCORE:    0.00 PKD
ROOT
HETATM    1  C   UNL     1      -7.040   8.553  65.121  1.00  0.00    -0.075 C  
HETATM    2  C   UNL     1      -6.990   7.925  66.516  1.00  0.00    -0.071 C  
HETATM    3  C   UNL     1      -5.590   8.109  67.108  1.00  0.00    -0.038 C  
ENDROOT
BRANCH   2   4
HETATM    4  N   UNL     1      -8.023   8.558  67.341  1.00  0.00    -0.102 NA 
HETATM    5  H   UNL     1      -8.001   9.572  67.231  1.00  0.00     0.000 HD 
BRANCH   4   6
HETATM    6  C   UNL     1      -9.370   8.039  67.092  1.00  0.00    -0.149 C  
BRANCH   6   7
HETATM    7  C   UNL     1     -10.149   7.855  68.410  1.00  0.00    -0.194 C  
HETATM    8  H   UNL     1      -9.862   6.901  70.099  1.00  0.00     0.000 HD 
HETATM    9  O   UNL     1      -9.383   7.015  69.288  1.00  0.00    -0.146 OA 
BRANCH   7  10
HETATM   10  C   UNL     1     -10.425   9.240  69.022  1.00  0.00    -0.216 C  
BRANCH  10  11
HETATM   11  O   UNL     1     -11.221  10.026  68.134  1.00  0.00    -0.232 OA 
BRANCH  11  12
HETATM   12  C   UNL     1     -11.588  11.267  68.598  1.00  0.00    -0.318 A  
HETATM   13  C   UNL     1     -11.760  11.587  69.955  1.00  0.00    -0.414 A  
HETATM   14  C   UNL     1     -12.102  12.879  70.361  1.00  0.00    -0.385 A  
HETATM   15  C   UNL     1     -12.280  13.902  69.429  1.00  0.00    -0.338 A  
HETATM   16  C   UNL     1     -12.098  13.583  68.082  1.00  0.00    -0.255 A  
HETATM   17  C   UNL     1     -11.757  12.301  67.647  1.00  0.00    -0.403 A  
HETATM   18  C   UNL     1     -11.661  12.364  66.225  1.00  0.00    -0.457 A  
HETATM   19  C   UNL     1     -11.933  13.655  65.837  1.00  0.00    -0.405 A  
HETATM   20  N   UNL     1     -12.194  14.383  66.965  1.00  0.00    -0.563 NA 
HETATM   21  H   UNL     1     -12.427  15.377  66.976  1.00  0.00     0.000 HD 
ENDBRANCH  11  12
ENDBRANCH  10  11
ENDBRANCH   7  10
ENDBRANCH   6   7
ENDBRANCH   4   6
ENDBRANCH   2   4
TORSDOF 6
ENDMDL
MODEL      231
REMARK 921   NORMALIZED FREE ENERGY PREDICTED BY IDOCK:   -3.53 KCAL/MOL
REMARK 922        TOTAL FREE ENERGY PREDICTED BY IDOCK:   -5.15 KCAL/MOL
REMARK 923 INTER-LIGAND FREE ENERGY PREDICTED BY IDOCK:   -4.55 KCAL/MOL
REMARK 924 INTRA-LIGAND FREE ENERGY PREDICTED BY IDOCK:   -0.60 KCAL/MOL
REMARK 927      BINDING AFFINITY PREDICTED BY RF-SCORE:    0.00 PKD
ROOT
HETATM    1  C   UNL     1      -6.510  10.650  66.790  1.00  0.00    -0.086 C  
HETATM    2  C   UNL     1      -7.391  10.306  65.587  1.00  0.00    -0.149 C  
HETATM    3  C   UNL     1      -7.855   8.850  65.695  1.00  0.00    -0.096 C  
ENDROOT
BRANCH   2   4
HETATM    4  N   UNL     1      -8.519  11.242  65.562  1.00  0.00    -0.381 NA 
HETATM    5  H   UNL     1      -9.164  11.008  64.807  1.00  0.00     0.000 HD 
BRANCH   4   6
HETATM    6  C   UNL     1      -9.228  11.337  66.840  1.00  0.00    -0.175 C  
BRANCH   6   7
HETATM    7  C   UNL     1     -10.738  11.078  66.661  1.00  0.00    -0.249 C  
HETATM    8  H   UNL     1     -12.193  10.381  67.775  1.00  0.00     0.000 HD 
HETATM    9  O   UNL     1     -11.264  10.541  67.885  1.00  0.00    -0.296 OA 
BRANCH   7  10
HETATM   10  C   UNL     1     -11.424  12.395  66.258  1.00  0.00    -0.371 C  
BRANCH  10  11
HETATM   11  O   UNL     1     -10.496  13.479  66.323  1.00  0.00    -0.281 OA 
BRANCH  11  12
HETATM   12  C   UNL     1     -10.691  14.373  67.350  1.00  0.00    -0.280 A  
HETATM   13  C   UNL     1     -11.794  14.353  68.220  1.00  0.00    -0.361 A  
HETATM   14  C   UNL     1     -11.914  15.272  69.264  1.00  0.00    -0.327 A  
HETATM   15  C   UNL     1     -10.936  16.243  69.484  1.00  0.00    -0.339 A  
HETATM   16  C   UNL     1      -9.837  16.253  68.625  1.00  0.00    -0.230 A  
HETATM   17  C   UNL     1      -9.690  15.348  67.572  1.00  0.00    -0.208 A  
HETATM   18  C   UNL     1      -8.458  15.667  66.927  1.00  0.00    -0.286 A  
HETATM   19  C   UNL     1      -7.893  16.730  67.591  1.00  0.00    -0.175 A  
HETATM   20  N   UNL     1      -8.732  17.076  68.615  1.00  0.00    -0.259 NA 
HETATM   21  H   UNL     1      -8.563  17.835  69.276  1.00  0.00     0.000 HD 
ENDBRANCH  11  12
ENDBRANCH  10  11
ENDBRANCH   7  10
ENDBRANCH   6   7
ENDBRANCH   4   6
ENDBRANCH   2   4
TORSDOF 6
ENDMDL
MODEL      232
REMARK 921   NORMALIZED FREE ENERGY PREDICTED BY IDOCK:   -3.53 KCAL/MOL
REMARK 922        TOTAL FREE ENERGY PREDICTED BY IDOCK:   -5.14 KCAL/MOL
REMARK 923 INTER-LIGAND FREE ENERGY PREDICTED BY IDOCK:   -4.71 KCAL/MOL
REMARK 924 INTRA-LIGAND FREE ENERGY PREDICTED BY IDOCK:   -0.43 KCAL/MOL
REMARK 927      BINDING AFFINITY PREDICTED BY RF-SCORE:    0.00 PKD
ROOT
HETATM    1  C   UNL     1     -10.004  10.002  67.193  1.00  0.00    -0.251 C  
HETATM    2  C   UNL     1     -10.711  10.421  68.484  1.00  0.00    -0.221 C  
HETATM    3  C   UNL     1     -10.252   9.519  69.633  1.00  0.00    -0.234 C  
ENDROOT
BRANCH   2   4
HETATM    4  N   UNL     1     -10.403  11.832  68.737  1.00  0.00    -0.299 NA 
HETATM    5  H   UNL     1      -9.397  11.970  68.835  1.00  0.00     0.000 HD 
BRANCH   4   6
HETATM    6  C   UNL     1     -10.956  12.742  67.731  1.00  0.00    -0.237 C  
BRANCH   6   7
HETATM    7  C   UNL     1     -11.941  13.744  68.365  1.00  0.00    -0.360 C  
HETATM    8  H   UNL     1     -12.633  14.098  70.165  1.00  0.00     0.000 HD 
HETATM    9  O   UNL     1     -12.026  13.481  69.775  1.00  0.00    -0.310 OA 
BRANCH   7  10
HETATM   10  C   UNL     1     -11.457  15.174  68.066  1.00  0.00    -0.342 C  
BRANCH  10  11
HETATM   11  O   UNL     1     -10.805  15.222  66.796  1.00  0.00    -0.308 OA 
BRANCH  11  12
HETATM   12  C   UNL     1      -9.775  16.127  66.686  1.00  0.00    -0.244 A  
HETATM   13  C   UNL     1      -9.940  17.478  66.336  1.00  0.00    -0.330 A  
HETATM   14  C   UNL     1      -8.854  18.352  66.274  1.00  0.00    -0.204 A  
HETATM   15  C   UNL     1      -7.561  17.914  66.564  1.00  0.00    -0.285 A  
HETATM   16  C   UNL     1      -7.401  16.574  66.921  1.00  0.00    -0.225 A  
HETATM   17  C   UNL     1      -8.469  15.677  66.990  1.00  0.00    -0.257 A  
HETATM   18  C   UNL     1      -7.921  14.419  67.382  1.00  0.00    -0.220 A  
HETATM   19  C   UNL     1      -6.565  14.577  67.546  1.00  0.00    -0.081 A  
HETATM   20  N   UNL     1      -6.261  15.882  67.266  1.00  0.00    -0.303 NA 
HETATM   21  H   UNL     1      -5.324  16.284  67.307  1.00  0.00     0.000 HD 
ENDBRANCH  11  12
ENDBRANCH  10  11
ENDBRANCH   7  10
ENDBRANCH   6   7
ENDBRANCH   4   6
ENDBRANCH   2   4
TORSDOF 6
ENDMDL
MODEL      233
REMARK 921   NORMALIZED FREE ENERGY PREDICTED BY IDOCK:   -3.53 KCAL/MOL
REMARK 922        TOTAL FREE ENERGY PREDICTED BY IDOCK:   -5.14 KCAL/MOL
REMARK 923 INTER-LIGAND FREE ENERGY PREDICTED BY IDOCK:   -4.63 KCAL/MOL
REMARK 924 INTRA-LIGAND FREE ENERGY PREDICTED BY IDOCK:   -0.51 KCAL/MOL
REMARK 927      BINDING AFFINITY PREDICTED BY RF-SCORE:    0.00 PKD
ROOT
HETATM    1  C   UNL     1      -9.506  10.171  67.254  1.00  0.00    -0.178 C  
HETATM    2  C   UNL     1      -9.739   9.446  65.927  1.00  0.00    -0.285 C  
HETATM    3  C   UNL     1      -8.412   9.324  65.173  1.00  0.00    -0.173 C  
ENDROOT
BRANCH   2   4
HETATM    4  N   UNL     1     -10.328   8.135  66.218  1.00  0.00    -0.368 NA 
HETATM    5  H   UNL     1      -9.953   7.424  65.589  1.00  0.00     0.000 HD 
BRANCH   4   6
HETATM    6  C   UNL     1     -10.177   7.723  67.615  1.00  0.00    -0.219 C  
BRANCH   6   7
HETATM    7  C   UNL     1      -9.387   6.403  67.726  1.00  0.00    -0.117 C  
HETATM    8  H   UNL     1      -7.645   5.855  68.440  1.00  0.00     0.000 HD 
HETATM    9  O   UNL     1      -8.132   6.668  68.372  1.00  0.00    -0.113 OA 
BRANCH   7  10
HETATM   10  C   UNL     1     -10.237   5.378  68.498  1.00  0.00    -0.169 C  
BRANCH  10  11
HETATM   11  O   UNL     1     -11.284   6.038  69.212  1.00  0.00    -0.384 OA 
BRANCH  11  12
HETATM   12  C   UNL     1     -11.099   6.158  70.569  1.00  0.00    -0.337 A  
HETATM   13  C   UNL     1     -10.209   5.372  71.321  1.00  0.00    -0.287 A  
HETATM   14  C   UNL     1     -10.046   5.569  72.693  1.00  0.00    -0.211 A  
HETATM   15  C   UNL     1     -10.759   6.560  73.368  1.00  0.00    -0.295 A  
HETATM   16  C   UNL     1     -11.635   7.346  72.617  1.00  0.00    -0.250 A  
HETATM   17  C   UNL     1     -11.820   7.171  71.243  1.00  0.00    -0.355 A  
HETATM   18  C   UNL     1     -12.777   8.146  70.833  1.00  0.00     0.087 A  
HETATM   19  C   UNL     1     -13.140   8.879  71.939  1.00  0.00    -0.386 A  
HETATM   20  N   UNL     1     -12.444   8.389  73.010  1.00  0.00    -0.589 NA 
HETATM   21  H   UNL     1     -12.515   8.745  73.963  1.00  0.00     0.000 HD 
ENDBRANCH  11  12
ENDBRANCH  10  11
ENDBRANCH   7  10
ENDBRANCH   6   7
ENDBRANCH   4   6
ENDBRANCH   2   4
TORSDOF 6
ENDMDL
MODEL      234
REMARK 921   NORMALIZED FREE ENERGY PREDICTED BY IDOCK:   -3.52 KCAL/MOL
REMARK 922        TOTAL FREE ENERGY PREDICTED BY IDOCK:   -5.14 KCAL/MOL
REMARK 923 INTER-LIGAND FREE ENERGY PREDICTED BY IDOCK:   -4.47 KCAL/MOL
REMARK 924 INTRA-LIGAND FREE ENERGY PREDICTED BY IDOCK:   -0.67 KCAL/MOL
REMARK 927      BINDING AFFINITY PREDICTED BY RF-SCORE:    0.00 PKD
ROOT
HETATM    1  C   UNL     1     -13.412   8.903  72.387  1.00  0.00    -0.499 C  
HETATM    2  C   UNL     1     -12.495   8.847  71.164  1.00  0.00    -0.214 C  
HETATM    3  C   UNL     1     -11.110   9.382  71.540  1.00  0.00    -0.446 C  
ENDROOT
BRANCH   2   4
HETATM    4  N   UNL     1     -12.439   7.459  70.695  1.00  0.00    -0.567 NA 
HETATM    5  H   UNL     1     -12.039   7.411  69.758  1.00  0.00     0.000 HD 
BRANCH   4   6
HETATM    6  C   UNL     1     -11.729   6.561  71.609  1.00  0.00    -0.324 C  
BRANCH   6   7
HETATM    7  C   UNL     1     -10.506   5.920  70.923  1.00  0.00    -0.244 C  
HETATM    8  H   UNL     1      -9.614   4.175  70.968  1.00  0.00     0.000 HD 
HETATM    9  O   UNL     1     -10.367   4.569  71.390  1.00  0.00    -0.152 OA 
BRANCH   7  10
HETATM   10  C   UNL     1     -10.697   5.993  69.397  1.00  0.00    -0.334 C  
BRANCH  10  11
HETATM   11  O   UNL     1      -9.477   6.376  68.760  1.00  0.00    -0.128 OA 
BRANCH  11  12
HETATM   12  C   UNL     1      -9.026   7.644  69.045  1.00  0.00    -0.137 A  
HETATM   13  C   UNL     1      -8.051   7.940  70.012  1.00  0.00    -0.117 A  
HETATM   14  C   UNL     1      -7.614   9.248  70.228  1.00  0.00    -0.125 A  
HETATM   15  C   UNL     1      -8.129  10.311  69.484  1.00  0.00    -0.170 A  
HETATM   16  C   UNL     1      -9.090  10.012  68.517  1.00  0.00    -0.127 A  
HETATM   17  C   UNL     1      -9.547   8.714  68.280  1.00  0.00    -0.160 A  
HETATM   18  C   UNL     1     -10.513   8.805  67.234  1.00  0.00    -0.353 A  
HETATM   19  C   UNL     1     -10.614  10.125  66.862  1.00  0.00    -0.200 A  
HETATM   20  N   UNL     1      -9.751  10.845  67.642  1.00  0.00    -0.169 NA 
HETATM   21  H   UNL     1      -9.616  11.855  67.583  1.00  0.00     0.000 HD 
ENDBRANCH  11  12
ENDBRANCH  10  11
ENDBRANCH   7  10
ENDBRANCH   6   7
ENDBRANCH   4   6
ENDBRANCH   2   4
TORSDOF 6
ENDMDL
MODEL      235
REMARK 921   NORMALIZED FREE ENERGY PREDICTED BY IDOCK:   -3.51 KCAL/MOL
REMARK 922        TOTAL FREE ENERGY PREDICTED BY IDOCK:   -5.12 KCAL/MOL
REMARK 923 INTER-LIGAND FREE ENERGY PREDICTED BY IDOCK:   -4.52 KCAL/MOL
REMARK 924 INTRA-LIGAND FREE ENERGY PREDICTED BY IDOCK:   -0.60 KCAL/MOL
REMARK 927      BINDING AFFINITY PREDICTED BY RF-SCORE:    0.00 PKD
ROOT
HETATM    1  C   UNL     1     -12.038  10.703  69.743  1.00  0.00    -0.343 C  
HETATM    2  C   UNL     1     -11.942  10.572  71.264  1.00  0.00    -0.289 C  
HETATM    3  C   UNL     1     -13.351  10.485  71.859  1.00  0.00    -0.461 C  
ENDROOT
BRANCH   2   4
HETATM    4  N   UNL     1     -11.142   9.382  71.572  1.00  0.00    -0.376 NA 
HETATM    5  H   UNL     1     -11.743   8.604  71.843  1.00  0.00     0.000 HD 
BRANCH   4   6
HETATM    6  C   UNL     1     -10.239   8.988  70.488  1.00  0.00    -0.219 C  
BRANCH   6   7
HETATM    7  C   UNL     1      -8.944   8.360  71.041  1.00  0.00    -0.165 C  
HETATM    8  H   UNL     1      -7.256   9.027  71.784  1.00  0.00     0.000 HD 
HETATM    9  O   UNL     1      -8.054   9.413  71.444  1.00  0.00    -0.306 OA 
BRANCH   7  10
HETATM   10  C   UNL     1      -9.305   7.423  72.207  1.00  0.00    -0.142 C  
BRANCH  10  11
HETATM   11  O   UNL     1     -10.471   6.661  71.890  1.00  0.00    -0.200 OA 
BRANCH  11  12
HETATM   12  C   UNL     1     -10.427   5.330  72.233  1.00  0.00    -0.218 A  
HETATM   13  C   UNL     1     -10.928   4.803  73.436  1.00  0.00    -0.396 A  
HETATM   14  C   UNL     1     -10.880   3.435  73.707  1.00  0.00    -0.314 A  
HETATM   15  C   UNL     1     -10.337   2.537  72.787  1.00  0.00    -0.239 A  
HETATM   16  C   UNL     1      -9.850   3.062  71.589  1.00  0.00    -0.143 A  
HETATM   17  C   UNL     1      -9.882   4.426  71.291  1.00  0.00    -0.260 A  
HETATM   18  C   UNL     1      -9.303   4.575  69.995  1.00  0.00    -0.223 A  
HETATM   19  C   UNL     1      -8.946   3.327  69.542  1.00  0.00    -0.113 A  
HETATM   20  N   UNL     1      -9.280   2.421  70.510  1.00  0.00    -0.113 NA 
HETATM   21  H   UNL     1      -9.130   1.414  70.443  1.00  0.00     0.000 HD 
ENDBRANCH  11  12
ENDBRANCH  10  11
ENDBRANCH   7  10
ENDBRANCH   6   7
ENDBRANCH   4   6
ENDBRANCH   2   4
TORSDOF 6
ENDMDL
MODEL      236
REMARK 921   NORMALIZED FREE ENERGY PREDICTED BY IDOCK:   -3.51 KCAL/MOL
REMARK 922        TOTAL FREE ENERGY PREDICTED BY IDOCK:   -5.12 KCAL/MOL
REMARK 923 INTER-LIGAND FREE ENERGY PREDICTED BY IDOCK:   -4.69 KCAL/MOL
REMARK 924 INTRA-LIGAND FREE ENERGY PREDICTED BY IDOCK:   -0.43 KCAL/MOL
REMARK 927      BINDING AFFINITY PREDICTED BY RF-SCORE:    0.00 PKD
ROOT
HETATM    1  C   UNL     1      -8.751   9.095  63.039  1.00  0.00    -0.168 C  
HETATM    2  C   UNL     1      -8.213   8.743  64.428  1.00  0.00    -0.168 C  
HETATM    3  C   UNL     1      -6.730   8.375  64.322  1.00  0.00    -0.067 C  
ENDROOT
BRANCH   2   4
HETATM    4  N   UNL     1      -8.432   9.893  65.309  1.00  0.00    -0.142 NA 
HETATM    5  H   UNL     1      -7.866  10.688  65.012  1.00  0.00     0.000 HD 
BRANCH   4   6
HETATM    6  C   UNL     1      -9.841  10.277  65.432  1.00  0.00    -0.296 C  
BRANCH   6   7
HETATM    7  C   UNL     1     -10.386   9.954  66.838  1.00  0.00    -0.235 C  
HETATM    8  H   UNL     1     -11.069   8.363  67.758  1.00  0.00     0.000 HD 
HETATM    9  O   UNL     1     -10.733   8.562  66.893  1.00  0.00    -0.265 OA 
BRANCH   7  10
HETATM   10  C   UNL     1      -9.320  10.332  67.883  1.00  0.00    -0.138 C  
BRANCH  10  11
HETATM   11  O   UNL     1      -9.942  10.799  69.081  1.00  0.00    -0.208 OA 
BRANCH  11  12
HETATM   12  C   UNL     1     -10.245   9.834  70.012  1.00  0.00    -0.263 A  
HETATM   13  C   UNL     1      -9.445   8.711  70.281  1.00  0.00    -0.182 A  
HETATM   14  C   UNL     1      -9.796   7.785  71.265  1.00  0.00    -0.194 A  
HETATM   15  C   UNL     1     -10.957   7.947  72.023  1.00  0.00    -0.329 A  
HETATM   16  C   UNL     1     -11.745   9.069  71.761  1.00  0.00    -0.369 A  
HETATM   17  C   UNL     1     -11.419  10.010  70.782  1.00  0.00    -0.438 A  
HETATM   18  C   UNL     1     -12.448  10.999  70.808  1.00  0.00    -0.491 A  
HETATM   19  C   UNL     1     -13.351  10.648  71.784  1.00  0.00    -0.334 A  
HETATM   20  N   UNL     1     -12.918   9.482  72.353  1.00  0.00    -0.406 NA 
HETATM   21  H   UNL     1     -13.395   8.990  73.109  1.00  0.00     0.000 HD 
ENDBRANCH  11  12
ENDBRANCH  10  11
ENDBRANCH   7  10
ENDBRANCH   6   7
ENDBRANCH   4   6
ENDBRANCH   2   4
TORSDOF 6
ENDMDL
MODEL      237
REMARK 921   NORMALIZED FREE ENERGY PREDICTED BY IDOCK:   -3.49 KCAL/MOL
REMARK 922        TOTAL FREE ENERGY PREDICTED BY IDOCK:   -5.09 KCAL/MOL
REMARK 923 INTER-LIGAND FREE ENERGY PREDICTED BY IDOCK:   -4.54 KCAL/MOL
REMARK 924 INTRA-LIGAND FREE ENERGY PREDICTED BY IDOCK:   -0.56 KCAL/MOL
REMARK 927      BINDING AFFINITY PREDICTED BY RF-SCORE:    0.00 PKD
ROOT
HETATM    1  C   UNL     1      -6.060   8.264  72.126  1.00  0.00    -0.054 C  
HETATM    2  C   UNL     1      -7.085   7.885  73.197  1.00  0.00    -0.094 C  
HETATM    3  C   UNL     1      -6.693   8.529  74.530  1.00  0.00    -0.193 C  
ENDROOT
BRANCH   2   4
HETATM    4  N   UNL     1      -8.408   8.325  72.742  1.00  0.00    -0.232 NA 
HETATM    5  H   UNL     1      -8.491   8.231  71.730  1.00  0.00     0.000 HD 
BRANCH   4   6
HETATM    6  C   UNL     1      -9.515   7.647  73.419  1.00  0.00    -0.273 C  
BRANCH   6   7
HETATM    7  C   UNL     1      -9.824   6.288  72.758  1.00  0.00    -0.166 C  
HETATM    8  H   UNL     1     -11.265   4.963  72.860  1.00  0.00     0.000 HD 
HETATM    9  O   UNL     1     -11.075   5.799  73.267  1.00  0.00    -0.263 OA 
BRANCH   7  10
HETATM   10  C   UNL     1      -9.847   6.473  71.230  1.00  0.00    -0.181 C  
BRANCH  10  11
HETATM   11  O   UNL     1     -11.065   7.100  70.823  1.00  0.00    -0.252 OA 
BRANCH  11  12
HETATM   12  C   UNL     1     -10.941   8.366  70.302  1.00  0.00    -0.232 A  
HETATM   13  C   UNL     1     -10.063   8.712  69.260  1.00  0.00    -0.203 A  
HETATM   14  C   UNL     1     -10.011  10.013  68.755  1.00  0.00    -0.181 A  
HETATM   15  C   UNL     1     -10.835  11.017  69.265  1.00  0.00    -0.285 A  
HETATM   16  C   UNL     1     -11.712  10.667  70.292  1.00  0.00    -0.344 A  
HETATM   17  C   UNL     1     -11.786   9.376  70.819  1.00  0.00    -0.349 A  
HETATM   18  C   UNL     1     -12.783   9.406  71.838  1.00  0.00    -0.484 A  
HETATM   19  C   UNL     1     -13.287  10.684  71.903  1.00  0.00    -0.349 A  
HETATM   20  N   UNL     1     -12.635  11.437  70.966  1.00  0.00    -0.404 NA 
HETATM   21  H   UNL     1     -12.808  12.428  70.791  1.00  0.00     0.000 HD 
ENDBRANCH  11  12
ENDBRANCH  10  11
ENDBRANCH   7  10
ENDBRANCH   6   7
ENDBRANCH   4   6
ENDBRANCH   2   4
TORSDOF 6
ENDMDL
MODEL      238
REMARK 921   NORMALIZED FREE ENERGY PREDICTED BY IDOCK:   -3.48 KCAL/MOL
REMARK 922        TOTAL FREE ENERGY PREDICTED BY IDOCK:   -5.08 KCAL/MOL
REMARK 923 INTER-LIGAND FREE ENERGY PREDICTED BY IDOCK:   -4.42 KCAL/MOL
REMARK 924 INTRA-LIGAND FREE ENERGY PREDICTED BY IDOCK:   -0.66 KCAL/MOL
REMARK 927      BINDING AFFINITY PREDICTED BY RF-SCORE:    0.00 PKD
ROOT
HETATM    1  C   UNL     1      -8.581   5.516  68.071  1.00  0.00    -0.100 C  
HETATM    2  C   UNL     1      -7.889   6.018  69.341  1.00  0.00    -0.099 C  
HETATM    3  C   UNL     1      -7.484   7.484  69.155  1.00  0.00    -0.098 C  
ENDROOT
BRANCH   2   4
HETATM    4  N   UNL     1      -8.812   5.843  70.466  1.00  0.00    -0.142 NA 
HETATM    5  H   UNL     1      -8.786   6.654  71.084  1.00  0.00     0.000 HD 
BRANCH   4   6
HETATM    6  C   UNL     1     -10.187   5.548  70.055  1.00  0.00    -0.266 C  
BRANCH   6   7
HETATM    7  C   UNL     1     -11.187   5.866  71.185  1.00  0.00    -0.211 C  
HETATM    8  H   UNL     1     -11.576   5.152  72.969  1.00  0.00     0.000 HD 
HETATM    9  O   UNL     1     -10.961   4.957  72.274  1.00  0.00    -0.155 OA 
BRANCH   7  10
HETATM   10  C   UNL     1     -11.010   7.336  71.606  1.00  0.00    -0.226 C  
BRANCH  10  11
HETATM   11  O   UNL     1     -12.039   8.144  71.032  1.00  0.00    -0.286 OA 
BRANCH  11  12
HETATM   12  C   UNL     1     -11.612   9.254  70.341  1.00  0.00    -0.173 A  
HETATM   13  C   UNL     1     -10.742   9.216  69.238  1.00  0.00    -0.199 A  
HETATM   14  C   UNL     1     -10.374  10.380  68.561  1.00  0.00    -0.197 A  
HETATM   15  C   UNL     1     -10.863  11.626  68.954  1.00  0.00    -0.264 A  
HETATM   16  C   UNL     1     -11.735  11.660  70.043  1.00  0.00    -0.321 A  
HETATM   17  C   UNL     1     -12.120  10.512  70.741  1.00  0.00    -0.470 A  
HETATM   18  C   UNL     1     -13.006  10.940  71.774  1.00  0.00    -0.557 A  
HETATM   19  C   UNL     1     -13.142  12.305  71.680  1.00  0.00    -0.306 A  
HETATM   20  N   UNL     1     -12.372  12.730  70.632  1.00  0.00    -0.345 NA 
HETATM   21  H   UNL     1     -12.283  13.700  70.330  1.00  0.00     0.000 HD 
ENDBRANCH  11  12
ENDBRANCH  10  11
ENDBRANCH   7  10
ENDBRANCH   6   7
ENDBRANCH   4   6
ENDBRANCH   2   4
TORSDOF 6
ENDMDL
MODEL      239
REMARK 921   NORMALIZED FREE ENERGY PREDICTED BY IDOCK:   -3.48 KCAL/MOL
REMARK 922        TOTAL FREE ENERGY PREDICTED BY IDOCK:   -5.07 KCAL/MOL
REMARK 923 INTER-LIGAND FREE ENERGY PREDICTED BY IDOCK:   -4.53 KCAL/MOL
REMARK 924 INTRA-LIGAND FREE ENERGY PREDICTED BY IDOCK:   -0.54 KCAL/MOL
REMARK 927      BINDING AFFINITY PREDICTED BY RF-SCORE:    0.00 PKD
ROOT
HETATM    1  C   UNL     1     -11.897  13.070  68.320  1.00  0.00    -0.381 C  
HETATM    2  C   UNL     1     -11.255  13.002  66.933  1.00  0.00    -0.295 C  
HETATM    3  C   UNL     1     -11.214  14.405  66.321  1.00  0.00    -0.338 C  
ENDROOT
BRANCH   2   4
HETATM    4  N   UNL     1      -9.915  12.425  67.075  1.00  0.00    -0.210 NA 
HETATM    5  H   UNL     1      -9.613  12.450  68.049  1.00  0.00     0.000 HD 
BRANCH   4   6
HETATM    6  C   UNL     1      -9.800  11.071  66.530  1.00  0.00    -0.203 C  
BRANCH   6   7
HETATM    7  C   UNL     1      -9.178  10.106  67.561  1.00  0.00    -0.137 C  
HETATM    8  H   UNL     1      -7.644  10.140  68.781  1.00  0.00     0.000 HD 
HETATM    9  O   UNL     1      -8.027  10.734  68.147  1.00  0.00    -0.107 OA 
BRANCH   7  10
HETATM   10  C   UNL     1     -10.245   9.746  68.610  1.00  0.00    -0.190 C  
BRANCH  10  11
HETATM   11  O   UNL     1      -9.871  10.250  69.893  1.00  0.00    -0.211 OA 
BRANCH  11  12
HETATM   12  C   UNL     1     -10.180   9.446  70.965  1.00  0.00    -0.299 A  
HETATM   13  C   UNL     1     -11.488   9.120  71.362  1.00  0.00    -0.420 A  
HETATM   14  C   UNL     1     -11.730   8.270  72.442  1.00  0.00    -0.463 A  
HETATM   15  C   UNL     1     -10.678   7.708  73.166  1.00  0.00    -0.445 A  
HETATM   16  C   UNL     1      -9.380   8.025  72.762  1.00  0.00    -0.263 A  
HETATM   17  C   UNL     1      -9.107   8.873  71.687  1.00  0.00    -0.280 A  
HETATM   18  C   UNL     1      -7.687   8.956  71.582  1.00  0.00    -0.061 A  
HETATM   19  C   UNL     1      -7.140   8.169  72.568  1.00  0.00    -0.099 A  
HETATM   20  N   UNL     1      -8.170   7.611  73.275  1.00  0.00    -0.125 NA 
HETATM   21  H   UNL     1      -8.058   6.979  74.068  1.00  0.00     0.000 HD 
ENDBRANCH  11  12
ENDBRANCH  10  11
ENDBRANCH   7  10
ENDBRANCH   6   7
ENDBRANCH   4   6
ENDBRANCH   2   4
TORSDOF 6
ENDMDL
MODEL      240
REMARK 921   NORMALIZED FREE ENERGY PREDICTED BY IDOCK:   -3.46 KCAL/MOL
REMARK 922        TOTAL FREE ENERGY PREDICTED BY IDOCK:   -5.05 KCAL/MOL
REMARK 923 INTER-LIGAND FREE ENERGY PREDICTED BY IDOCK:   -4.68 KCAL/MOL
REMARK 924 INTRA-LIGAND FREE ENERGY PREDICTED BY IDOCK:   -0.37 KCAL/MOL
REMARK 927      BINDING AFFINITY PREDICTED BY RF-SCORE:    0.00 PKD
ROOT
HETATM    1  C   UNL     1     -11.503  14.689  66.863  1.00  0.00    -0.372 C  
HETATM    2  C   UNL     1     -12.184  13.714  65.900  1.00  0.00    -0.461 C  
HETATM    3  C   UNL     1     -11.470  13.753  64.545  1.00  0.00    -0.401 C  
ENDROOT
BRANCH   2   4
HETATM    4  N   UNL     1     -12.150  12.377  66.500  1.00  0.00    -0.598 NA 
HETATM    5  H   UNL     1     -13.056  11.917  66.407  1.00  0.00     0.000 HD 
BRANCH   4   6
HETATM    6  C   UNL     1     -11.081  11.526  65.973  1.00  0.00    -0.230 C  
BRANCH   6   7
HETATM    7  C   UNL     1     -10.276  10.871  67.113  1.00  0.00    -0.210 C  
HETATM    8  H   UNL     1      -9.952  11.246  69.010  1.00  0.00     0.000 HD 
HETATM    9  O   UNL     1     -10.448  11.649  68.308  1.00  0.00    -0.189 OA 
BRANCH   7  10
HETATM   10  C   UNL     1     -10.755   9.418  67.288  1.00  0.00    -0.188 C  
BRANCH  10  11
HETATM   11  O   UNL     1     -10.225   8.861  68.492  1.00  0.00    -0.188 OA 
BRANCH  11  12
HETATM   12  C   UNL     1     -10.096   7.493  68.511  1.00  0.00    -0.184 A  
HETATM   13  C   UNL     1      -9.589   6.728  67.446  1.00  0.00    -0.158 A  
HETATM   14  C   UNL     1      -9.454   5.342  67.545  1.00  0.00    -0.129 A  
HETATM   15  C   UNL     1      -9.813   4.666  68.711  1.00  0.00    -0.201 A  
HETATM   16  C   UNL     1     -10.306   5.429  69.771  1.00  0.00    -0.305 A  
HETATM   17  C   UNL     1     -10.454   6.816  69.701  1.00  0.00    -0.243 A  
HETATM   18  C   UNL     1     -10.979   7.235  70.959  1.00  0.00    -0.272 A  
HETATM   19  C   UNL     1     -11.129   6.121  71.751  1.00  0.00    -0.274 A  
HETATM   20  N   UNL     1     -10.719   5.035  71.025  1.00  0.00    -0.077 NA 
HETATM   21  H   UNL     1     -10.720   4.073  71.364  1.00  0.00     0.000 HD 
ENDBRANCH  11  12
ENDBRANCH  10  11
ENDBRANCH   7  10
ENDBRANCH   6   7
ENDBRANCH   4   6
ENDBRANCH   2   4
TORSDOF 6
ENDMDL
MODEL      241
REMARK 921   NORMALIZED FREE ENERGY PREDICTED BY IDOCK:   -3.45 KCAL/MOL
REMARK 922        TOTAL FREE ENERGY PREDICTED BY IDOCK:   -5.04 KCAL/MOL
REMARK 923 INTER-LIGAND FREE ENERGY PREDICTED BY IDOCK:   -4.35 KCAL/MOL
REMARK 924 INTRA-LIGAND FREE ENERGY PREDICTED BY IDOCK:   -0.69 KCAL/MOL
REMARK 927      BINDING AFFINITY PREDICTED BY RF-SCORE:    0.00 PKD
ROOT
HETATM    1  C   UNL     1      -7.290   3.910  69.310  1.00  0.00    -0.053 C  
HETATM    2  C   UNL     1      -8.630   3.190  69.482  1.00  0.00    -0.066 C  
HETATM    3  C   UNL     1      -9.046   3.233  70.956  1.00  0.00    -0.183 C  
ENDROOT
BRANCH   2   4
HETATM    4  N   UNL     1      -9.615   3.842  68.614  1.00  0.00    -0.142 NA 
HETATM    5  H   UNL     1     -10.337   4.302  69.169  1.00  0.00     0.000 HD 
BRANCH   4   6
HETATM    6  C   UNL     1      -9.023   4.778  67.656  1.00  0.00    -0.110 C  
BRANCH   6   7
HETATM    7  C   UNL     1     -10.103   5.656  66.993  1.00  0.00    -0.188 C  
HETATM    8  H   UNL     1     -11.488   5.403  65.628  1.00  0.00     0.000 HD 
HETATM    9  O   UNL     1     -10.823   4.863  66.037  1.00  0.00    -0.301 OA 
BRANCH   7  10
HETATM   10  C   UNL     1     -11.022   6.225  68.090  1.00  0.00    -0.323 C  
BRANCH  10  11
HETATM   11  O   UNL     1     -10.244   6.758  69.163  1.00  0.00    -0.168 OA 
BRANCH  11  12
HETATM   12  C   UNL     1     -10.868   7.704  69.941  1.00  0.00    -0.235 A  
HETATM   13  C   UNL     1     -11.619   7.415  71.093  1.00  0.00    -0.313 A  
HETATM   14  C   UNL     1     -12.200   8.428  71.857  1.00  0.00    -0.395 A  
HETATM   15  C   UNL     1     -12.050   9.771  71.505  1.00  0.00    -0.493 A  
HETATM   16  C   UNL     1     -11.294  10.055  70.367  1.00  0.00    -0.320 A  
HETATM   17  C   UNL     1     -10.703   9.062  69.583  1.00  0.00    -0.228 A  
HETATM   18  C   UNL     1     -10.023   9.731  68.521  1.00  0.00    -0.177 A  
HETATM   19  C   UNL     1     -10.207  11.084  68.683  1.00  0.00    -0.199 A  
HETATM   20  N   UNL     1     -10.974  11.270  69.801  1.00  0.00    -0.457 NA 
HETATM   21  H   UNL     1     -11.267  12.178  70.162  1.00  0.00     0.000 HD 
ENDBRANCH  11  12
ENDBRANCH  10  11
ENDBRANCH   7  10
ENDBRANCH   6   7
ENDBRANCH   4   6
ENDBRANCH   2   4
TORSDOF 6
ENDMDL
MODEL      242
REMARK 921   NORMALIZED FREE ENERGY PREDICTED BY IDOCK:   -3.44 KCAL/MOL
REMARK 922        TOTAL FREE ENERGY PREDICTED BY IDOCK:   -5.03 KCAL/MOL
REMARK 923 INTER-LIGAND FREE ENERGY PREDICTED BY IDOCK:   -4.55 KCAL/MOL
REMARK 924 INTRA-LIGAND FREE ENERGY PREDICTED BY IDOCK:   -0.48 KCAL/MOL
REMARK 927      BINDING AFFINITY PREDICTED BY RF-SCORE:    0.00 PKD
ROOT
HETATM    1  C   UNL     1     -11.110   8.667  72.287  1.00  0.00    -0.395 C  
HETATM    2  C   UNL     1     -12.586   8.723  71.886  1.00  0.00    -0.371 C  
HETATM    3  C   UNL     1     -12.922  10.128  71.376  1.00  0.00    -0.528 C  
ENDROOT
BRANCH   2   4
HETATM    4  N   UNL     1     -12.823   7.697  70.866  1.00  0.00    -0.557 NA 
HETATM    5  H   UNL     1     -12.808   8.107  69.932  1.00  0.00     0.000 HD 
BRANCH   4   6
HETATM    6  C   UNL     1     -11.900   6.563  70.950  1.00  0.00    -0.331 C  
BRANCH   6   7
HETATM    7  C   UNL     1     -11.400   6.146  69.552  1.00  0.00    -0.356 C  
HETATM    8  H   UNL     1     -10.532   7.039  68.037  1.00  0.00     0.000 HD 
HETATM    9  O   UNL     1     -10.840   7.296  68.898  1.00  0.00    -0.180 OA 
BRANCH   7  10
HETATM   10  C   UNL     1     -10.376   5.008  69.711  1.00  0.00    -0.216 C  
BRANCH  10  11
HETATM   11  O   UNL     1      -9.274   5.203  68.823  1.00  0.00    -0.110 OA 
BRANCH  11  12
HETATM   12  C   UNL     1      -8.912   4.111  68.070  1.00  0.00    -0.121 A  
HETATM   13  C   UNL     1      -8.058   3.088  68.516  1.00  0.00    -0.071 A  
HETATM   14  C   UNL     1      -7.756   1.988  67.711  1.00  0.00    -0.059 A  
HETATM   15  C   UNL     1      -8.299   1.863  66.431  1.00  0.00    -0.091 A  
HETATM   16  C   UNL     1      -9.155   2.876  65.995  1.00  0.00    -0.130 A  
HETATM   17  C   UNL     1      -9.473   3.988  66.778  1.00  0.00    -0.219 A  
HETATM   18  C   UNL     1     -10.363   4.791  66.004  1.00  0.00    -0.328 A  
HETATM   19  C   UNL     1     -10.566   4.161  64.798  1.00  0.00    -0.153 A  
HETATM   20  N   UNL     1      -9.833   3.006  64.803  1.00  0.00    -0.331 NA 
HETATM   21  H   UNL     1      -9.796   2.336  64.034  1.00  0.00     0.000 HD 
ENDBRANCH  11  12
ENDBRANCH  10  11
ENDBRANCH   7  10
ENDBRANCH   6   7
ENDBRANCH   4   6
ENDBRANCH   2   4
TORSDOF 6
ENDMDL
MODEL      243
REMARK 921   NORMALIZED FREE ENERGY PREDICTED BY IDOCK:   -3.44 KCAL/MOL
REMARK 922        TOTAL FREE ENERGY PREDICTED BY IDOCK:   -5.02 KCAL/MOL
REMARK 923 INTER-LIGAND FREE ENERGY PREDICTED BY IDOCK:   -4.13 KCAL/MOL
REMARK 924 INTRA-LIGAND FREE ENERGY PREDICTED BY IDOCK:   -0.89 KCAL/MOL
REMARK 927      BINDING AFFINITY PREDICTED BY RF-SCORE:    0.00 PKD
ROOT
HETATM    1  C   UNL     1      -7.734   6.198  69.790  1.00  0.00    -0.097 C  
HETATM    2  C   UNL     1      -7.341   6.397  68.324  1.00  0.00    -0.086 C  
HETATM    3  C   UNL     1      -5.949   5.803  68.085  1.00  0.00    -0.017 C  
ENDROOT
BRANCH   2   4
HETATM    4  N   UNL     1      -8.361   5.761  67.485  1.00  0.00    -0.105 NA 
HETATM    5  H   UNL     1      -9.240   5.666  67.996  1.00  0.00     0.000 HD 
BRANCH   4   6
HETATM    6  C   UNL     1      -8.575   6.442  66.206  1.00  0.00    -0.140 C  
BRANCH   6   7
HETATM    7  C   UNL     1      -9.042   7.896  66.420  1.00  0.00    -0.179 C  
HETATM    8  H   UNL     1      -9.146   9.521  65.329  1.00  0.00     0.000 HD 
HETATM    9  O   UNL     1      -8.858   8.626  65.197  1.00  0.00    -0.177 OA 
BRANCH   7  10
HETATM   10  C   UNL     1     -10.513   7.882  66.876  1.00  0.00    -0.318 C  
BRANCH  10  11
HETATM   11  O   UNL     1     -10.624   7.303  68.177  1.00  0.00    -0.203 OA 
BRANCH  11  12
HETATM   12  C   UNL     1     -10.898   8.179  69.200  1.00  0.00    -0.016 A  
HETATM   13  C   UNL     1     -10.886   9.578  69.072  1.00  0.00    -0.184 A  
HETATM   14  C   UNL     1     -11.207  10.411  70.145  1.00  0.00    -0.393 A  
HETATM   15  C   UNL     1     -11.557   9.880  71.388  1.00  0.00    -0.428 A  
HETATM   16  C   UNL     1     -11.578   8.490  71.510  1.00  0.00    -0.292 A  
HETATM   17  C   UNL     1     -11.261   7.633  70.454  1.00  0.00    -0.258 A  
HETATM   18  C   UNL     1     -11.393   6.303  70.954  1.00  0.00    -0.389 A  
HETATM   19  C   UNL     1     -11.785   6.379  72.270  1.00  0.00    -0.290 A  
HETATM   20  N   UNL     1     -11.894   7.704  72.596  1.00  0.00    -0.561 NA 
HETATM   21  H   UNL     1     -12.171   8.058  73.512  1.00  0.00     0.000 HD 
ENDBRANCH  11  12
ENDBRANCH  10  11
ENDBRANCH   7  10
ENDBRANCH   6   7
ENDBRANCH   4   6
ENDBRANCH   2   4
TORSDOF 6
ENDMDL
MODEL      244
REMARK 921   NORMALIZED FREE ENERGY PREDICTED BY IDOCK:   -3.43 KCAL/MOL
REMARK 922        TOTAL FREE ENERGY PREDICTED BY IDOCK:   -5.01 KCAL/MOL
REMARK 923 INTER-LIGAND FREE ENERGY PREDICTED BY IDOCK:   -4.43 KCAL/MOL
REMARK 924 INTRA-LIGAND FREE ENERGY PREDICTED BY IDOCK:   -0.58 KCAL/MOL
REMARK 927      BINDING AFFINITY PREDICTED BY RF-SCORE:    0.00 PKD
ROOT
HETATM    1  C   UNL     1     -12.301   8.601  72.527  1.00  0.00    -0.378 C  
HETATM    2  C   UNL     1     -12.385   8.991  71.049  1.00  0.00    -0.193 C  
HETATM    3  C   UNL     1     -11.623  10.301  70.824  1.00  0.00    -0.446 C  
ENDROOT
BRANCH   2   4
HETATM    4  N   UNL     1     -11.834   7.891  70.252  1.00  0.00    -0.471 NA 
HETATM    5  H   UNL     1     -10.908   8.132  69.897  1.00  0.00     0.000 HD 
BRANCH   4   6
HETATM    6  C   UNL     1     -11.800   6.612  70.965  1.00  0.00    -0.372 C  
BRANCH   6   7
HETATM    7  C   UNL     1     -10.350   6.167  71.242  1.00  0.00    -0.217 C  
HETATM    8  H   UNL     1      -9.454   4.490  71.724  1.00  0.00     0.000 HD 
HETATM    9  O   UNL     1     -10.347   4.764  71.553  1.00  0.00    -0.193 OA 
BRANCH   7  10
HETATM   10  C   UNL     1      -9.486   6.494  70.011  1.00  0.00    -0.156 C  
BRANCH  10  11
HETATM   11  O   UNL     1     -10.182   6.154  68.811  1.00  0.00    -0.156 OA 
BRANCH  11  12
HETATM   12  C   UNL     1      -9.460   6.270  67.647  1.00  0.00    -0.115 A  
HETATM   13  C   UNL     1      -8.656   5.251  67.107  1.00  0.00    -0.105 A  
HETATM   14  C   UNL     1      -7.973   5.425  65.901  1.00  0.00    -0.106 A  
HETATM   15  C   UNL     1      -8.070   6.618  65.185  1.00  0.00    -0.133 A  
HETATM   16  C   UNL     1      -8.877   7.624  65.719  1.00  0.00    -0.100 A  
HETATM   17  C   UNL     1      -9.571   7.480  66.922  1.00  0.00    -0.242 A  
HETATM   18  C   UNL     1     -10.276   8.701  67.136  1.00  0.00    -0.353 A  
HETATM   19  C   UNL     1     -10.008   9.539  66.079  1.00  0.00    -0.278 A  
HETATM   20  N   UNL     1      -9.164   8.880  65.229  1.00  0.00    -0.420 NA 
HETATM   21  H   UNL     1      -8.799   9.263  64.356  1.00  0.00     0.000 HD 
ENDBRANCH  11  12
ENDBRANCH  10  11
ENDBRANCH   7  10
ENDBRANCH   6   7
ENDBRANCH   4   6
ENDBRANCH   2   4
TORSDOF 6
ENDMDL
MODEL      245
REMARK 921   NORMALIZED FREE ENERGY PREDICTED BY IDOCK:   -3.43 KCAL/MOL
REMARK 922        TOTAL FREE ENERGY PREDICTED BY IDOCK:   -5.01 KCAL/MOL
REMARK 923 INTER-LIGAND FREE ENERGY PREDICTED BY IDOCK:   -4.27 KCAL/MOL
REMARK 924 INTRA-LIGAND FREE ENERGY PREDICTED BY IDOCK:   -0.74 KCAL/MOL
REMARK 927      BINDING AFFINITY PREDICTED BY RF-SCORE:    0.00 PKD
ROOT
HETATM    1  C   UNL     1     -10.419  10.548  65.043  1.00  0.00    -0.221 C  
HETATM    2  C   UNL     1      -9.566  11.818  65.035  1.00  0.00    -0.130 C  
HETATM    3  C   UNL     1     -10.481  13.046  65.052  1.00  0.00    -0.345 C  
ENDROOT
BRANCH   2   4
HETATM    4  N   UNL     1      -8.676  11.781  66.198  1.00  0.00    -0.368 NA 
HETATM    5  H   UNL     1      -9.212  11.670  67.059  1.00  0.00     0.000 HD 
BRANCH   4   6
HETATM    6  C   UNL     1      -7.631  10.759  66.103  1.00  0.00    -0.139 C  
BRANCH   6   7
HETATM    7  C   UNL     1      -7.764   9.717  67.232  1.00  0.00    -0.095 C  
HETATM    8  H   UNL     1      -6.554   8.504  68.185  1.00  0.00     0.000 HD 
HETATM    9  O   UNL     1      -6.472   9.145  67.490  1.00  0.00    -0.062 OA 
BRANCH   7  10
HETATM   10  C   UNL     1      -8.357  10.406  68.475  1.00  0.00    -0.124 C  
BRANCH  10  11
HETATM   11  O   UNL     1      -9.770  10.206  68.528  1.00  0.00    -0.147 OA 
BRANCH  11  12
HETATM   12  C   UNL     1     -10.214   9.332  69.492  1.00  0.00    -0.207 A  
HETATM   13  C   UNL     1     -10.474   9.687  70.826  1.00  0.00    -0.375 A  
HETATM   14  C   UNL     1     -10.956   8.755  71.748  1.00  0.00    -0.415 A  
HETATM   15  C   UNL     1     -11.203   7.434  71.372  1.00  0.00    -0.272 A  
HETATM   16  C   UNL     1     -10.953   7.087  70.044  1.00  0.00    -0.270 A  
HETATM   17  C   UNL     1     -10.470   7.997  69.101  1.00  0.00    -0.217 A  
HETATM   18  C   UNL     1     -10.343   7.283  67.872  1.00  0.00    -0.253 A  
HETATM   19  C   UNL     1     -10.749   5.987  68.088  1.00  0.00    -0.278 A  
HETATM   20  N   UNL     1     -11.116   5.879  69.401  1.00  0.00    -0.357 NA 
HETATM   21  H   UNL     1     -11.461   5.025  69.842  1.00  0.00     0.000 HD 
ENDBRANCH  11  12
ENDBRANCH  10  11
ENDBRANCH   7  10
ENDBRANCH   6   7
ENDBRANCH   4   6
ENDBRANCH   2   4
TORSDOF 6
ENDMDL
MODEL      246
REMARK 921   NORMALIZED FREE ENERGY PREDICTED BY IDOCK:   -3.43 KCAL/MOL
REMARK 922        TOTAL FREE ENERGY PREDICTED BY IDOCK:   -5.01 KCAL/MOL
REMARK 923 INTER-LIGAND FREE ENERGY PREDICTED BY IDOCK:   -4.29 KCAL/MOL
REMARK 924 INTRA-LIGAND FREE ENERGY PREDICTED BY IDOCK:   -0.72 KCAL/MOL
REMARK 927      BINDING AFFINITY PREDICTED BY RF-SCORE:    0.00 PKD
ROOT
HETATM    1  C   UNL     1     -11.368   7.889  72.643  1.00  0.00    -0.468 C  
HETATM    2  C   UNL     1     -12.050   6.862  71.738  1.00  0.00    -0.346 C  
HETATM    3  C   UNL     1     -13.536   7.209  71.602  1.00  0.00    -0.397 C  
ENDROOT
BRANCH   2   4
HETATM    4  N   UNL     1     -11.365   6.865  70.442  1.00  0.00    -0.309 NA 
HETATM    5  H   UNL     1     -11.291   7.815  70.076  1.00  0.00     0.000 HD 
BRANCH   4   6
HETATM    6  C   UNL     1     -10.051   6.218  70.473  1.00  0.00    -0.189 C  
BRANCH   6   7
HETATM    7  C   UNL     1      -9.259   6.500  69.180  1.00  0.00    -0.135 C  
HETATM    8  H   UNL     1      -9.080   5.654  67.420  1.00  0.00     0.000 HD 
HETATM    9  O   UNL     1      -9.567   5.481  68.216  1.00  0.00    -0.111 OA 
BRANCH   7  10
HETATM   10  C   UNL     1      -9.619   7.909  68.676  1.00  0.00    -0.155 C  
BRANCH  10  11
HETATM   11  O   UNL     1      -9.524   8.858  69.739  1.00  0.00    -0.163 OA 
BRANCH  11  12
HETATM   12  C   UNL     1      -9.695  10.175  69.383  1.00  0.00    -0.229 A  
HETATM   13  C   UNL     1      -8.833  10.885  68.531  1.00  0.00    -0.153 A  
HETATM   14  C   UNL     1      -9.084  12.214  68.184  1.00  0.00    -0.196 A  
HETATM   15  C   UNL     1     -10.207  12.884  68.670  1.00  0.00    -0.170 A  
HETATM   16  C   UNL     1     -11.067  12.173  69.508  1.00  0.00    -0.050 A  
HETATM   17  C   UNL     1     -10.841  10.844  69.873  1.00  0.00    -0.205 A  
HETATM   18  C   UNL     1     -11.920  10.466  70.727  1.00  0.00    -0.462 A  
HETATM   19  C   UNL     1     -12.762  11.546  70.853  1.00  0.00    -0.278 A  
HETATM   20  N   UNL     1     -12.239  12.571  70.113  1.00  0.00    -0.276 NA 
HETATM   21  H   UNL     1     -12.657  13.497  70.023  1.00  0.00     0.000 HD 
ENDBRANCH  11  12
ENDBRANCH  10  11
ENDBRANCH   7  10
ENDBRANCH   6   7
ENDBRANCH   4   6
ENDBRANCH   2   4
TORSDOF 6
ENDMDL
MODEL      247
REMARK 921   NORMALIZED FREE ENERGY PREDICTED BY IDOCK:   -3.42 KCAL/MOL
REMARK 922        TOTAL FREE ENERGY PREDICTED BY IDOCK:   -5.00 KCAL/MOL
REMARK 923 INTER-LIGAND FREE ENERGY PREDICTED BY IDOCK:   -4.46 KCAL/MOL
REMARK 924 INTRA-LIGAND FREE ENERGY PREDICTED BY IDOCK:   -0.54 KCAL/MOL
REMARK 927      BINDING AFFINITY PREDICTED BY RF-SCORE:    0.00 PKD
ROOT
HETATM    1  C   UNL     1     -10.567   8.080  67.727  1.00  0.00    -0.239 C  
HETATM    2  C   UNL     1     -10.237   9.358  66.953  1.00  0.00    -0.248 C  
HETATM    3  C   UNL     1     -11.142  10.495  67.438  1.00  0.00    -0.322 C  
ENDROOT
BRANCH   2   4
HETATM    4  N   UNL     1      -8.817   9.662  67.155  1.00  0.00    -0.131 NA 
HETATM    5  H   UNL     1      -8.292   9.522  66.291  1.00  0.00     0.000 HD 
BRANCH   4   6
HETATM    6  C   UNL     1      -8.577  11.002  67.696  1.00  0.00    -0.125 C  
BRANCH   6   7
HETATM    7  C   UNL     1      -7.171  11.511  67.320  1.00  0.00    -0.132 C  
HETATM    8  H   UNL     1      -5.920  11.241  65.834  1.00  0.00     0.000 HD 
HETATM    9  O   UNL     1      -6.786  10.928  66.066  1.00  0.00    -0.125 OA 
BRANCH   7  10
HETATM   10  C   UNL     1      -7.198  13.049  67.265  1.00  0.00    -0.049 C  
BRANCH  10  11
HETATM   11  O   UNL     1      -8.477  13.539  67.672  1.00  0.00    -0.158 OA 
BRANCH  11  12
HETATM   12  C   UNL     1      -8.810  14.793  67.218  1.00  0.00    -0.204 A  
HETATM   13  C   UNL     1      -8.255  15.987  67.709  1.00  0.00    -0.159 A  
HETATM   14  C   UNL     1      -8.614  17.228  67.180  1.00  0.00    -0.222 A  
HETATM   15  C   UNL     1      -9.537  17.326  66.137  1.00  0.00    -0.224 A  
HETATM   16  C   UNL     1     -10.079  16.137  65.645  1.00  0.00    -0.337 A  
HETATM   17  C   UNL     1      -9.739  14.882  66.155  1.00  0.00    -0.333 A  
HETATM   18  C   UNL     1     -10.486  13.923  65.409  1.00  0.00    -0.357 A  
HETATM   19  C   UNL     1     -11.240  14.599  64.479  1.00  0.00    -0.282 A  
HETATM   20  N   UNL     1     -10.986  15.935  64.629  1.00  0.00    -0.811 NA 
HETATM   21  H   UNL     1     -11.409  16.675  64.068  1.00  0.00     0.000 HD 
ENDBRANCH  11  12
ENDBRANCH  10  11
ENDBRANCH   7  10
ENDBRANCH   6   7
ENDBRANCH   4   6
ENDBRANCH   2   4
TORSDOF 6
ENDMDL
MODEL      248
REMARK 921   NORMALIZED FREE ENERGY PREDICTED BY IDOCK:   -3.41 KCAL/MOL
REMARK 922        TOTAL FREE ENERGY PREDICTED BY IDOCK:   -4.98 KCAL/MOL
REMARK 923 INTER-LIGAND FREE ENERGY PREDICTED BY IDOCK:   -4.56 KCAL/MOL
REMARK 924 INTRA-LIGAND FREE ENERGY PREDICTED BY IDOCK:   -0.42 KCAL/MOL
REMARK 927      BINDING AFFINITY PREDICTED BY RF-SCORE:    0.00 PKD
ROOT
HETATM    1  C   UNL     1     -11.341   7.344  72.161  1.00  0.00    -0.311 C  
HETATM    2  C   UNL     1     -10.135   6.530  71.686  1.00  0.00    -0.182 C  
HETATM    3  C   UNL     1     -10.623   5.293  70.926  1.00  0.00    -0.247 C  
ENDROOT
BRANCH   2   4
HETATM    4  N   UNL     1      -9.300   7.395  70.847  1.00  0.00    -0.155 NA 
HETATM    5  H   UNL     1      -8.951   6.883  70.037  1.00  0.00     0.000 HD 
BRANCH   4   6
HETATM    6  C   UNL     1      -9.969   8.630  70.432  1.00  0.00    -0.187 C  
BRANCH   6   7
HETATM    7  C   UNL     1      -9.872   8.831  68.906  1.00  0.00    -0.178 C  
HETATM    8  H   UNL     1     -10.065   7.698  67.317  1.00  0.00     0.000 HD 
HETATM    9  O   UNL     1     -10.124   7.575  68.257  1.00  0.00    -0.171 OA 
BRANCH   7  10
HETATM   10  C   UNL     1     -10.877   9.918  68.485  1.00  0.00    -0.217 C  
BRANCH  10  11
HETATM   11  O   UNL     1     -10.192  11.130  68.162  1.00  0.00    -0.171 OA 
BRANCH  11  12
HETATM   12  C   UNL     1     -10.430  11.635  66.905  1.00  0.00    -0.227 A  
HETATM   13  C   UNL     1     -10.465  10.861  65.733  1.00  0.00    -0.275 A  
HETATM   14  C   UNL     1     -10.745  11.434  64.491  1.00  0.00    -0.391 A  
HETATM   15  C   UNL     1     -11.007  12.800  64.371  1.00  0.00    -0.393 A  
HETATM   16  C   UNL     1     -10.981  13.564  65.539  1.00  0.00    -0.288 A  
HETATM   17  C   UNL     1     -10.703  13.018  66.794  1.00  0.00    -0.273 A  
HETATM   18  C   UNL     1     -10.767  14.093  67.730  1.00  0.00    -0.251 A  
HETATM   19  C   UNL     1     -11.083  15.240  67.040  1.00  0.00    -0.305 A  
HETATM   20  N   UNL     1     -11.211  14.910  65.718  1.00  0.00    -0.338 NA 
HETATM   21  H   UNL     1     -11.443  15.567  64.973  1.00  0.00     0.000 HD 
ENDBRANCH  11  12
ENDBRANCH  10  11
ENDBRANCH   7  10
ENDBRANCH   6   7
ENDBRANCH   4   6
ENDBRANCH   2   4
TORSDOF 6
ENDMDL
MODEL      249
REMARK 921   NORMALIZED FREE ENERGY PREDICTED BY IDOCK:   -3.40 KCAL/MOL
REMARK 922        TOTAL FREE ENERGY PREDICTED BY IDOCK:   -4.97 KCAL/MOL
REMARK 923 INTER-LIGAND FREE ENERGY PREDICTED BY IDOCK:   -4.95 KCAL/MOL
REMARK 924 INTRA-LIGAND FREE ENERGY PREDICTED BY IDOCK:   -0.02 KCAL/MOL
REMARK 927      BINDING AFFINITY PREDICTED BY RF-SCORE:    0.00 PKD
ROOT
HETATM    1  C   UNL     1     -11.385  10.948  68.344  1.00  0.00    -0.370 C  
HETATM    2  C   UNL     1     -10.188  11.813  67.943  1.00  0.00    -0.191 C  
HETATM    3  C   UNL     1     -10.639  13.269  67.791  1.00  0.00    -0.249 C  
ENDROOT
BRANCH   2   4
HETATM    4  N   UNL     1      -9.150  11.662  68.967  1.00  0.00    -0.387 NA 
HETATM    5  H   UNL     1      -9.569  11.533  69.888  1.00  0.00     0.000 HD 
BRANCH   4   6
HETATM    6  C   UNL     1      -8.193  10.592  68.678  1.00  0.00    -0.130 C  
BRANCH   6   7
HETATM    7  C   UNL     1      -7.985   9.683  69.906  1.00  0.00    -0.167 C  
HETATM    8  H   UNL     1      -6.966   9.779  71.578  1.00  0.00     0.000 HD 
HETATM    9  O   UNL     1      -7.094  10.338  70.822  1.00  0.00    -0.315 OA 
BRANCH   7  10
HETATM   10  C   UNL     1      -9.356   9.382  70.538  1.00  0.00    -0.262 C  
BRANCH  10  11
HETATM   11  O   UNL     1      -9.192   8.892  71.870  1.00  0.00    -0.310 OA 
BRANCH  11  12
HETATM   12  C   UNL     1      -9.824   7.703  72.152  1.00  0.00    -0.178 A  
HETATM   13  C   UNL     1      -9.162   6.526  72.540  1.00  0.00    -0.138 A  
HETATM   14  C   UNL     1      -9.869   5.360  72.843  1.00  0.00    -0.180 A  
HETATM   15  C   UNL     1     -11.262   5.326  72.778  1.00  0.00    -0.347 A  
HETATM   16  C   UNL     1     -11.917   6.500  72.402  1.00  0.00    -0.160 A  
HETATM   17  C   UNL     1     -11.237   7.680  72.092  1.00  0.00    -0.331 A  
HETATM   18  C   UNL     1     -12.230   8.648  71.759  1.00  0.00    -0.403 A  
HETATM   19  C   UNL     1     -13.463   8.052  71.879  1.00  0.00    -0.304 A  
HETATM   20  N   UNL     1     -13.264   6.756  72.269  1.00  0.00    -0.523 NA 
HETATM   21  H   UNL     1     -14.006   6.077  72.436  1.00  0.00     0.000 HD 
ENDBRANCH  11  12
ENDBRANCH  10  11
ENDBRANCH   7  10
ENDBRANCH   6   7
ENDBRANCH   4   6
ENDBRANCH   2   4
TORSDOF 6
ENDMDL
MODEL      250
REMARK 921   NORMALIZED FREE ENERGY PREDICTED BY IDOCK:   -3.40 KCAL/MOL
REMARK 922        TOTAL FREE ENERGY PREDICTED BY IDOCK:   -4.96 KCAL/MOL
REMARK 923 INTER-LIGAND FREE ENERGY PREDICTED BY IDOCK:   -4.67 KCAL/MOL
REMARK 924 INTRA-LIGAND FREE ENERGY PREDICTED BY IDOCK:   -0.30 KCAL/MOL
REMARK 927      BINDING AFFINITY PREDICTED BY RF-SCORE:    0.00 PKD
ROOT
HETATM    1  C   UNL     1      -7.692  19.612  67.866  1.00  0.00    -0.331 C  
HETATM    2  C   UNL     1      -8.709  18.712  67.160  1.00  0.00    -0.274 C  
HETATM    3  C   UNL     1      -7.973  17.578  66.440  1.00  0.00    -0.320 C  
ENDROOT
BRANCH   2   4
HETATM    4  N   UNL     1      -9.649  18.207  68.164  1.00  0.00    -0.294 NA 
HETATM    5  H   UNL     1     -10.138  18.978  68.621  1.00  0.00     0.000 HD 
BRANCH   4   6
HETATM    6  C   UNL     1     -10.603  17.230  67.633  1.00  0.00    -0.350 C  
BRANCH   6   7
HETATM    7  C   UNL     1     -10.718  16.002  68.559  1.00  0.00    -0.287 C  
HETATM    8  H   UNL     1     -11.306  15.671  70.400  1.00  0.00     0.000 HD 
HETATM    9  O   UNL     1     -11.235  16.427  69.830  1.00  0.00    -0.325 OA 
BRANCH   7  10
HETATM   10  C   UNL     1     -11.618  14.953  67.883  1.00  0.00    -0.344 C  
BRANCH  10  11
HETATM   11  O   UNL     1     -10.950  14.374  66.761  1.00  0.00    -0.303 OA 
BRANCH  11  12
HETATM   12  C   UNL     1      -9.894  13.544  67.056  1.00  0.00    -0.251 A  
HETATM   13  C   UNL     1      -8.550  13.950  67.086  1.00  0.00    -0.217 A  
HETATM   14  C   UNL     1      -7.528  13.062  67.426  1.00  0.00    -0.136 A  
HETATM   15  C   UNL     1      -7.808  11.735  67.755  1.00  0.00    -0.135 A  
HETATM   16  C   UNL     1      -9.146  11.337  67.735  1.00  0.00    -0.152 A  
HETATM   17  C   UNL     1     -10.188  12.203  67.397  1.00  0.00    -0.211 A  
HETATM   18  C   UNL     1     -11.394  11.445  67.487  1.00  0.00    -0.362 A  
HETATM   19  C   UNL     1     -11.067  10.167  67.875  1.00  0.00    -0.238 A  
HETATM   20  N   UNL     1      -9.707  10.112  68.023  1.00  0.00    -0.142 NA 
HETATM   21  H   UNL     1      -9.185   9.283  68.306  1.00  0.00     0.000 HD 
ENDBRANCH  11  12
ENDBRANCH  10  11
ENDBRANCH   7  10
ENDBRANCH   6   7
ENDBRANCH   4   6
ENDBRANCH   2   4
TORSDOF 6
ENDMDL
MODEL      251
REMARK 921   NORMALIZED FREE ENERGY PREDICTED BY IDOCK:   -3.39 KCAL/MOL
REMARK 922        TOTAL FREE ENERGY PREDICTED BY IDOCK:   -4.95 KCAL/MOL
REMARK 923 INTER-LIGAND FREE ENERGY PREDICTED BY IDOCK:   -4.23 KCAL/MOL
REMARK 924 INTRA-LIGAND FREE ENERGY PREDICTED BY IDOCK:   -0.72 KCAL/MOL
REMARK 927      BINDING AFFINITY PREDICTED BY RF-SCORE:    0.00 PKD
ROOT
HETATM    1  C   UNL     1     -11.207   7.994  72.518  1.00  0.00    -0.452 C  
HETATM    2  C   UNL     1     -12.156   8.573  71.465  1.00  0.00    -0.304 C  
HETATM    3  C   UNL     1     -11.806  10.043  71.217  1.00  0.00    -0.471 C  
ENDROOT
BRANCH   2   4
HETATM    4  N   UNL     1     -12.036   7.767  70.247  1.00  0.00    -0.465 NA 
HETATM    5  H   UNL     1     -11.511   8.270  69.532  1.00  0.00     0.000 HD 
BRANCH   4   6
HETATM    6  C   UNL     1     -11.458   6.441  70.477  1.00  0.00    -0.379 C  
BRANCH   6   7
HETATM    7  C   UNL     1     -10.490   6.049  69.342  1.00  0.00    -0.267 C  
HETATM    8  H   UNL     1     -10.640   5.680  67.422  1.00  0.00     0.000 HD 
HETATM    9  O   UNL     1     -11.236   5.922  68.121  1.00  0.00    -0.176 OA 
BRANCH   7  10
HETATM   10  C   UNL     1      -9.384   7.115  69.242  1.00  0.00    -0.146 C  
BRANCH  10  11
HETATM   11  O   UNL     1      -9.113   7.424  67.874  1.00  0.00    -0.131 OA 
BRANCH  11  12
HETATM   12  C   UNL     1      -9.251   8.746  67.521  1.00  0.00    -0.136 A  
HETATM   13  C   UNL     1     -10.480   9.369  67.247  1.00  0.00    -0.332 A  
HETATM   14  C   UNL     1     -10.553  10.726  66.925  1.00  0.00    -0.312 A  
HETATM   15  C   UNL     1      -9.402  11.514  66.868  1.00  0.00    -0.189 A  
HETATM   16  C   UNL     1      -8.184  10.894  67.150  1.00  0.00    -0.126 A  
HETATM   17  C   UNL     1      -8.081   9.539  67.474  1.00  0.00    -0.110 A  
HETATM   18  C   UNL     1      -6.696   9.276  67.693  1.00  0.00    -0.068 A  
HETATM   19  C   UNL     1      -6.005  10.450  67.508  1.00  0.00    -0.052 A  
HETATM   20  N   UNL     1      -6.912  11.421  67.182  1.00  0.00    -0.118 NA 
HETATM   21  H   UNL     1      -6.679  12.395  66.990  1.00  0.00     0.000 HD 
ENDBRANCH  11  12
ENDBRANCH  10  11
ENDBRANCH   7  10
ENDBRANCH   6   7
ENDBRANCH   4   6
ENDBRANCH   2   4
TORSDOF 6
ENDMDL
MODEL      252
REMARK 921   NORMALIZED FREE ENERGY PREDICTED BY IDOCK:   -3.38 KCAL/MOL
REMARK 922        TOTAL FREE ENERGY PREDICTED BY IDOCK:   -4.94 KCAL/MOL
REMARK 923 INTER-LIGAND FREE ENERGY PREDICTED BY IDOCK:   -4.57 KCAL/MOL
REMARK 924 INTRA-LIGAND FREE ENERGY PREDICTED BY IDOCK:   -0.37 KCAL/MOL
REMARK 927      BINDING AFFINITY PREDICTED BY RF-SCORE:    0.00 PKD
ROOT
HETATM    1  C   UNL     1     -10.487   5.975  68.158  1.00  0.00    -0.292 C  
HETATM    2  C   UNL     1      -9.772   7.328  68.183  1.00  0.00    -0.145 C  
HETATM    3  C   UNL     1      -8.386   7.183  67.547  1.00  0.00    -0.116 C  
ENDROOT
BRANCH   2   4
HETATM    4  N   UNL     1     -10.605   8.300  67.470  1.00  0.00    -0.422 NA 
HETATM    5  H   UNL     1     -11.045   8.947  68.124  1.00  0.00     0.000 HD 
BRANCH   4   6
HETATM    6  C   UNL     1      -9.886   9.030  66.423  1.00  0.00    -0.286 C  
BRANCH   6   7
HETATM    7  C   UNL     1     -10.169  10.544  66.504  1.00  0.00    -0.231 C  
HETATM    8  H   UNL     1     -10.993  11.892  65.342  1.00  0.00     0.000 HD 
HETATM    9  O   UNL     1     -10.819  10.960  65.293  1.00  0.00    -0.180 OA 
BRANCH   7  10
HETATM   10  C   UNL     1     -11.026  10.823  67.752  1.00  0.00    -0.297 C  
BRANCH  10  11
HETATM   11  O   UNL     1     -10.256  11.506  68.742  1.00  0.00    -0.212 OA 
BRANCH  11  12
HETATM   12  C   UNL     1     -10.252  12.879  68.654  1.00  0.00    -0.160 A  
HETATM   13  C   UNL     1      -9.434  13.616  67.781  1.00  0.00    -0.221 A  
HETATM   14  C   UNL     1      -9.504  15.008  67.719  1.00  0.00    -0.195 A  
HETATM   15  C   UNL     1     -10.396  15.720  68.522  1.00  0.00    -0.229 A  
HETATM   16  C   UNL     1     -11.214  14.985  69.381  1.00  0.00    -0.284 A  
HETATM   17  C   UNL     1     -11.166  13.592  69.465  1.00  0.00    -0.194 A  
HETATM   18  C   UNL     1     -12.136  13.207  70.438  1.00  0.00    -0.392 A  
HETATM   19  C   UNL     1     -12.743  14.347  70.908  1.00  0.00    -0.355 A  
HETATM   20  N   UNL     1     -12.181  15.415  70.264  1.00  0.00    -0.357 NA 
HETATM   21  H   UNL     1     -12.441  16.390  70.415  1.00  0.00     0.000 HD 
ENDBRANCH  11  12
ENDBRANCH  10  11
ENDBRANCH   7  10
ENDBRANCH   6   7
ENDBRANCH   4   6
ENDBRANCH   2   4
TORSDOF 6
ENDMDL
MODEL      253
REMARK 921   NORMALIZED FREE ENERGY PREDICTED BY IDOCK:   -3.37 KCAL/MOL
REMARK 922        TOTAL FREE ENERGY PREDICTED BY IDOCK:   -4.93 KCAL/MOL
REMARK 923 INTER-LIGAND FREE ENERGY PREDICTED BY IDOCK:   -4.10 KCAL/MOL
REMARK 924 INTRA-LIGAND FREE ENERGY PREDICTED BY IDOCK:   -0.83 KCAL/MOL
REMARK 927      BINDING AFFINITY PREDICTED BY RF-SCORE:    0.00 PKD
ROOT
HETATM    1  C   UNL     1      -8.099   7.295  67.265  1.00  0.00    -0.112 C  
HETATM    2  C   UNL     1      -9.197   8.198  67.831  1.00  0.00    -0.131 C  
HETATM    3  C   UNL     1     -10.540   7.832  67.191  1.00  0.00    -0.401 C  
ENDROOT
BRANCH   2   4
HETATM    4  N   UNL     1      -9.220   8.034  69.288  1.00  0.00    -0.152 NA 
HETATM    5  H   UNL     1      -8.440   7.454  69.598  1.00  0.00     0.000 HD 
BRANCH   4   6
HETATM    6  C   UNL     1      -9.246   9.302  70.019  1.00  0.00    -0.210 C  
BRANCH   6   7
HETATM    7  C   UNL     1     -10.350   9.303  71.096  1.00  0.00    -0.322 C  
HETATM    8  H   UNL     1     -12.309   9.404  71.111  1.00  0.00     0.000 HD 
HETATM    9  O   UNL     1     -11.629   9.403  70.448  1.00  0.00    -0.257 OA 
BRANCH   7  10
HETATM   10  C   UNL     1     -10.221   8.023  71.940  1.00  0.00    -0.214 C  
BRANCH  10  11
HETATM   11  O   UNL     1     -10.938   6.949  71.328  1.00  0.00    -0.235 OA 
BRANCH  11  12
HETATM   12  C   UNL     1     -10.755   5.709  71.893  1.00  0.00    -0.241 A  
HETATM   13  C   UNL     1     -11.193   5.350  73.178  1.00  0.00    -0.355 A  
HETATM   14  C   UNL     1     -11.003   4.061  73.679  1.00  0.00    -0.345 A  
HETATM   15  C   UNL     1     -10.372   3.078  72.914  1.00  0.00    -0.246 A  
HETATM   16  C   UNL     1      -9.947   3.435  71.634  1.00  0.00    -0.107 A  
HETATM   17  C   UNL     1     -10.123   4.717  71.108  1.00  0.00    -0.243 A  
HETATM   18  C   UNL     1      -9.567   4.698  69.794  1.00  0.00    -0.258 A  
HETATM   19  C   UNL     1      -9.083   3.434  69.553  1.00  0.00    -0.135 A  
HETATM   20  N   UNL     1      -9.318   2.678  70.670  1.00  0.00    -0.136 NA 
HETATM   21  H   UNL     1      -9.064   1.696  70.773  1.00  0.00     0.000 HD 
ENDBRANCH  11  12
ENDBRANCH  10  11
ENDBRANCH   7  10
ENDBRANCH   6   7
ENDBRANCH   4   6
ENDBRANCH   2   4
TORSDOF 6
ENDMDL
MODEL      254
REMARK 921   NORMALIZED FREE ENERGY PREDICTED BY IDOCK:   -3.36 KCAL/MOL
REMARK 922        TOTAL FREE ENERGY PREDICTED BY IDOCK:   -4.92 KCAL/MOL
REMARK 923 INTER-LIGAND FREE ENERGY PREDICTED BY IDOCK:   -4.08 KCAL/MOL
REMARK 924 INTRA-LIGAND FREE ENERGY PREDICTED BY IDOCK:   -0.84 KCAL/MOL
REMARK 927      BINDING AFFINITY PREDICTED BY RF-SCORE:    0.00 PKD
ROOT
HETATM    1  C   UNL     1     -11.937  13.645  68.077  1.00  0.00    -0.385 C  
HETATM    2  C   UNL     1     -11.057  12.701  68.901  1.00  0.00    -0.259 C  
HETATM    3  C   UNL     1     -11.855  11.444  69.259  1.00  0.00    -0.417 C  
ENDROOT
BRANCH   2   4
HETATM    4  N   UNL     1      -9.861  12.386  68.114  1.00  0.00    -0.209 NA 
HETATM    5  H   UNL     1      -9.488  11.474  68.376  1.00  0.00     0.000 HD 
BRANCH   4   6
HETATM    6  C   UNL     1     -10.075  12.464  66.667  1.00  0.00    -0.221 C  
BRANCH   6   7
HETATM    7  C   UNL     1      -9.233  11.409  65.922  1.00  0.00    -0.216 C  
HETATM    8  H   UNL     1      -7.435  10.649  66.105  1.00  0.00     0.000 HD 
HETATM    9  O   UNL     1      -7.953  11.298  66.564  1.00  0.00    -0.157 OA 
BRANCH   7  10
HETATM   10  C   UNL     1     -10.001  10.075  65.917  1.00  0.00    -0.269 C  
BRANCH  10  11
HETATM   11  O   UNL     1      -9.940   9.461  67.205  1.00  0.00    -0.177 OA 
BRANCH  11  12
HETATM   12  C   UNL     1      -9.823   8.091  67.210  1.00  0.00    -0.197 A  
HETATM   13  C   UNL     1      -9.146   7.348  66.228  1.00  0.00    -0.195 A  
HETATM   14  C   UNL     1      -9.037   5.959  66.311  1.00  0.00    -0.157 A  
HETATM   15  C   UNL     1      -9.595   5.257  67.380  1.00  0.00    -0.146 A  
HETATM   16  C   UNL     1     -10.258   5.998  68.359  1.00  0.00    -0.181 A  
HETATM   17  C   UNL     1     -10.384   7.388  68.302  1.00  0.00    -0.231 A  
HETATM   18  C   UNL     1     -11.114   7.780  69.462  1.00  0.00    -0.006 A  
HETATM   19  C   UNL     1     -11.405   6.648  70.187  1.00  0.00    -0.382 A  
HETATM   20  N   UNL     1     -10.883   5.577  69.513  1.00  0.00    -0.273 NA 
HETATM   21  H   UNL     1     -10.947   4.607  69.821  1.00  0.00     0.000 HD 
ENDBRANCH  11  12
ENDBRANCH  10  11
ENDBRANCH   7  10
ENDBRANCH   6   7
ENDBRANCH   4   6
ENDBRANCH   2   4
TORSDOF 6
ENDMDL
MODEL      255
REMARK 921   NORMALIZED FREE ENERGY PREDICTED BY IDOCK:   -3.36 KCAL/MOL
REMARK 922        TOTAL FREE ENERGY PREDICTED BY IDOCK:   -4.92 KCAL/MOL
REMARK 923 INTER-LIGAND FREE ENERGY PREDICTED BY IDOCK:   -4.36 KCAL/MOL
REMARK 924 INTRA-LIGAND FREE ENERGY PREDICTED BY IDOCK:   -0.56 KCAL/MOL
REMARK 927      BINDING AFFINITY PREDICTED BY RF-SCORE:    0.00 PKD
ROOT
HETATM    1  C   UNL     1     -11.812  11.237  69.095  1.00  0.00    -0.423 C  
HETATM    2  C   UNL     1     -11.787  10.314  70.316  1.00  0.00    -0.288 C  
HETATM    3  C   UNL     1     -13.071  10.509  71.128  1.00  0.00    -0.450 C  
ENDROOT
BRANCH   2   4
HETATM    4  N   UNL     1     -11.640   8.934  69.844  1.00  0.00    -0.438 NA 
HETATM    5  H   UNL     1     -12.471   8.637  69.334  1.00  0.00     0.000 HD 
BRANCH   4   6
HETATM    6  C   UNL     1     -10.434   8.715  69.042  1.00  0.00    -0.199 C  
BRANCH   6   7
HETATM    7  C   UNL     1      -9.254   8.257  69.923  1.00  0.00    -0.154 C  
HETATM    8  H   UNL     1      -7.769   9.128  70.862  1.00  0.00     0.000 HD 
HETATM    9  O   UNL     1      -8.496   9.410  70.320  1.00  0.00    -0.174 OA 
BRANCH   7  10
HETATM   10  C   UNL     1      -9.808   7.478  71.129  1.00  0.00    -0.173 C  
BRANCH  10  11
HETATM   11  O   UNL     1     -10.715   6.465  70.693  1.00  0.00    -0.230 OA 
BRANCH  11  12
HETATM   12  C   UNL     1     -10.263   5.171  70.800  1.00  0.00    -0.238 A  
HETATM   13  C   UNL     1      -9.520   4.505  69.810  1.00  0.00    -0.247 A  
HETATM   14  C   UNL     1      -9.063   3.199  69.997  1.00  0.00    -0.197 A  
HETATM   15  C   UNL     1      -9.325   2.508  71.181  1.00  0.00    -0.212 A  
HETATM   16  C   UNL     1     -10.054   3.175  72.166  1.00  0.00    -0.130 A  
HETATM   17  C   UNL     1     -10.525   4.481  72.007  1.00  0.00    -0.167 A  
HETATM   18  C   UNL     1     -11.215   4.816  73.209  1.00  0.00    -0.421 A  
HETATM   19  C   UNL     1     -11.145   3.735  74.056  1.00  0.00    -0.078 A  
HETATM   20  N   UNL     1     -10.441   2.750  73.418  1.00  0.00    -0.135 NA 
HETATM   21  H   UNL     1     -10.233   1.833  73.813  1.00  0.00     0.000 HD 
ENDBRANCH  11  12
ENDBRANCH  10  11
ENDBRANCH   7  10
ENDBRANCH   6   7
ENDBRANCH   4   6
ENDBRANCH   2   4
TORSDOF 6
ENDMDL
MODEL      256
REMARK 921   NORMALIZED FREE ENERGY PREDICTED BY IDOCK:   -3.35 KCAL/MOL
REMARK 922        TOTAL FREE ENERGY PREDICTED BY IDOCK:   -4.91 KCAL/MOL
REMARK 923 INTER-LIGAND FREE ENERGY PREDICTED BY IDOCK:   -4.11 KCAL/MOL
REMARK 924 INTRA-LIGAND FREE ENERGY PREDICTED BY IDOCK:   -0.80 KCAL/MOL
REMARK 927      BINDING AFFINITY PREDICTED BY RF-SCORE:    0.00 PKD
ROOT
HETATM    1  C   UNL     1     -11.849  12.285  65.700  1.00  0.00    -0.423 C  
HETATM    2  C   UNL     1     -11.632  13.800  65.674  1.00  0.00    -0.330 C  
HETATM    3  C   UNL     1     -12.358  14.398  64.465  1.00  0.00    -0.440 C  
ENDROOT
BRANCH   2   4
HETATM    4  N   UNL     1     -12.124  14.355  66.939  1.00  0.00    -0.496 NA 
HETATM    5  H   UNL     1     -12.262  13.615  67.628  1.00  0.00     0.000 HD 
BRANCH   4   6
HETATM    6  C   UNL     1     -11.273  15.416  67.482  1.00  0.00    -0.302 C  
BRANCH   6   7
HETATM    7  C   UNL     1     -10.709  15.027  68.863  1.00  0.00    -0.240 C  
HETATM    8  H   UNL     1     -11.185  13.755  70.277  1.00  0.00     0.000 HD 
HETATM    9  O   UNL     1     -11.533  13.995  69.427  1.00  0.00    -0.262 OA 
BRANCH   7  10
HETATM   10  C   UNL     1      -9.246  14.579  68.693  1.00  0.00    -0.192 C  
BRANCH  10  11
HETATM   11  O   UNL     1      -9.173  13.427  67.852  1.00  0.00    -0.198 OA 
BRANCH  11  12
HETATM   12  C   UNL     1      -8.373  12.405  68.304  1.00  0.00    -0.169 A  
HETATM   13  C   UNL     1      -6.968  12.440  68.309  1.00  0.00    -0.091 A  
HETATM   14  C   UNL     1      -6.215  11.378  68.814  1.00  0.00    -0.050 A  
HETATM   15  C   UNL     1      -6.834  10.243  69.339  1.00  0.00    -0.076 A  
HETATM   16  C   UNL     1      -8.230  10.216  69.342  1.00  0.00    -0.166 A  
HETATM   17  C   UNL     1      -9.009  11.262  68.843  1.00  0.00    -0.054 A  
HETATM   18  C   UNL     1     -10.371  10.875  69.015  1.00  0.00    -0.230 A  
HETATM   19  C   UNL     1     -10.390   9.635  69.608  1.00  0.00    -0.227 A  
HETATM   20  N   UNL     1      -9.093   9.245  69.802  1.00  0.00    -0.163 NA 
HETATM   21  H   UNL     1      -8.806   8.363  70.227  1.00  0.00     0.000 HD 
ENDBRANCH  11  12
ENDBRANCH  10  11
ENDBRANCH   7  10
ENDBRANCH   6   7
ENDBRANCH   4   6
ENDBRANCH   2   4
TORSDOF 6
ENDMDL
MODEL      257
REMARK 921   NORMALIZED FREE ENERGY PREDICTED BY IDOCK:   -3.33 KCAL/MOL
REMARK 922        TOTAL FREE ENERGY PREDICTED BY IDOCK:   -4.88 KCAL/MOL
REMARK 923 INTER-LIGAND FREE ENERGY PREDICTED BY IDOCK:   -3.99 KCAL/MOL
REMARK 924 INTRA-LIGAND FREE ENERGY PREDICTED BY IDOCK:   -0.89 KCAL/MOL
REMARK 927      BINDING AFFINITY PREDICTED BY RF-SCORE:    0.00 PKD
ROOT
HETATM    1  C   UNL     1      -9.177   4.842  67.144  1.00  0.00    -0.136 C  
HETATM    2  C   UNL     1      -9.581   6.280  67.474  1.00  0.00    -0.116 C  
HETATM    3  C   UNL     1     -11.073   6.469  67.186  1.00  0.00    -0.434 C  
ENDROOT
BRANCH   2   4
HETATM    4  N   UNL     1      -9.255   6.538  68.880  1.00  0.00    -0.130 NA 
HETATM    5  H   UNL     1      -8.518   7.239  68.957  1.00  0.00     0.000 HD 
BRANCH   4   6
HETATM    6  C   UNL     1     -10.416   6.914  69.690  1.00  0.00    -0.218 C  
BRANCH   6   7
HETATM    7  C   UNL     1     -10.036   7.959  70.758  1.00  0.00    -0.184 C  
HETATM    8  H   UNL     1      -8.372   8.627  71.551  1.00  0.00     0.000 HD 
HETATM    9  O   UNL     1      -8.606   7.984  70.893  1.00  0.00    -0.126 OA 
BRANCH   7  10
HETATM   10  C   UNL     1     -10.608   9.326  70.342  1.00  0.00    -0.248 C  
BRANCH  10  11
HETATM   11  O   UNL     1     -11.003   9.302  68.970  1.00  0.00    -0.157 OA 
BRANCH  11  12
HETATM   12  C   UNL     1     -10.805  10.470  68.271  1.00  0.00    -0.248 A  
HETATM   13  C   UNL     1     -11.712  11.543  68.245  1.00  0.00    -0.371 A  
HETATM   14  C   UNL     1     -11.434  12.715  67.540  1.00  0.00    -0.397 A  
HETATM   15  C   UNL     1     -10.238  12.864  66.836  1.00  0.00    -0.243 A  
HETATM   16  C   UNL     1      -9.335  11.800  66.871  1.00  0.00    -0.192 A  
HETATM   17  C   UNL     1      -9.587  10.616  67.568  1.00  0.00    -0.180 A  
HETATM   18  C   UNL     1      -8.449   9.778  67.372  1.00  0.00    -0.121 A  
HETATM   19  C   UNL     1      -7.548  10.458  66.586  1.00  0.00    -0.114 A  
HETATM   20  N   UNL     1      -8.092  11.678  66.290  1.00  0.00    -0.375 NA 
HETATM   21  H   UNL     1      -7.641  12.394  65.720  1.00  0.00     0.000 HD 
ENDBRANCH  11  12
ENDBRANCH  10  11
ENDBRANCH   7  10
ENDBRANCH   6   7
ENDBRANCH   4   6
ENDBRANCH   2   4
TORSDOF 6
ENDMDL
MODEL      258
REMARK 921   NORMALIZED FREE ENERGY PREDICTED BY IDOCK:   -3.33 KCAL/MOL
REMARK 922        TOTAL FREE ENERGY PREDICTED BY IDOCK:   -4.87 KCAL/MOL
REMARK 923 INTER-LIGAND FREE ENERGY PREDICTED BY IDOCK:   -4.25 KCAL/MOL
REMARK 924 INTRA-LIGAND FREE ENERGY PREDICTED BY IDOCK:   -0.62 KCAL/MOL
REMARK 927      BINDING AFFINITY PREDICTED BY RF-SCORE:    0.00 PKD
ROOT
HETATM    1  C   UNL     1     -14.288   8.563  72.445  1.00  0.00    -0.412 C  
HETATM    2  C   UNL     1     -13.329   8.751  71.267  1.00  0.00    -0.156 C  
HETATM    3  C   UNL     1     -12.836  10.200  71.237  1.00  0.00    -0.508 C  
ENDROOT
BRANCH   2   4
HETATM    4  N   UNL     1     -12.225   7.798  71.418  1.00  0.00    -0.312 NA 
HETATM    5  H   UNL     1     -11.565   7.885  70.645  1.00  0.00     0.000 HD 
BRANCH   4   6
HETATM    6  C   UNL     1     -11.534   7.903  72.705  1.00  0.00    -0.395 C  
BRANCH   6   7
HETATM    7  C   UNL     1     -10.005   7.970  72.513  1.00  0.00    -0.270 C  
HETATM    8  H   UNL     1      -8.426   7.488  73.571  1.00  0.00     0.000 HD 
HETATM    9  O   UNL     1      -9.367   7.447  73.688  1.00  0.00    -0.212 OA 
BRANCH   7  10
HETATM   10  C   UNL     1      -9.629   7.183  71.245  1.00  0.00    -0.163 C  
BRANCH  10  11
HETATM   11  O   UNL     1      -8.838   7.992  70.374  1.00  0.00    -0.138 OA 
BRANCH  11  12
HETATM   12  C   UNL     1      -9.390   8.266  69.145  1.00  0.00    -0.151 A  
HETATM   13  C   UNL     1     -10.065   7.324  68.350  1.00  0.00    -0.188 A  
HETATM   14  C   UNL     1     -10.632   7.678  67.125  1.00  0.00    -0.410 A  
HETATM   15  C   UNL     1     -10.553   8.987  66.646  1.00  0.00    -0.158 A  
HETATM   16  C   UNL     1      -9.891   9.923  67.443  1.00  0.00    -0.179 A  
HETATM   17  C   UNL     1      -9.314   9.597  68.672  1.00  0.00    -0.143 A  
HETATM   18  C   UNL     1      -8.738  10.798  69.183  1.00  0.00    -0.101 A  
HETATM   19  C   UNL     1      -8.978  11.805  68.278  1.00  0.00    -0.180 A  
HETATM   20  N   UNL     1      -9.676  11.267  67.232  1.00  0.00    -0.173 NA 
HETATM   21  H   UNL     1      -9.991  11.787  66.412  1.00  0.00     0.000 HD 
ENDBRANCH  11  12
ENDBRANCH  10  11
ENDBRANCH   7  10
ENDBRANCH   6   7
ENDBRANCH   4   6
ENDBRANCH   2   4
TORSDOF 6
ENDMDL
MODEL      259
REMARK 921   NORMALIZED FREE ENERGY PREDICTED BY IDOCK:   -3.33 KCAL/MOL
REMARK 922        TOTAL FREE ENERGY PREDICTED BY IDOCK:   -4.87 KCAL/MOL
REMARK 923 INTER-LIGAND FREE ENERGY PREDICTED BY IDOCK:   -4.41 KCAL/MOL
REMARK 924 INTRA-LIGAND FREE ENERGY PREDICTED BY IDOCK:   -0.46 KCAL/MOL
REMARK 927      BINDING AFFINITY PREDICTED BY RF-SCORE:    0.00 PKD
ROOT
HETATM    1  C   UNL     1      -8.814   8.396  72.046  1.00  0.00    -0.277 C  
HETATM    2  C   UNL     1      -7.624   8.018  71.161  1.00  0.00    -0.082 C  
HETATM    3  C   UNL     1      -6.626   7.190  71.976  1.00  0.00    -0.055 C  
ENDROOT
BRANCH   2   4
HETATM    4  N   UNL     1      -8.132   7.280  70.001  1.00  0.00    -0.127 NA 
HETATM    5  H   UNL     1      -7.697   6.359  69.941  1.00  0.00     0.000 HD 
BRANCH   4   6
HETATM    6  C   UNL     1      -9.592   7.165  69.974  1.00  0.00    -0.164 C  
BRANCH   6   7
HETATM    7  C   UNL     1     -10.089   6.691  68.593  1.00  0.00    -0.161 C  
HETATM    8  H   UNL     1     -11.587   5.619  67.922  1.00  0.00     0.000 HD 
HETATM    9  O   UNL     1     -11.281   5.911  68.772  1.00  0.00    -0.258 OA 
BRANCH   7  10
HETATM   10  C   UNL     1     -10.326   7.924  67.701  1.00  0.00    -0.241 C  
BRANCH  10  11
HETATM   11  O   UNL     1      -9.699   9.075  68.268  1.00  0.00    -0.147 OA 
BRANCH  11  12
HETATM   12  C   UNL     1     -10.545  10.091  68.648  1.00  0.00    -0.212 A  
HETATM   13  C   UNL     1     -10.994  10.297  69.963  1.00  0.00    -0.371 A  
HETATM   14  C   UNL     1     -11.828  11.369  70.287  1.00  0.00    -0.438 A  
HETATM   15  C   UNL     1     -12.241  12.280  69.314  1.00  0.00    -0.097 A  
HETATM   16  C   UNL     1     -11.784  12.077  68.010  1.00  0.00    -0.331 A  
HETATM   17  C   UNL     1     -10.951  11.014  67.657  1.00  0.00    -0.332 A  
HETATM   18  C   UNL     1     -10.702  11.138  66.257  1.00  0.00    -0.298 A  
HETATM   19  C   UNL     1     -11.367  12.252  65.803  1.00  0.00    -0.355 A  
HETATM   20  N   UNL     1     -12.017  12.813  66.869  1.00  0.00    -0.461 NA 
HETATM   21  H   UNL     1     -12.591  13.655  66.824  1.00  0.00     0.000 HD 
ENDBRANCH  11  12
ENDBRANCH  10  11
ENDBRANCH   7  10
ENDBRANCH   6   7
ENDBRANCH   4   6
ENDBRANCH   2   4
TORSDOF 6
ENDMDL
MODEL      260
REMARK 921   NORMALIZED FREE ENERGY PREDICTED BY IDOCK:   -3.31 KCAL/MOL
REMARK 922        TOTAL FREE ENERGY PREDICTED BY IDOCK:   -4.84 KCAL/MOL
REMARK 923 INTER-LIGAND FREE ENERGY PREDICTED BY IDOCK:   -4.27 KCAL/MOL
REMARK 924 INTRA-LIGAND FREE ENERGY PREDICTED BY IDOCK:   -0.58 KCAL/MOL
REMARK 927      BINDING AFFINITY PREDICTED BY RF-SCORE:    0.00 PKD
ROOT
HETATM    1  C   UNL     1     -14.410   8.434  72.202  1.00  0.00    -0.520 C  
HETATM    2  C   UNL     1     -13.231   9.020  71.421  1.00  0.00    -0.278 C  
HETATM    3  C   UNL     1     -12.872  10.394  71.994  1.00  0.00    -0.447 C  
ENDROOT
BRANCH   2   4
HETATM    4  N   UNL     1     -12.111   8.078  71.508  1.00  0.00    -0.290 NA 
HETATM    5  H   UNL     1     -11.465   8.214  70.729  1.00  0.00     0.000 HD 
BRANCH   4   6
HETATM    6  C   UNL     1     -11.399   8.132  72.787  1.00  0.00    -0.336 C  
BRANCH   6   7
HETATM    7  C   UNL     1      -9.872   8.096  72.578  1.00  0.00    -0.293 C  
HETATM    8  H   UNL     1      -8.315   7.530  73.628  1.00  0.00     0.000 HD 
HETATM    9  O   UNL     1      -9.256   7.553  73.756  1.00  0.00    -0.236 OA 
BRANCH   7  10
HETATM   10  C   UNL     1      -9.563   7.263  71.320  1.00  0.00    -0.162 C  
BRANCH  10  11
HETATM   11  O   UNL     1      -8.773   8.022  70.403  1.00  0.00    -0.133 OA 
BRANCH  11  12
HETATM   12  C   UNL     1      -9.300   8.172  69.142  1.00  0.00    -0.151 A  
HETATM   13  C   UNL     1     -10.198   9.187  68.772  1.00  0.00    -0.228 A  
HETATM   14  C   UNL     1     -10.670   9.300  67.463  1.00  0.00    -0.272 A  
HETATM   15  C   UNL     1     -10.259   8.409  66.471  1.00  0.00    -0.277 A  
HETATM   16  C   UNL     1      -9.359   7.408  66.839  1.00  0.00    -0.157 A  
HETATM   17  C   UNL     1      -8.871   7.270  68.140  1.00  0.00    -0.126 A  
HETATM   18  C   UNL     1      -7.987   6.150  68.128  1.00  0.00    -0.107 A  
HETATM   19  C   UNL     1      -7.952   5.648  66.848  1.00  0.00    -0.102 A  
HETATM   20  N   UNL     1      -8.782   6.415  66.077  1.00  0.00    -0.149 NA 
HETATM   21  H   UNL     1      -8.950   6.272  65.081  1.00  0.00     0.000 HD 
ENDBRANCH  11  12
ENDBRANCH  10  11
ENDBRANCH   7  10
ENDBRANCH   6   7
ENDBRANCH   4   6
ENDBRANCH   2   4
TORSDOF 6
ENDMDL
MODEL      261
REMARK 921   NORMALIZED FREE ENERGY PREDICTED BY IDOCK:   -3.29 KCAL/MOL
REMARK 922        TOTAL FREE ENERGY PREDICTED BY IDOCK:   -4.82 KCAL/MOL
REMARK 923 INTER-LIGAND FREE ENERGY PREDICTED BY IDOCK:   -4.36 KCAL/MOL
REMARK 924 INTRA-LIGAND FREE ENERGY PREDICTED BY IDOCK:   -0.46 KCAL/MOL
REMARK 927      BINDING AFFINITY PREDICTED BY RF-SCORE:    0.00 PKD
ROOT
HETATM    1  C   UNL     1      -8.177   8.140  63.000  1.00  0.00    -0.103 C  
HETATM    2  C   UNL     1      -7.867   7.797  64.459  1.00  0.00    -0.138 C  
HETATM    3  C   UNL     1      -6.673   8.630  64.936  1.00  0.00    -0.068 C  
ENDROOT
BRANCH   2   4
HETATM    4  N   UNL     1      -9.070   8.055  65.256  1.00  0.00    -0.383 NA 
HETATM    5  H   UNL     1      -9.833   7.444  64.965  1.00  0.00     0.000 HD 
BRANCH   4   6
HETATM    6  C   UNL     1      -8.848   7.953  66.701  1.00  0.00    -0.146 C  
BRANCH   6   7
HETATM    7  C   UNL     1      -9.563   6.721  67.290  1.00  0.00    -0.137 C  
HETATM    8  H   UNL     1      -9.052   4.896  67.791  1.00  0.00     0.000 HD 
HETATM    9  O   UNL     1      -8.612   5.655  67.428  1.00  0.00    -0.110 OA 
BRANCH   7  10
HETATM   10  C   UNL     1     -10.200   7.114  68.636  1.00  0.00    -0.179 C  
BRANCH  10  11
HETATM   11  O   UNL     1      -9.675   8.363  69.088  1.00  0.00    -0.166 OA 
BRANCH  11  12
HETATM   12  C   UNL     1     -10.582   9.219  69.667  1.00  0.00    -0.229 A  
HETATM   13  C   UNL     1     -11.264   8.959  70.868  1.00  0.00    -0.334 A  
HETATM   14  C   UNL     1     -12.150   9.887  71.418  1.00  0.00    -0.501 A  
HETATM   15  C   UNL     1     -12.386  11.113  70.795  1.00  0.00    -0.504 A  
HETATM   16  C   UNL     1     -11.699  11.373  69.608  1.00  0.00    -0.345 A  
HETATM   17  C   UNL     1     -10.809  10.463  69.033  1.00  0.00    -0.273 A  
HETATM   18  C   UNL     1     -10.311  11.074  67.844  1.00  0.00    -0.213 A  
HETATM   19  C   UNL     1     -10.891  12.315  67.728  1.00  0.00    -0.221 A  
HETATM   20  N   UNL     1     -11.727  12.487  68.797  1.00  0.00    -0.312 NA 
HETATM   21  H   UNL     1     -12.289  13.320  68.970  1.00  0.00     0.000 HD 
ENDBRANCH  11  12
ENDBRANCH  10  11
ENDBRANCH   7  10
ENDBRANCH   6   7
ENDBRANCH   4   6
ENDBRANCH   2   4
TORSDOF 6
ENDMDL
MODEL      262
REMARK 921   NORMALIZED FREE ENERGY PREDICTED BY IDOCK:   -3.28 KCAL/MOL
REMARK 922        TOTAL FREE ENERGY PREDICTED BY IDOCK:   -4.81 KCAL/MOL
REMARK 923 INTER-LIGAND FREE ENERGY PREDICTED BY IDOCK:   -4.18 KCAL/MOL
REMARK 924 INTRA-LIGAND FREE ENERGY PREDICTED BY IDOCK:   -0.62 KCAL/MOL
REMARK 927      BINDING AFFINITY PREDICTED BY RF-SCORE:    0.00 PKD
ROOT
HETATM    1  C   UNL     1      -9.224  13.108  67.026  1.00  0.00    -0.233 C  
HETATM    2  C   UNL     1      -7.835  12.579  67.389  1.00  0.00    -0.175 C  
HETATM    3  C   UNL     1      -6.881  13.758  67.605  1.00  0.00    -0.187 C  
ENDROOT
BRANCH   2   4
HETATM    4  N   UNL     1      -7.959  11.746  68.588  1.00  0.00    -0.231 NA 
HETATM    5  H   UNL     1      -8.202  10.787  68.338  1.00  0.00     0.000 HD 
BRANCH   4   6
HETATM    6  C   UNL     1      -6.772  11.773  69.446  1.00  0.00    -0.098 C  
BRANCH   6   7
HETATM    7  C   UNL     1      -6.337  10.348  69.842  1.00  0.00    -0.095 C  
HETATM    8  H   UNL     1      -5.968   9.397  71.516  1.00  0.00     0.000 HD 
HETATM    9  O   UNL     1      -6.236  10.275  71.272  1.00  0.00    -0.321 OA 
BRANCH   7  10
HETATM   10  C   UNL     1      -7.356   9.343  69.276  1.00  0.00    -0.071 C  
BRANCH  10  11
HETATM   11  O   UNL     1      -8.556   9.361  70.052  1.00  0.00    -0.163 OA 
BRANCH  11  12
HETATM   12  C   UNL     1      -9.456   8.357  69.784  1.00  0.00    -0.162 A  
HETATM   13  C   UNL     1      -9.437   7.561  68.627  1.00  0.00    -0.146 A  
HETATM   14  C   UNL     1     -10.363   6.535  68.433  1.00  0.00    -0.220 A  
HETATM   15  C   UNL     1     -11.341   6.259  69.389  1.00  0.00    -0.448 A  
HETATM   16  C   UNL     1     -11.351   7.044  70.543  1.00  0.00    -0.312 A  
HETATM   17  C   UNL     1     -10.438   8.078  70.763  1.00  0.00    -0.221 A  
HETATM   18  C   UNL     1     -10.760   8.643  72.033  1.00  0.00    -0.427 A  
HETATM   19  C   UNL     1     -11.832   7.952  72.548  1.00  0.00    -0.335 A  
HETATM   20  N   UNL     1     -12.181   6.989  71.642  1.00  0.00    -0.339 NA 
HETATM   21  H   UNL     1     -12.946   6.324  71.763  1.00  0.00     0.000 HD 
ENDBRANCH  11  12
ENDBRANCH  10  11
ENDBRANCH   7  10
ENDBRANCH   6   7
ENDBRANCH   4   6
ENDBRANCH   2   4
TORSDOF 6
ENDMDL
MODEL      263
REMARK 921   NORMALIZED FREE ENERGY PREDICTED BY IDOCK:   -3.27 KCAL/MOL
REMARK 922        TOTAL FREE ENERGY PREDICTED BY IDOCK:   -4.79 KCAL/MOL
REMARK 923 INTER-LIGAND FREE ENERGY PREDICTED BY IDOCK:   -4.33 KCAL/MOL
REMARK 924 INTRA-LIGAND FREE ENERGY PREDICTED BY IDOCK:   -0.47 KCAL/MOL
REMARK 927      BINDING AFFINITY PREDICTED BY RF-SCORE:    0.00 PKD
ROOT
HETATM    1  C   UNL     1      -9.855   7.512  69.587  1.00  0.00    -0.180 C  
HETATM    2  C   UNL     1     -10.709   8.777  69.687  1.00  0.00    -0.208 C  
HETATM    3  C   UNL     1     -11.433   8.798  71.037  1.00  0.00    -0.337 C  
ENDROOT
BRANCH   2   4
HETATM    4  N   UNL     1      -9.830   9.938  69.518  1.00  0.00    -0.210 NA 
HETATM    5  H   UNL     1      -9.982  10.617  70.264  1.00  0.00     0.000 HD 
BRANCH   4   6
HETATM    6  C   UNL     1      -8.412   9.589  69.416  1.00  0.00    -0.146 C  
BRANCH   6   7
HETATM    7  C   UNL     1      -7.697  10.458  68.361  1.00  0.00    -0.098 C  
HETATM    8  H   UNL     1      -7.016  10.196  66.541  1.00  0.00     0.000 HD 
HETATM    9  O   UNL     1      -7.456   9.661  67.190  1.00  0.00    -0.088 OA 
BRANCH   7  10
HETATM   10  C   UNL     1      -8.569  11.690  68.060  1.00  0.00    -0.152 C  
BRANCH  10  11
HETATM   11  O   UNL     1      -8.666  11.898  66.650  1.00  0.00    -0.192 OA 
BRANCH  11  12
HETATM   12  C   UNL     1      -9.316  13.045  66.259  1.00  0.00    -0.140 A  
HETATM   13  C   UNL     1      -8.791  14.341  66.395  1.00  0.00    -0.001 A  
HETATM   14  C   UNL     1      -9.492  15.461  65.945  1.00  0.00    -0.369 A  
HETATM   15  C   UNL     1     -10.741  15.332  65.337  1.00  0.00    -0.407 A  
HETATM   16  C   UNL     1     -11.256  14.043  65.194  1.00  0.00    -0.329 A  
HETATM   17  C   UNL     1     -10.578  12.904  65.635  1.00  0.00    -0.295 A  
HETATM   18  C   UNL     1     -11.408  11.787  65.319  1.00  0.00    -0.284 A  
HETATM   19  C   UNL     1     -12.541  12.260  64.701  1.00  0.00    -0.289 A  
HETATM   20  N   UNL     1     -12.440  13.622  64.629  1.00  0.00    -0.601 NA 
HETATM   21  H   UNL     1     -13.141  14.238  64.217  1.00  0.00     0.000 HD 
ENDBRANCH  11  12
ENDBRANCH  10  11
ENDBRANCH   7  10
ENDBRANCH   6   7
ENDBRANCH   4   6
ENDBRANCH   2   4
TORSDOF 6
ENDMDL
MODEL      264
REMARK 921   NORMALIZED FREE ENERGY PREDICTED BY IDOCK:   -3.27 KCAL/MOL
REMARK 922        TOTAL FREE ENERGY PREDICTED BY IDOCK:   -4.79 KCAL/MOL
REMARK 923 INTER-LIGAND FREE ENERGY PREDICTED BY IDOCK:   -4.33 KCAL/MOL
REMARK 924 INTRA-LIGAND FREE ENERGY PREDICTED BY IDOCK:   -0.47 KCAL/MOL
REMARK 927      BINDING AFFINITY PREDICTED BY RF-SCORE:    0.00 PKD
ROOT
HETATM    1  C   UNL     1      -8.306   3.849  66.129  1.00  0.00    -0.108 C  
HETATM    2  C   UNL     1      -9.115   5.116  65.839  1.00  0.00    -0.153 C  
HETATM    3  C   UNL     1     -10.570   4.901  66.267  1.00  0.00    -0.307 C  
ENDROOT
BRANCH   2   4
HETATM    4  N   UNL     1      -8.491   6.232  66.555  1.00  0.00    -0.117 NA 
HETATM    5  H   UNL     1      -9.200   6.873  66.911  1.00  0.00     0.000 HD 
BRANCH   4   6
HETATM    6  C   UNL     1      -7.589   5.808  67.628  1.00  0.00    -0.089 C  
BRANCH   6   7
HETATM    7  C   UNL     1      -8.199   6.093  69.015  1.00  0.00    -0.112 C  
HETATM    8  H   UNL     1      -7.547   6.137  70.864  1.00  0.00     0.000 HD 
HETATM    9  O   UNL     1      -7.172   5.961  70.010  1.00  0.00    -0.068 OA 
BRANCH   7  10
HETATM   10  C   UNL     1      -8.823   7.501  69.003  1.00  0.00    -0.132 C  
BRANCH  10  11
HETATM   11  O   UNL     1      -9.061   7.950  70.338  1.00  0.00    -0.152 OA 
BRANCH  11  12
HETATM   12  C   UNL     1     -10.340   7.771  70.811  1.00  0.00    -0.203 A  
HETATM   13  C   UNL     1     -10.806   6.587  71.408  1.00  0.00    -0.289 A  
HETATM   14  C   UNL     1     -12.109   6.483  71.897  1.00  0.00    -0.388 A  
HETATM   15  C   UNL     1     -12.997   7.556  71.814  1.00  0.00    -0.364 A  
HETATM   16  C   UNL     1     -12.528   8.734  71.230  1.00  0.00    -0.260 A  
HETATM   17  C   UNL     1     -11.230   8.867  70.731  1.00  0.00    -0.321 A  
HETATM   18  C   UNL     1     -11.124  10.194  70.218  1.00  0.00    -0.384 A  
HETATM   19  C   UNL     1     -12.328  10.826  70.419  1.00  0.00    -0.353 A  
HETATM   20  N   UNL     1     -13.169   9.937  71.030  1.00  0.00    -0.525 NA 
HETATM   21  H   UNL     1     -14.132  10.136  71.300  1.00  0.00     0.000 HD 
ENDBRANCH  11  12
ENDBRANCH  10  11
ENDBRANCH   7  10
ENDBRANCH   6   7
ENDBRANCH   4   6
ENDBRANCH   2   4
TORSDOF 6
ENDMDL
MODEL      265
REMARK 921   NORMALIZED FREE ENERGY PREDICTED BY IDOCK:   -3.24 KCAL/MOL
REMARK 922        TOTAL FREE ENERGY PREDICTED BY IDOCK:   -4.76 KCAL/MOL
REMARK 923 INTER-LIGAND FREE ENERGY PREDICTED BY IDOCK:   -3.85 KCAL/MOL
REMARK 924 INTRA-LIGAND FREE ENERGY PREDICTED BY IDOCK:   -0.91 KCAL/MOL
REMARK 927      BINDING AFFINITY PREDICTED BY RF-SCORE:    0.00 PKD
ROOT
HETATM    1  C   UNL     1      -9.149   5.062  67.298  1.00  0.00    -0.117 C  
HETATM    2  C   UNL     1      -9.472   6.485  67.759  1.00  0.00    -0.119 C  
HETATM    3  C   UNL     1     -10.695   7.003  66.997  1.00  0.00    -0.423 C  
ENDROOT
BRANCH   2   4
HETATM    4  N   UNL     1      -9.698   6.457  69.208  1.00  0.00    -0.136 NA 
HETATM    5  H   UNL     1      -9.002   7.024  69.692  1.00  0.00     0.000 HD 
BRANCH   4   6
HETATM    6  C   UNL     1     -11.053   6.855  69.596  1.00  0.00    -0.258 C  
BRANCH   6   7
HETATM    7  C   UNL     1     -11.054   7.569  70.963  1.00  0.00    -0.257 C  
HETATM    8  H   UNL     1      -9.909   7.577  72.554  1.00  0.00     0.000 HD 
HETATM    9  O   UNL     1      -9.908   7.137  71.712  1.00  0.00    -0.163 OA 
BRANCH   7  10
HETATM   10  C   UNL     1     -11.059   9.091  70.728  1.00  0.00    -0.272 C  
BRANCH  10  11
HETATM   11  O   UNL     1     -11.005   9.378  69.329  1.00  0.00    -0.208 OA 
BRANCH  11  12
HETATM   12  C   UNL     1      -9.890  10.059  68.902  1.00  0.00    -0.184 A  
HETATM   13  C   UNL     1      -8.632   9.995  69.526  1.00  0.00    -0.197 A  
HETATM   14  C   UNL     1      -7.532  10.688  69.019  1.00  0.00    -0.117 A  
HETATM   15  C   UNL     1      -7.641  11.469  67.868  1.00  0.00    -0.113 A  
HETATM   16  C   UNL     1      -8.889  11.523  67.244  1.00  0.00    -0.160 A  
HETATM   17  C   UNL     1     -10.007  10.841  67.729  1.00  0.00    -0.195 A  
HETATM   18  C   UNL     1     -11.082  11.135  66.838  1.00  0.00    -0.313 A  
HETATM   19  C   UNL     1     -10.603  11.965  65.851  1.00  0.00    -0.266 A  
HETATM   20  N   UNL     1      -9.278  12.192  66.105  1.00  0.00    -0.353 NA 
HETATM   21  H   UNL     1      -8.666  12.774  65.531  1.00  0.00     0.000 HD 
ENDBRANCH  11  12
ENDBRANCH  10  11
ENDBRANCH   7  10
ENDBRANCH   6   7
ENDBRANCH   4   6
ENDBRANCH   2   4
TORSDOF 6
ENDMDL
MODEL      266
REMARK 921   NORMALIZED FREE ENERGY PREDICTED BY IDOCK:   -3.22 KCAL/MOL
REMARK 922        TOTAL FREE ENERGY PREDICTED BY IDOCK:   -4.73 KCAL/MOL
REMARK 923 INTER-LIGAND FREE ENERGY PREDICTED BY IDOCK:   -4.30 KCAL/MOL
REMARK 924 INTRA-LIGAND FREE ENERGY PREDICTED BY IDOCK:   -0.42 KCAL/MOL
REMARK 927      BINDING AFFINITY PREDICTED BY RF-SCORE:    0.00 PKD
ROOT
HETATM    1  C   UNL     1     -11.511   5.514  72.910  1.00  0.00    -0.327 C  
HETATM    2  C   UNL     1     -11.413   7.041  72.936  1.00  0.00    -0.123 C  
HETATM    3  C   UNL     1     -10.139   7.458  73.675  1.00  0.00    -0.376 C  
ENDROOT
BRANCH   2   4
HETATM    4  N   UNL     1     -11.429   7.524  71.552  1.00  0.00    -0.258 NA 
HETATM    5  H   UNL     1     -11.179   6.776  70.906  1.00  0.00     0.000 HD 
BRANCH   4   6
HETATM    6  C   UNL     1     -12.699   8.143  71.163  1.00  0.00    -0.118 C  
BRANCH   6   7
HETATM    7  C   UNL     1     -12.497   9.613  70.742  1.00  0.00    -0.169 C  
HETATM    8  H   UNL     1     -12.288  11.330  71.664  1.00  0.00     0.000 HD 
HETATM    9  O   UNL     1     -12.411  10.425  71.923  1.00  0.00    -0.356 OA 
BRANCH   7  10
HETATM   10  C   UNL     1     -11.231   9.711  69.872  1.00  0.00    -0.207 C  
BRANCH  10  11
HETATM   11  O   UNL     1     -11.584   9.906  68.501  1.00  0.00     0.018 OA 
BRANCH  11  12
HETATM   12  C   UNL     1     -11.183  11.097  67.944  1.00  0.00    -0.302 A  
HETATM   13  C   UNL     1     -11.860  12.318  68.111  1.00  0.00    -0.372 A  
HETATM   14  C   UNL     1     -11.379  13.499  67.543  1.00  0.00    -0.335 A  
HETATM   15  C   UNL     1     -10.203  13.510  66.792  1.00  0.00    -0.264 A  
HETATM   16  C   UNL     1      -9.528  12.298  66.637  1.00  0.00    -0.226 A  
HETATM   17  C   UNL     1      -9.985  11.101  67.192  1.00  0.00    -0.215 A  
HETATM   18  C   UNL     1      -9.044  10.095  66.823  1.00  0.00    -0.159 A  
HETATM   19  C   UNL     1      -8.055  10.689  66.076  1.00  0.00    -0.159 A  
HETATM   20  N   UNL     1      -8.356  12.020  65.970  1.00  0.00    -0.355 NA 
HETATM   21  H   UNL     1      -7.792  12.707  65.468  1.00  0.00     0.000 HD 
ENDBRANCH  11  12
ENDBRANCH  10  11
ENDBRANCH   7  10
ENDBRANCH   6   7
ENDBRANCH   4   6
ENDBRANCH   2   4
TORSDOF 6
ENDMDL
MODEL      267
REMARK 921   NORMALIZED FREE ENERGY PREDICTED BY IDOCK:   -3.22 KCAL/MOL
REMARK 922        TOTAL FREE ENERGY PREDICTED BY IDOCK:   -4.72 KCAL/MOL
REMARK 923 INTER-LIGAND FREE ENERGY PREDICTED BY IDOCK:   -4.33 KCAL/MOL
REMARK 924 INTRA-LIGAND FREE ENERGY PREDICTED BY IDOCK:   -0.39 KCAL/MOL
REMARK 927      BINDING AFFINITY PREDICTED BY RF-SCORE:    0.00 PKD
ROOT
HETATM    1  C   UNL     1     -10.437   6.709  69.599  1.00  0.00    -0.249 C  
HETATM    2  C   UNL     1      -9.323   7.373  68.788  1.00  0.00    -0.144 C  
HETATM    3  C   UNL     1      -8.400   6.295  68.211  1.00  0.00    -0.115 C  
ENDROOT
BRANCH   2   4
HETATM    4  N   UNL     1      -9.943   8.185  67.736  1.00  0.00    -0.170 NA 
HETATM    5  H   UNL     1      -9.952   9.171  68.000  1.00  0.00     0.000 HD 
BRANCH   4   6
HETATM    6  C   UNL     1      -9.327   8.006  66.419  1.00  0.00    -0.200 C  
BRANCH   6   7
HETATM    7  C   UNL     1      -8.547   9.266  65.993  1.00  0.00    -0.144 C  
HETATM    8  H   UNL     1      -7.343   9.751  64.523  1.00  0.00     0.000 HD 
HETATM    9  O   UNL     1      -7.824   8.976  64.786  1.00  0.00    -0.111 OA 
BRANCH   7  10
HETATM   10  C   UNL     1      -9.540  10.428  65.814  1.00  0.00    -0.216 C  
BRANCH  10  11
HETATM   11  O   UNL     1      -9.639  11.187  67.020  1.00  0.00    -0.178 OA 
BRANCH  11  12
HETATM   12  C   UNL     1      -9.592  12.553  66.873  1.00  0.00    -0.229 A  
HETATM   13  C   UNL     1      -8.495  13.353  67.235  1.00  0.00    -0.205 A  
HETATM   14  C   UNL     1      -8.501  14.733  67.027  1.00  0.00    -0.250 A  
HETATM   15  C   UNL     1      -9.599  15.369  66.447  1.00  0.00    -0.319 A  
HETATM   16  C   UNL     1     -10.683  14.571  66.079  1.00  0.00    -0.305 A  
HETATM   17  C   UNL     1     -10.706  13.188  66.275  1.00  0.00    -0.295 A  
HETATM   18  C   UNL     1     -11.962  12.727  65.781  1.00  0.00    -0.502 A  
HETATM   19  C   UNL     1     -12.656  13.812  65.300  1.00  0.00    -0.473 A  
HETATM   20  N   UNL     1     -11.875  14.920  65.484  1.00  0.00    -0.223 NA 
HETATM   21  H   UNL     1     -12.139  15.870  65.218  1.00  0.00     0.000 HD 
ENDBRANCH  11  12
ENDBRANCH  10  11
ENDBRANCH   7  10
ENDBRANCH   6   7
ENDBRANCH   4   6
ENDBRANCH   2   4
TORSDOF 6
ENDMDL
MODEL      268
REMARK 921   NORMALIZED FREE ENERGY PREDICTED BY IDOCK:   -3.19 KCAL/MOL
REMARK 922        TOTAL FREE ENERGY PREDICTED BY IDOCK:   -4.69 KCAL/MOL
REMARK 923 INTER-LIGAND FREE ENERGY PREDICTED BY IDOCK:   -4.35 KCAL/MOL
REMARK 924 INTRA-LIGAND FREE ENERGY PREDICTED BY IDOCK:   -0.33 KCAL/MOL
REMARK 927      BINDING AFFINITY PREDICTED BY RF-SCORE:    0.00 PKD
ROOT
HETATM    1  C   UNL     1     -10.364  18.994  66.084  1.00  0.00    -0.537 C  
HETATM    2  C   UNL     1      -9.858  17.768  66.848  1.00  0.00    -0.312 C  
HETATM    3  C   UNL     1     -10.167  17.934  68.339  1.00  0.00    -0.398 C  
ENDROOT
BRANCH   2   4
HETATM    4  N   UNL     1     -10.500  16.578  66.283  1.00  0.00    -0.303 NA 
HETATM    5  H   UNL     1     -10.629  16.681  65.276  1.00  0.00     0.000 HD 
BRANCH   4   6
HETATM    6  C   UNL     1      -9.795  15.331  66.589  1.00  0.00    -0.250 C  
BRANCH   6   7
HETATM    7  C   UNL     1     -10.571  14.492  67.625  1.00  0.00    -0.251 C  
HETATM    8  H   UNL     1     -12.365  13.712  67.753  1.00  0.00     0.000 HD 
HETATM    9  O   UNL     1     -11.887  14.228  67.116  1.00  0.00    -0.390 OA 
BRANCH   7  10
HETATM   10  C   UNL     1      -9.783  13.199  67.906  1.00  0.00    -0.221 C  
BRANCH  10  11
HETATM   11  O   UNL     1      -8.921  12.894  66.809  1.00  0.00    -0.218 OA 
BRANCH  11  12
HETATM   12  C   UNL     1      -8.843  11.566  66.460  1.00  0.00    -0.190 A  
HETATM   13  C   UNL     1      -9.934  10.796  66.023  1.00  0.00    -0.295 A  
HETATM   14  C   UNL     1      -9.779   9.459  65.653  1.00  0.00    -0.336 A  
HETATM   15  C   UNL     1      -8.529   8.840  65.699  1.00  0.00    -0.174 A  
HETATM   16  C   UNL     1      -7.446   9.611  66.125  1.00  0.00    -0.098 A  
HETATM   17  C   UNL     1      -7.571  10.949  66.502  1.00  0.00    -0.142 A  
HETATM   18  C   UNL     1      -6.266  11.394  66.870  1.00  0.00    -0.135 A  
HETATM   19  C   UNL     1      -5.396  10.342  66.705  1.00  0.00    -0.043 A  
HETATM   20  N   UNL     1      -6.117   9.271  66.254  1.00  0.00    -0.059 NA 
HETATM   21  H   UNL     1      -5.726   8.352  66.044  1.00  0.00     0.000 HD 
ENDBRANCH  11  12
ENDBRANCH  10  11
ENDBRANCH   7  10
ENDBRANCH   6   7
ENDBRANCH   4   6
ENDBRANCH   2   4
TORSDOF 6
ENDMDL
MODEL      269
REMARK 921   NORMALIZED FREE ENERGY PREDICTED BY IDOCK:   -3.18 KCAL/MOL
REMARK 922        TOTAL FREE ENERGY PREDICTED BY IDOCK:   -4.67 KCAL/MOL
REMARK 923 INTER-LIGAND FREE ENERGY PREDICTED BY IDOCK:   -4.30 KCAL/MOL
REMARK 924 INTRA-LIGAND FREE ENERGY PREDICTED BY IDOCK:   -0.37 KCAL/MOL
REMARK 927      BINDING AFFINITY PREDICTED BY RF-SCORE:    0.00 PKD
ROOT
HETATM    1  C   UNL     1      -9.461  13.609  66.744  1.00  0.00    -0.275 C  
HETATM    2  C   UNL     1      -8.074  13.563  67.391  1.00  0.00    -0.176 C  
HETATM    3  C   UNL     1      -7.939  14.717  68.389  1.00  0.00    -0.137 C  
ENDROOT
BRANCH   2   4
HETATM    4  N   UNL     1      -7.912  12.257  68.036  1.00  0.00    -0.140 NA 
HETATM    5  H   UNL     1      -7.882  11.512  67.339  1.00  0.00     0.000 HD 
BRANCH   4   6
HETATM    6  C   UNL     1      -6.750  12.183  68.925  1.00  0.00    -0.094 C  
BRANCH   6   7
HETATM    7  C   UNL     1      -6.562  10.757  69.480  1.00  0.00    -0.099 C  
HETATM    8  H   UNL     1      -6.414   9.941  71.257  1.00  0.00     0.000 HD 
HETATM    9  O   UNL     1      -6.530  10.819  70.915  1.00  0.00    -0.343 OA 
BRANCH   7  10
HETATM   10  C   UNL     1      -7.705   9.867  68.960  1.00  0.00    -0.089 C  
BRANCH  10  11
HETATM   11  O   UNL     1      -8.915  10.147  69.665  1.00  0.00    -0.202 OA 
BRANCH  11  12
HETATM   12  C   UNL     1      -9.602   9.052  70.134  1.00  0.00    -0.193 A  
HETATM   13  C   UNL     1      -9.814   8.770  71.494  1.00  0.00    -0.371 A  
HETATM   14  C   UNL     1     -10.550   7.656  71.901  1.00  0.00    -0.257 A  
HETATM   15  C   UNL     1     -11.107   6.782  70.967  1.00  0.00    -0.317 A  
HETATM   16  C   UNL     1     -10.903   7.069  69.616  1.00  0.00    -0.247 A  
HETATM   17  C   UNL     1     -10.171   8.176  69.180  1.00  0.00    -0.219 A  
HETATM   18  C   UNL     1     -10.181   8.136  67.754  1.00  0.00    -0.288 A  
HETATM   19  C   UNL     1     -10.908   7.036  67.364  1.00  0.00    -0.300 A  
HETATM   20  N   UNL     1     -11.340   6.399  68.495  1.00  0.00    -0.550 NA 
HETATM   21  H   UNL     1     -11.906   5.550  68.506  1.00  0.00     0.000 HD 
ENDBRANCH  11  12
ENDBRANCH  10  11
ENDBRANCH   7  10
ENDBRANCH   6   7
ENDBRANCH   4   6
ENDBRANCH   2   4
TORSDOF 6
ENDMDL
MODEL      270
REMARK 921   NORMALIZED FREE ENERGY PREDICTED BY IDOCK:   -3.18 KCAL/MOL
REMARK 922        TOTAL FREE ENERGY PREDICTED BY IDOCK:   -4.67 KCAL/MOL
REMARK 923 INTER-LIGAND FREE ENERGY PREDICTED BY IDOCK:   -4.26 KCAL/MOL
REMARK 924 INTRA-LIGAND FREE ENERGY PREDICTED BY IDOCK:   -0.41 KCAL/MOL
REMARK 927      BINDING AFFINITY PREDICTED BY RF-SCORE:    0.00 PKD
ROOT
HETATM    1  C   UNL     1      -6.972   6.115  68.614  1.00  0.00    -0.076 C  
HETATM    2  C   UNL     1      -8.466   6.395  68.785  1.00  0.00    -0.121 C  
HETATM    3  C   UNL     1      -8.910   5.959  70.185  1.00  0.00    -0.144 C  
ENDROOT
BRANCH   2   4
HETATM    4  N   UNL     1      -8.694   7.825  68.557  1.00  0.00    -0.128 NA 
HETATM    5  H   UNL     1      -8.782   8.322  69.444  1.00  0.00     0.000 HD 
BRANCH   4   6
HETATM    6  C   UNL     1      -7.676   8.452  67.711  1.00  0.00    -0.103 C  
BRANCH   6   7
HETATM    7  C   UNL     1      -8.279   9.590  66.862  1.00  0.00    -0.113 C  
HETATM    8  H   UNL     1      -7.846  10.467  65.164  1.00  0.00     0.000 HD 
HETATM    9  O   UNL     1      -7.475   9.767  65.686  1.00  0.00    -0.101 OA 
BRANCH   7  10
HETATM   10  C   UNL     1      -9.739   9.235  66.524  1.00  0.00    -0.240 C  
BRANCH  10  11
HETATM   11  O   UNL     1     -10.512  10.424  66.352  1.00  0.00    -0.230 OA 
BRANCH  11  12
HETATM   12  C   UNL     1     -10.945  11.029  67.508  1.00  0.00    -0.281 A  
HETATM   13  C   UNL     1     -11.125  10.363  68.732  1.00  0.00    -0.298 A  
HETATM   14  C   UNL     1     -11.536  11.046  69.879  1.00  0.00    -0.416 A  
HETATM   15  C   UNL     1     -11.779  12.420  69.850  1.00  0.00    -0.339 A  
HETATM   16  C   UNL     1     -11.589  13.080  68.635  1.00  0.00    -0.318 A  
HETATM   17  C   UNL     1     -11.179  12.424  67.472  1.00  0.00    -0.348 A  
HETATM   18  C   UNL     1     -11.097  13.416  66.450  1.00  0.00    -0.312 A  
HETATM   19  C   UNL     1     -11.443  14.626  67.003  1.00  0.00    -0.368 A  
HETATM   20  N   UNL     1     -11.738  14.413  68.322  1.00  0.00    -0.328 NA 
HETATM   21  H   UNL     1     -12.026  15.139  68.979  1.00  0.00     0.000 HD 
ENDBRANCH  11  12
ENDBRANCH  10  11
ENDBRANCH   7  10
ENDBRANCH   6   7
ENDBRANCH   4   6
ENDBRANCH   2   4
TORSDOF 6
ENDMDL
MODEL      271
REMARK 921   NORMALIZED FREE ENERGY PREDICTED BY IDOCK:   -3.17 KCAL/MOL
REMARK 922        TOTAL FREE ENERGY PREDICTED BY IDOCK:   -4.65 KCAL/MOL
REMARK 923 INTER-LIGAND FREE ENERGY PREDICTED BY IDOCK:   -3.74 KCAL/MOL
REMARK 924 INTRA-LIGAND FREE ENERGY PREDICTED BY IDOCK:   -0.91 KCAL/MOL
REMARK 927      BINDING AFFINITY PREDICTED BY RF-SCORE:    0.00 PKD
ROOT
HETATM    1  C   UNL     1     -10.663   9.333  67.767  1.00  0.00    -0.270 C  
HETATM    2  C   UNL     1      -9.433   8.730  67.085  1.00  0.00    -0.162 C  
HETATM    3  C   UNL     1      -9.428   9.121  65.605  1.00  0.00    -0.309 C  
ENDROOT
BRANCH   2   4
HETATM    4  N   UNL     1      -8.238   9.212  67.785  1.00  0.00    -0.109 NA 
HETATM    5  H   UNL     1      -7.782   9.952  67.251  1.00  0.00     0.000 HD 
BRANCH   4   6
HETATM    6  C   UNL     1      -8.500   9.648  69.158  1.00  0.00    -0.143 C  
BRANCH   6   7
HETATM    7  C   UNL     1      -7.816  10.998  69.455  1.00  0.00     0.010 C  
HETATM    8  H   UNL     1      -6.383  11.627  70.636  1.00  0.00     0.000 HD 
HETATM    9  O   UNL     1      -6.804  10.796  70.453  1.00  0.00    -0.278 OA 
BRANCH   7  10
HETATM   10  C   UNL     1      -7.239  11.560  68.143  1.00  0.00    -0.080 C  
BRANCH  10  11
HETATM   11  O   UNL     1      -8.289  12.042  67.303  1.00  0.00    -0.160 OA 
BRANCH  11  12
HETATM   12  C   UNL     1      -8.776  13.291  67.611  1.00  0.00    -0.195 A  
HETATM   13  C   UNL     1      -8.042  14.287  68.276  1.00  0.00    -0.143 A  
HETATM   14  C   UNL     1      -8.587  15.547  68.528  1.00  0.00    -0.176 A  
HETATM   15  C   UNL     1      -9.883  15.865  68.121  1.00  0.00    -0.214 A  
HETATM   16  C   UNL     1     -10.606  14.877  67.451  1.00  0.00    -0.263 A  
HETATM   17  C   UNL     1     -10.088  13.607  67.186  1.00  0.00    -0.245 A  
HETATM   18  C   UNL     1     -11.106  12.886  66.495  1.00  0.00    -0.318 A  
HETATM   19  C   UNL     1     -12.194  13.715  66.352  1.00  0.00    -0.423 A  
HETATM   20  N   UNL     1     -11.882  14.915  66.932  1.00  0.00    -0.262 NA 
HETATM   21  H   UNL     1     -12.505  15.722  66.973  1.00  0.00     0.000 HD 
ENDBRANCH  11  12
ENDBRANCH  10  11
ENDBRANCH   7  10
ENDBRANCH   6   7
ENDBRANCH   4   6
ENDBRANCH   2   4
TORSDOF 6
ENDMDL
MODEL      272
REMARK 921   NORMALIZED FREE ENERGY PREDICTED BY IDOCK:   -3.15 KCAL/MOL
REMARK 922        TOTAL FREE ENERGY PREDICTED BY IDOCK:   -4.63 KCAL/MOL
REMARK 923 INTER-LIGAND FREE ENERGY PREDICTED BY IDOCK:   -3.98 KCAL/MOL
REMARK 924 INTRA-LIGAND FREE ENERGY PREDICTED BY IDOCK:   -0.65 KCAL/MOL
REMARK 927      BINDING AFFINITY PREDICTED BY RF-SCORE:    0.00 PKD
ROOT
HETATM    1  C   UNL     1      -8.450   9.112  62.730  1.00  0.00    -0.211 C  
HETATM    2  C   UNL     1      -7.322   9.655  63.610  1.00  0.00    -0.115 C  
HETATM    3  C   UNL     1      -6.131  10.044  62.729  1.00  0.00    -0.122 C  
ENDROOT
BRANCH   2   4
HETATM    4  N   UNL     1      -7.841  10.799  64.367  1.00  0.00    -0.354 NA 
HETATM    5  H   UNL     1      -7.709  11.666  63.846  1.00  0.00     0.000 HD 
BRANCH   4   6
HETATM    6  C   UNL     1      -9.240  10.645  64.772  1.00  0.00    -0.220 C  
BRANCH   6   7
HETATM    7  C   UNL     1      -9.360  10.435  66.295  1.00  0.00    -0.166 C  
HETATM    8  H   UNL     1      -9.363   8.899  67.513  1.00  0.00     0.000 HD 
HETATM    9  O   UNL     1      -9.289   9.028  66.576  1.00  0.00    -0.163 OA 
BRANCH   7  10
HETATM   10  C   UNL     1      -8.241  11.228  66.995  1.00  0.00    -0.151 C  
BRANCH  10  11
HETATM   11  O   UNL     1      -8.289  12.602  66.609  1.00  0.00    -0.072 OA 
BRANCH  11  12
HETATM   12  C   UNL     1      -8.816  13.467  67.539  1.00  0.00    -0.210 A  
HETATM   13  C   UNL     1      -8.071  14.093  68.552  1.00  0.00    -0.143 A  
HETATM   14  C   UNL     1      -8.664  14.987  69.445  1.00  0.00    -0.113 A  
HETATM   15  C   UNL     1     -10.022  15.295  69.360  1.00  0.00    -0.257 A  
HETATM   16  C   UNL     1     -10.758  14.679  68.347  1.00  0.00    -0.241 A  
HETATM   17  C   UNL     1     -10.192  13.780  67.440  1.00  0.00    -0.252 A  
HETATM   18  C   UNL     1     -11.242  13.366  66.566  1.00  0.00    -0.327 A  
HETATM   19  C   UNL     1     -12.394  14.013  66.948  1.00  0.00    -0.286 A  
HETATM   20  N   UNL     1     -12.091  14.804  68.023  1.00  0.00    -0.579 NA 
HETATM   21  H   UNL     1     -12.758  15.400  68.513  1.00  0.00     0.000 HD 
ENDBRANCH  11  12
ENDBRANCH  10  11
ENDBRANCH   7  10
ENDBRANCH   6   7
ENDBRANCH   4   6
ENDBRANCH   2   4
TORSDOF 6
ENDMDL
MODEL      273
REMARK 921   NORMALIZED FREE ENERGY PREDICTED BY IDOCK:   -3.15 KCAL/MOL
REMARK 922        TOTAL FREE ENERGY PREDICTED BY IDOCK:   -4.63 KCAL/MOL
REMARK 923 INTER-LIGAND FREE ENERGY PREDICTED BY IDOCK:   -4.19 KCAL/MOL
REMARK 924 INTRA-LIGAND FREE ENERGY PREDICTED BY IDOCK:   -0.44 KCAL/MOL
REMARK 927      BINDING AFFINITY PREDICTED BY RF-SCORE:    0.00 PKD
ROOT
HETATM    1  C   UNL     1     -11.238   8.253  72.587  1.00  0.00    -0.410 C  
HETATM    2  C   UNL     1     -12.544   8.186  71.792  1.00  0.00    -0.330 C  
HETATM    3  C   UNL     1     -12.983   9.603  71.412  1.00  0.00    -0.474 C  
ENDROOT
BRANCH   2   4
HETATM    4  N   UNL     1     -12.319   7.346  70.612  1.00  0.00    -0.559 NA 
HETATM    5  H   UNL     1     -11.938   7.898  69.843  1.00  0.00     0.000 HD 
BRANCH   4   6
HETATM    6  C   UNL     1     -11.477   6.177  70.877  1.00  0.00    -0.248 C  
BRANCH   6   7
HETATM    7  C   UNL     1     -10.510   5.908  69.707  1.00  0.00    -0.272 C  
HETATM    8  H   UNL     1      -9.628   4.336  68.935  1.00  0.00     0.000 HD 
HETATM    9  O   UNL     1     -10.223   4.502  69.656  1.00  0.00    -0.188 OA 
BRANCH   7  10
HETATM   10  C   UNL     1     -11.153   6.421  68.405  1.00  0.00    -0.285 C  
BRANCH  10  11
HETATM   11  O   UNL     1     -10.163   7.012  67.561  1.00  0.00    -0.164 OA 
BRANCH  11  12
HETATM   12  C   UNL     1      -9.695   6.218  66.541  1.00  0.00    -0.137 A  
HETATM   13  C   UNL     1     -10.314   5.033  66.110  1.00  0.00    -0.309 A  
HETATM   14  C   UNL     1      -9.803   4.290  65.044  1.00  0.00    -0.198 A  
HETATM   15  C   UNL     1      -8.657   4.704  64.363  1.00  0.00    -0.142 A  
HETATM   16  C   UNL     1      -8.050   5.887  64.788  1.00  0.00    -0.132 A  
HETATM   17  C   UNL     1      -8.538   6.650  65.851  1.00  0.00    -0.153 A  
HETATM   18  C   UNL     1      -7.665   7.770  65.985  1.00  0.00    -0.093 A  
HETATM   19  C   UNL     1      -6.692   7.670  65.018  1.00  0.00    -0.047 A  
HETATM   20  N   UNL     1      -6.933   6.531  64.300  1.00  0.00    -0.048 NA 
HETATM   21  H   UNL     1      -6.368   6.205  63.516  1.00  0.00     0.000 HD 
ENDBRANCH  11  12
ENDBRANCH  10  11
ENDBRANCH   7  10
ENDBRANCH   6   7
ENDBRANCH   4   6
ENDBRANCH   2   4
TORSDOF 6
ENDMDL
MODEL      274
REMARK 921   NORMALIZED FREE ENERGY PREDICTED BY IDOCK:   -3.15 KCAL/MOL
REMARK 922        TOTAL FREE ENERGY PREDICTED BY IDOCK:   -4.63 KCAL/MOL
REMARK 923 INTER-LIGAND FREE ENERGY PREDICTED BY IDOCK:   -4.33 KCAL/MOL
REMARK 924 INTRA-LIGAND FREE ENERGY PREDICTED BY IDOCK:   -0.30 KCAL/MOL
REMARK 927      BINDING AFFINITY PREDICTED BY RF-SCORE:    0.00 PKD
ROOT
HETATM    1  C   UNL     1      -9.691  13.665  67.671  1.00  0.00    -0.228 C  
HETATM    2  C   UNL     1     -10.324  12.929  66.488  1.00  0.00    -0.264 C  
HETATM    3  C   UNL     1     -10.318  13.842  65.258  1.00  0.00    -0.378 C  
ENDROOT
BRANCH   2   4
HETATM    4  N   UNL     1      -9.569  11.694  66.259  1.00  0.00    -0.215 NA 
HETATM    5  H   UNL     1      -8.993  11.467  67.071  1.00  0.00     0.000 HD 
BRANCH   4   6
HETATM    6  C   UNL     1     -10.410  10.554  65.885  1.00  0.00    -0.206 C  
BRANCH   6   7
HETATM    7  C   UNL     1      -9.865   9.240  66.479  1.00  0.00    -0.263 C  
HETATM    8  H   UNL     1      -8.112   8.560  67.034  1.00  0.00     0.000 HD 
HETATM    9  O   UNL     1      -8.447   9.369  66.668  1.00  0.00    -0.124 OA 
BRANCH   7  10
HETATM   10  C   UNL     1     -10.605   8.947  67.797  1.00  0.00    -0.202 C  
BRANCH  10  11
HETATM   11  O   UNL     1     -10.416   7.584  68.181  1.00  0.00    -0.197 OA 
BRANCH  11  12
HETATM   12  C   UNL     1     -10.661   7.296  69.503  1.00  0.00    -0.234 A  
HETATM   13  C   UNL     1     -11.286   8.174  70.404  1.00  0.00    -0.221 A  
HETATM   14  C   UNL     1     -11.533   7.804  71.728  1.00  0.00    -0.307 A  
HETATM   15  C   UNL     1     -11.172   6.542  72.202  1.00  0.00    -0.308 A  
HETATM   16  C   UNL     1     -10.561   5.669  71.301  1.00  0.00    -0.255 A  
HETATM   17  C   UNL     1     -10.300   6.011  69.973  1.00  0.00    -0.290 A  
HETATM   18  C   UNL     1      -9.676   4.877  69.374  1.00  0.00    -0.261 A  
HETATM   19  C   UNL     1      -9.580   3.890  70.327  1.00  0.00    -0.201 A  
HETATM   20  N   UNL     1     -10.118   4.378  71.487  1.00  0.00    -0.178 NA 
HETATM   21  H   UNL     1     -10.182   3.859  72.363  1.00  0.00     0.000 HD 
ENDBRANCH  11  12
ENDBRANCH  10  11
ENDBRANCH   7  10
ENDBRANCH   6   7
ENDBRANCH   4   6
ENDBRANCH   2   4
TORSDOF 6
ENDMDL
MODEL      275
REMARK 921   NORMALIZED FREE ENERGY PREDICTED BY IDOCK:   -3.14 KCAL/MOL
REMARK 922        TOTAL FREE ENERGY PREDICTED BY IDOCK:   -4.62 KCAL/MOL
REMARK 923 INTER-LIGAND FREE ENERGY PREDICTED BY IDOCK:   -4.24 KCAL/MOL
REMARK 924 INTRA-LIGAND FREE ENERGY PREDICTED BY IDOCK:   -0.38 KCAL/MOL
REMARK 927      BINDING AFFINITY PREDICTED BY RF-SCORE:    0.00 PKD
ROOT
HETATM    1  C   UNL     1     -10.829   7.091  66.933  1.00  0.00    -0.350 C  
HETATM    2  C   UNL     1     -10.011   8.120  66.151  1.00  0.00     0.053 C  
HETATM    3  C   UNL     1     -10.534   9.527  66.457  1.00  0.00    -0.201 C  
ENDROOT
BRANCH   2   4
HETATM    4  N   UNL     1      -8.602   7.965  66.525  1.00  0.00    -0.135 NA 
HETATM    5  H   UNL     1      -8.027   8.674  66.068  1.00  0.00     0.000 HD 
BRANCH   4   6
HETATM    6  C   UNL     1      -8.376   7.968  67.972  1.00  0.00    -0.126 C  
BRANCH   6   7
HETATM    7  C   UNL     1      -7.092   8.741  68.335  1.00  0.00    -0.077 C  
HETATM    8  H   UNL     1      -6.012  10.153  67.508  1.00  0.00     0.000 HD 
HETATM    9  O   UNL     1      -6.803   9.677  67.285  1.00  0.00    -0.081 OA 
BRANCH   7  10
HETATM   10  C   UNL     1      -7.298   9.433  69.694  1.00  0.00    -0.077 C  
BRANCH  10  11
HETATM   11  O   UNL     1      -8.671   9.790  69.868  1.00  0.00    -0.192 OA 
BRANCH  11  12
HETATM   12  C   UNL     1      -9.355   9.085  70.830  1.00  0.00    -0.249 A  
HETATM   13  C   UNL     1      -8.783   8.091  71.643  1.00  0.00    -0.169 A  
HETATM   14  C   UNL     1      -9.528   7.436  72.624  1.00  0.00    -0.197 A  
HETATM   15  C   UNL     1     -10.872   7.749  72.837  1.00  0.00    -0.453 A  
HETATM   16  C   UNL     1     -11.434   8.744  72.035  1.00  0.00    -0.371 A  
HETATM   17  C   UNL     1     -10.713   9.416  71.045  1.00  0.00    -0.407 A  
HETATM   18  C   UNL     1     -11.613  10.347  70.446  1.00  0.00    -0.423 A  
HETATM   19  C   UNL     1     -12.830  10.228  71.075  1.00  0.00    -0.397 A  
HETATM   20  N   UNL     1     -12.711   9.259  72.033  1.00  0.00    -0.385 NA 
HETATM   21  H   UNL     1     -13.462   8.961  72.657  1.00  0.00     0.000 HD 
ENDBRANCH  11  12
ENDBRANCH  10  11
ENDBRANCH   7  10
ENDBRANCH   6   7
ENDBRANCH   4   6
ENDBRANCH   2   4
TORSDOF 6
ENDMDL
MODEL      276
REMARK 921   NORMALIZED FREE ENERGY PREDICTED BY IDOCK:   -3.12 KCAL/MOL
REMARK 922        TOTAL FREE ENERGY PREDICTED BY IDOCK:   -4.60 KCAL/MOL
REMARK 923 INTER-LIGAND FREE ENERGY PREDICTED BY IDOCK:   -4.02 KCAL/MOL
REMARK 924 INTRA-LIGAND FREE ENERGY PREDICTED BY IDOCK:   -0.57 KCAL/MOL
REMARK 927      BINDING AFFINITY PREDICTED BY RF-SCORE:    0.00 PKD
ROOT
HETATM    1  C   UNL     1      -6.882  10.751  66.624  1.00  0.00    -0.125 C  
HETATM    2  C   UNL     1      -6.892   9.470  67.462  1.00  0.00    -0.083 C  
HETATM    3  C   UNL     1      -5.913   9.617  68.630  1.00  0.00    -0.042 C  
ENDROOT
BRANCH   2   4
HETATM    4  N   UNL     1      -8.264   9.233  67.921  1.00  0.00    -0.115 NA 
HETATM    5  H   UNL     1      -8.300   9.185  68.939  1.00  0.00     0.000 HD 
BRANCH   4   6
HETATM    6  C   UNL     1      -9.228  10.212  67.413  1.00  0.00    -0.141 C  
BRANCH   6   7
HETATM    7  C   UNL     1     -10.259   9.547  66.479  1.00  0.00    -0.237 C  
HETATM    8  H   UNL     1     -10.764   9.706  64.591  1.00  0.00     0.000 HD 
HETATM    9  O   UNL     1     -10.129  10.115  65.167  1.00  0.00    -0.326 OA 
BRANCH   7  10
HETATM   10  C   UNL     1     -10.024   8.025  66.483  1.00  0.00    -0.213 C  
BRANCH  10  11
HETATM   11  O   UNL     1     -11.023   7.370  67.265  1.00  0.00    -0.280 OA 
BRANCH  11  12
HETATM   12  C   UNL     1     -10.601   6.273  67.978  1.00  0.00    -0.262 A  
HETATM   13  C   UNL     1      -9.950   5.162  67.414  1.00  0.00    -0.215 A  
HETATM   14  C   UNL     1      -9.517   4.094  68.202  1.00  0.00    -0.215 A  
HETATM   15  C   UNL     1      -9.713   4.094  69.584  1.00  0.00    -0.269 A  
HETATM   16  C   UNL     1     -10.350   5.203  70.142  1.00  0.00    -0.270 A  
HETATM   17  C   UNL     1     -10.795   6.285  69.379  1.00  0.00    -0.404 A  
HETATM   18  C   UNL     1     -11.388   7.210  70.289  1.00  0.00    -0.305 A  
HETATM   19  C   UNL     1     -11.287   6.686  71.556  1.00  0.00    -0.281 A  
HETATM   20  N   UNL     1     -10.659   5.475  71.457  1.00  0.00    -0.241 NA 
HETATM   21  H   UNL     1     -10.448   4.861  72.245  1.00  0.00     0.000 HD 
ENDBRANCH  11  12
ENDBRANCH  10  11
ENDBRANCH   7  10
ENDBRANCH   6   7
ENDBRANCH   4   6
ENDBRANCH   2   4
TORSDOF 6
ENDMDL
MODEL      277
REMARK 921   NORMALIZED FREE ENERGY PREDICTED BY IDOCK:   -3.12 KCAL/MOL
REMARK 922        TOTAL FREE ENERGY PREDICTED BY IDOCK:   -4.59 KCAL/MOL
REMARK 923 INTER-LIGAND FREE ENERGY PREDICTED BY IDOCK:   -3.85 KCAL/MOL
REMARK 924 INTRA-LIGAND FREE ENERGY PREDICTED BY IDOCK:   -0.75 KCAL/MOL
REMARK 927      BINDING AFFINITY PREDICTED BY RF-SCORE:    0.00 PKD
ROOT
HETATM    1  C   UNL     1     -10.508  10.250  65.255  1.00  0.00    -0.099 C  
HETATM    2  C   UNL     1     -10.184  11.726  65.014  1.00  0.00    -0.272 C  
HETATM    3  C   UNL     1     -11.458  12.465  64.594  1.00  0.00    -0.384 C  
ENDROOT
BRANCH   2   4
HETATM    4  N   UNL     1      -9.612  12.277  66.247  1.00  0.00    -0.240 NA 
HETATM    5  H   UNL     1     -10.138  13.095  66.554  1.00  0.00     0.000 HD 
BRANCH   4   6
HETATM    6  C   UNL     1      -9.498  11.296  67.328  1.00  0.00    -0.173 C  
BRANCH   6   7
HETATM    7  C   UNL     1      -8.032  11.118  67.769  1.00  0.00    -0.116 C  
HETATM    8  H   UNL     1      -7.068  11.046  69.475  1.00  0.00     0.000 HD 
HETATM    9  O   UNL     1      -7.971  11.155  69.204  1.00  0.00    -0.125 OA 
BRANCH   7  10
HETATM   10  C   UNL     1      -7.498   9.793  67.196  1.00  0.00    -0.088 C  
BRANCH  10  11
HETATM   11  O   UNL     1      -7.668   8.738  68.143  1.00  0.00    -0.099 OA 
BRANCH  11  12
HETATM   12  C   UNL     1      -8.678   7.845  67.871  1.00  0.00    -0.124 A  
HETATM   13  C   UNL     1      -8.733   7.035  66.724  1.00  0.00    -0.124 A  
HETATM   14  C   UNL     1      -9.772   6.125  66.524  1.00  0.00    -0.184 A  
HETATM   15  C   UNL     1     -10.795   5.984  67.464  1.00  0.00    -0.393 A  
HETATM   16  C   UNL     1     -10.732   6.783  68.607  1.00  0.00    -0.234 A  
HETATM   17  C   UNL     1      -9.705   7.702  68.832  1.00  0.00    -0.156 A  
HETATM   18  C   UNL     1      -9.980   8.321  70.088  1.00  0.00    -0.187 A  
HETATM   19  C   UNL     1     -11.137   7.773  70.589  1.00  0.00    -0.256 A  
HETATM   20  N   UNL     1     -11.583   6.844  69.689  1.00  0.00    -0.592 NA 
HETATM   21  H   UNL     1     -12.424   6.279  69.802  1.00  0.00     0.000 HD 
ENDBRANCH  11  12
ENDBRANCH  10  11
ENDBRANCH   7  10
ENDBRANCH   6   7
ENDBRANCH   4   6
ENDBRANCH   2   4
TORSDOF 6
ENDMDL
MODEL      278
REMARK 921   NORMALIZED FREE ENERGY PREDICTED BY IDOCK:   -3.10 KCAL/MOL
REMARK 922        TOTAL FREE ENERGY PREDICTED BY IDOCK:   -4.56 KCAL/MOL
REMARK 923 INTER-LIGAND FREE ENERGY PREDICTED BY IDOCK:   -3.85 KCAL/MOL
REMARK 924 INTRA-LIGAND FREE ENERGY PREDICTED BY IDOCK:   -0.71 KCAL/MOL
REMARK 927      BINDING AFFINITY PREDICTED BY RF-SCORE:    0.00 PKD
ROOT
HETATM    1  C   UNL     1     -12.340  11.319  70.321  1.00  0.00    -0.389 C  
HETATM    2  C   UNL     1     -11.799  10.562  69.106  1.00  0.00    -0.146 C  
HETATM    3  C   UNL     1     -10.784  11.440  68.369  1.00  0.00    -0.237 C  
ENDROOT
BRANCH   2   4
HETATM    4  N   UNL     1     -11.203   9.308  69.576  1.00  0.00    -0.434 NA 
HETATM    5  H   UNL     1     -10.207   9.277  69.355  1.00  0.00     0.000 HD 
BRANCH   4   6
HETATM    6  C   UNL     1     -11.426   9.051  71.000  1.00  0.00    -0.295 C  
BRANCH   6   7
HETATM    7  C   UNL     1     -11.940   7.616  71.235  1.00  0.00    -0.306 C  
HETATM    8  H   UNL     1     -13.646   6.791  71.739  1.00  0.00     0.000 HD 
HETATM    9  O   UNL     1     -13.329   7.674  71.595  1.00  0.00    -0.345 OA 
BRANCH   7  10
HETATM   10  C   UNL     1     -11.702   6.789  69.959  1.00  0.00    -0.272 C  
BRANCH  10  11
HETATM   11  O   UNL     1     -10.311   6.503  69.804  1.00  0.00    -0.180 OA 
BRANCH  11  12
HETATM   12  C   UNL     1      -9.926   6.060  68.560  1.00  0.00    -0.142 A  
HETATM   13  C   UNL     1     -10.785   5.960  67.453  1.00  0.00    -0.370 A  
HETATM   14  C   UNL     1     -10.321   5.532  66.208  1.00  0.00    -0.215 A  
HETATM   15  C   UNL     1      -8.980   5.192  66.018  1.00  0.00    -0.140 A  
HETATM   16  C   UNL     1      -8.128   5.302  67.117  1.00  0.00    -0.101 A  
HETATM   17  C   UNL     1      -8.564   5.726  68.374  1.00  0.00    -0.112 A  
HETATM   18  C   UNL     1      -7.423   5.710  69.230  1.00  0.00    -0.079 A  
HETATM   19  C   UNL     1      -6.341   5.293  68.490  1.00  0.00    -0.035 A  
HETATM   20  N   UNL     1      -6.777   5.050  67.216  1.00  0.00    -0.054 NA 
HETATM   21  H   UNL     1      -6.186   4.728  66.449  1.00  0.00     0.000 HD 
ENDBRANCH  11  12
ENDBRANCH  10  11
ENDBRANCH   7  10
ENDBRANCH   6   7
ENDBRANCH   4   6
ENDBRANCH   2   4
TORSDOF 6
ENDMDL
MODEL      279
REMARK 921   NORMALIZED FREE ENERGY PREDICTED BY IDOCK:   -3.09 KCAL/MOL
REMARK 922        TOTAL FREE ENERGY PREDICTED BY IDOCK:   -4.55 KCAL/MOL
REMARK 923 INTER-LIGAND FREE ENERGY PREDICTED BY IDOCK:   -3.76 KCAL/MOL
REMARK 924 INTRA-LIGAND FREE ENERGY PREDICTED BY IDOCK:   -0.80 KCAL/MOL
REMARK 927      BINDING AFFINITY PREDICTED BY RF-SCORE:    0.00 PKD
ROOT
HETATM    1  C   UNL     1      -6.773   4.826  69.039  1.00  0.00    -0.049 C  
HETATM    2  C   UNL     1      -7.561   3.534  68.815  1.00  0.00    -0.053 C  
HETATM    3  C   UNL     1      -8.481   3.284  70.013  1.00  0.00    -0.092 C  
ENDROOT
BRANCH   2   4
HETATM    4  N   UNL     1      -8.313   3.666  67.563  1.00  0.00    -0.093 NA 
HETATM    5  H   UNL     1      -9.265   3.315  67.676  1.00  0.00     0.000 HD 
BRANCH   4   6
HETATM    6  C   UNL     1      -8.325   5.030  67.029  1.00  0.00    -0.107 C  
BRANCH   6   7
HETATM    7  C   UNL     1      -9.674   5.355  66.357  1.00  0.00    -0.166 C  
HETATM    8  H   UNL     1     -11.099   4.332  65.481  1.00  0.00     0.000 HD 
HETATM    9  O   UNL     1     -10.268   4.132  65.894  1.00  0.00    -0.193 OA 
BRANCH   7  10
HETATM   10  C   UNL     1     -10.568   6.092  67.371  1.00  0.00    -0.283 C  
BRANCH  10  11
HETATM   11  O   UNL     1      -9.841   6.364  68.570  1.00  0.00    -0.134 OA 
BRANCH  11  12
HETATM   12  C   UNL     1     -10.135   7.555  69.190  1.00  0.00    -0.192 A  
HETATM   13  C   UNL     1      -9.563   8.792  68.845  1.00  0.00    -0.158 A  
HETATM   14  C   UNL     1      -9.931   9.971  69.496  1.00  0.00    -0.249 A  
HETATM   15  C   UNL     1     -10.888   9.964  70.512  1.00  0.00    -0.391 A  
HETATM   16  C   UNL     1     -11.461   8.736  70.845  1.00  0.00    -0.284 A  
HETATM   17  C   UNL     1     -11.112   7.540  70.212  1.00  0.00    -0.263 A  
HETATM   18  C   UNL     1     -11.899   6.514  70.815  1.00  0.00    -0.394 A  
HETATM   19  C   UNL     1     -12.696   7.096  71.773  1.00  0.00    -0.339 A  
HETATM   20  N   UNL     1     -12.425   8.437  71.783  1.00  0.00    -0.319 NA 
HETATM   21  H   UNL     1     -12.873   9.118  72.397  1.00  0.00     0.000 HD 
ENDBRANCH  11  12
ENDBRANCH  10  11
ENDBRANCH   7  10
ENDBRANCH   6   7
ENDBRANCH   4   6
ENDBRANCH   2   4
TORSDOF 6
ENDMDL
MODEL      280
REMARK 921   NORMALIZED FREE ENERGY PREDICTED BY IDOCK:   -3.09 KCAL/MOL
REMARK 922        TOTAL FREE ENERGY PREDICTED BY IDOCK:   -4.55 KCAL/MOL
REMARK 923 INTER-LIGAND FREE ENERGY PREDICTED BY IDOCK:   -3.87 KCAL/MOL
REMARK 924 INTRA-LIGAND FREE ENERGY PREDICTED BY IDOCK:   -0.67 KCAL/MOL
REMARK 927      BINDING AFFINITY PREDICTED BY RF-SCORE:    0.00 PKD
ROOT
HETATM    1  C   UNL     1     -10.830   4.774  72.752  1.00  0.00    -0.280 C  
HETATM    2  C   UNL     1     -10.989   6.277  72.992  1.00  0.00    -0.242 C  
HETATM    3  C   UNL     1      -9.799   6.792  73.806  1.00  0.00    -0.289 C  
ENDROOT
BRANCH   2   4
HETATM    4  N   UNL     1     -11.091   6.940  71.689  1.00  0.00    -0.234 NA 
HETATM    5  H   UNL     1     -10.630   6.388  70.966  1.00  0.00     0.000 HD 
BRANCH   4   6
HETATM    6  C   UNL     1     -12.468   7.257  71.300  1.00  0.00    -0.366 C  
BRANCH   6   7
HETATM    7  C   UNL     1     -12.663   8.777  71.130  1.00  0.00    -0.137 C  
HETATM    8  H   UNL     1     -13.759  10.165  71.979  1.00  0.00     0.000 HD 
HETATM    9  O   UNL     1     -13.638   9.229  72.083  1.00  0.00    -0.418 OA 
BRANCH   7  10
HETATM   10  C   UNL     1     -11.303   9.476  71.310  1.00  0.00    -0.376 C  
BRANCH  10  11
HETATM   11  O   UNL     1     -10.610   9.543  70.063  1.00  0.00    -0.211 OA 
BRANCH  11  12
HETATM   12  C   UNL     1      -9.239   9.612  70.144  1.00  0.00    -0.246 A  
HETATM   13  C   UNL     1      -8.463   8.912  71.083  1.00  0.00    -0.250 A  
HETATM   14  C   UNL     1      -7.070   9.002  71.089  1.00  0.00    -0.107 A  
HETATM   15  C   UNL     1      -6.396   9.790  70.154  1.00  0.00    -0.076 A  
HETATM   16  C   UNL     1      -7.169  10.476  69.216  1.00  0.00    -0.103 A  
HETATM   17  C   UNL     1      -8.564  10.405  69.187  1.00  0.00    -0.169 A  
HETATM   18  C   UNL     1      -8.991  11.229  68.103  1.00  0.00    -0.166 A  
HETATM   19  C   UNL     1      -7.874  11.763  67.507  1.00  0.00    -0.148 A  
HETATM   20  N   UNL     1      -6.779  11.302  68.185  1.00  0.00    -0.058 NA 
HETATM   21  H   UNL     1      -5.812  11.537  67.960  1.00  0.00     0.000 HD 
ENDBRANCH  11  12
ENDBRANCH  10  11
ENDBRANCH   7  10
ENDBRANCH   6   7
ENDBRANCH   4   6
ENDBRANCH   2   4
TORSDOF 6
ENDMDL
MODEL      281
REMARK 921   NORMALIZED FREE ENERGY PREDICTED BY IDOCK:   -3.08 KCAL/MOL
REMARK 922        TOTAL FREE ENERGY PREDICTED BY IDOCK:   -4.54 KCAL/MOL
REMARK 923 INTER-LIGAND FREE ENERGY PREDICTED BY IDOCK:   -4.12 KCAL/MOL
REMARK 924 INTRA-LIGAND FREE ENERGY PREDICTED BY IDOCK:   -0.42 KCAL/MOL
REMARK 927      BINDING AFFINITY PREDICTED BY RF-SCORE:    0.00 PKD
ROOT
HETATM    1  C   UNL     1      -8.223   3.564  65.638  1.00  0.00    -0.097 C  
HETATM    2  C   UNL     1      -8.621   4.763  64.774  1.00  0.00    -0.146 C  
HETATM    3  C   UNL     1      -8.919   4.287  63.348  1.00  0.00    -0.130 C  
ENDROOT
BRANCH   2   4
HETATM    4  N   UNL     1      -9.784   5.408  65.391  1.00  0.00    -0.364 NA 
HETATM    5  H   UNL     1     -10.614   4.821  65.297  1.00  0.00     0.000 HD 
BRANCH   4   6
HETATM    6  C   UNL     1      -9.570   5.783  66.791  1.00  0.00    -0.147 C  
BRANCH   6   7
HETATM    7  C   UNL     1      -8.891   7.163  66.901  1.00  0.00    -0.128 C  
HETATM    8  H   UNL     1      -8.965   8.857  65.917  1.00  0.00     0.000 HD 
HETATM    9  O   UNL     1      -9.383   8.007  65.849  1.00  0.00    -0.136 OA 
BRANCH   7  10
HETATM   10  C   UNL     1      -9.174   7.745  68.298  1.00  0.00    -0.139 C  
BRANCH  10  11
HETATM   11  O   UNL     1     -10.526   7.486  68.680  1.00  0.00    -0.199 OA 
BRANCH  11  12
HETATM   12  C   UNL     1     -10.841   7.760  69.990  1.00  0.00    -0.241 A  
HETATM   13  C   UNL     1     -11.284   9.010  70.454  1.00  0.00    -0.275 A  
HETATM   14  C   UNL     1     -11.618   9.212  71.795  1.00  0.00    -0.457 A  
HETATM   15  C   UNL     1     -11.528   8.174  72.723  1.00  0.00    -0.397 A  
HETATM   16  C   UNL     1     -11.097   6.931  72.257  1.00  0.00    -0.249 A  
HETATM   17  C   UNL     1     -10.755   6.700  70.922  1.00  0.00    -0.278 A  
HETATM   18  C   UNL     1     -10.369   5.330  70.832  1.00  0.00    -0.303 A  
HETATM   19  C   UNL     1     -10.488   4.769  72.081  1.00  0.00    -0.175 A  
HETATM   20  N   UNL     1     -10.929   5.744  72.935  1.00  0.00    -0.258 NA 
HETATM   21  H   UNL     1     -11.108   5.609  73.930  1.00  0.00     0.000 HD 
ENDBRANCH  11  12
ENDBRANCH  10  11
ENDBRANCH   7  10
ENDBRANCH   6   7
ENDBRANCH   4   6
ENDBRANCH   2   4
TORSDOF 6
ENDMDL
MODEL      282
REMARK 921   NORMALIZED FREE ENERGY PREDICTED BY IDOCK:   -3.08 KCAL/MOL
REMARK 922        TOTAL FREE ENERGY PREDICTED BY IDOCK:   -4.53 KCAL/MOL
REMARK 923 INTER-LIGAND FREE ENERGY PREDICTED BY IDOCK:   -3.64 KCAL/MOL
REMARK 924 INTRA-LIGAND FREE ENERGY PREDICTED BY IDOCK:   -0.89 KCAL/MOL
REMARK 927      BINDING AFFINITY PREDICTED BY RF-SCORE:    0.00 PKD
ROOT
HETATM    1  C   UNL     1      -7.526   2.888  68.524  1.00  0.00    -0.048 C  
HETATM    2  C   UNL     1      -8.875   2.167  68.552  1.00  0.00    -0.106 C  
HETATM    3  C   UNL     1      -9.453   2.222  69.969  1.00  0.00    -0.131 C  
ENDROOT
BRANCH   2   4
HETATM    4  N   UNL     1      -9.758   2.808  67.573  1.00  0.00    -0.327 NA 
HETATM    5  H   UNL     1     -10.364   3.492  68.028  1.00  0.00     0.000 HD 
BRANCH   4   6
HETATM    6  C   UNL     1      -9.042   3.417  66.449  1.00  0.00    -0.158 C  
BRANCH   6   7
HETATM    7  C   UNL     1      -9.821   4.617  65.875  1.00  0.00    -0.220 C  
HETATM    8  H   UNL     1     -11.294   4.868  64.606  1.00  0.00     0.000 HD 
HETATM    9  O   UNL     1     -10.814   4.129  64.959  1.00  0.00    -0.223 OA 
BRANCH   7  10
HETATM   10  C   UNL     1     -10.440   5.410  67.040  1.00  0.00    -0.257 C  
BRANCH  10  11
HETATM   11  O   UNL     1      -9.526   5.481  68.135  1.00  0.00    -0.109 OA 
BRANCH  11  12
HETATM   12  C   UNL     1     -10.055   5.904  69.331  1.00  0.00    -0.202 A  
HETATM   13  C   UNL     1     -11.404   6.249  69.524  1.00  0.00    -0.475 A  
HETATM   14  C   UNL     1     -11.884   6.641  70.775  1.00  0.00    -0.441 A  
HETATM   15  C   UNL     1     -11.038   6.699  71.884  1.00  0.00    -0.289 A  
HETATM   16  C   UNL     1      -9.702   6.346  71.691  1.00  0.00    -0.160 A  
HETATM   17  C   UNL     1      -9.193   5.951  70.452  1.00  0.00    -0.174 A  
HETATM   18  C   UNL     1      -7.808   5.674  70.648  1.00  0.00    -0.100 A  
HETATM   19  C   UNL     1      -7.512   5.894  71.973  1.00  0.00    -0.096 A  
HETATM   20  N   UNL     1      -8.662   6.298  72.594  1.00  0.00    -0.124 NA 
HETATM   21  H   UNL     1      -8.738   6.531  73.585  1.00  0.00     0.000 HD 
ENDBRANCH  11  12
ENDBRANCH  10  11
ENDBRANCH   7  10
ENDBRANCH   6   7
ENDBRANCH   4   6
ENDBRANCH   2   4
TORSDOF 6
ENDMDL
MODEL      283
REMARK 921   NORMALIZED FREE ENERGY PREDICTED BY IDOCK:   -3.08 KCAL/MOL
REMARK 922        TOTAL FREE ENERGY PREDICTED BY IDOCK:   -4.53 KCAL/MOL
REMARK 923 INTER-LIGAND FREE ENERGY PREDICTED BY IDOCK:   -4.13 KCAL/MOL
REMARK 924 INTRA-LIGAND FREE ENERGY PREDICTED BY IDOCK:   -0.40 KCAL/MOL
REMARK 927      BINDING AFFINITY PREDICTED BY RF-SCORE:    0.00 PKD
ROOT
HETATM    1  C   UNL     1     -11.201   8.096  72.704  1.00  0.00    -0.447 C  
HETATM    2  C   UNL     1     -12.323   8.475  71.736  1.00  0.00    -0.338 C  
HETATM    3  C   UNL     1     -12.296   9.987  71.492  1.00  0.00    -0.513 C  
ENDROOT
BRANCH   2   4
HETATM    4  N   UNL     1     -12.137   7.715  70.497  1.00  0.00    -0.507 NA 
HETATM    5  H   UNL     1     -11.538   8.225  69.848  1.00  0.00     0.000 HD 
BRANCH   4   6
HETATM    6  C   UNL     1     -11.630   6.358  70.713  1.00  0.00    -0.338 C  
BRANCH   6   7
HETATM    7  C   UNL     1     -10.548   5.995  69.677  1.00  0.00    -0.300 C  
HETATM    8  H   UNL     1      -9.592   4.368  69.143  1.00  0.00     0.000 HD 
HETATM    9  O   UNL     1     -10.259   4.592  69.781  1.00  0.00    -0.201 OA 
BRANCH   7  10
HETATM   10  C   UNL     1     -11.053   6.384  68.276  1.00  0.00    -0.267 C  
BRANCH  10  11
HETATM   11  O   UNL     1     -10.586   5.450  67.301  1.00  0.00    -0.229 OA 
BRANCH  11  12
HETATM   12  C   UNL     1      -9.539   5.875  66.518  1.00  0.00    -0.156 A  
HETATM   13  C   UNL     1      -9.266   7.221  66.221  1.00  0.00    -0.175 A  
HETATM   14  C   UNL     1      -8.166   7.587  65.443  1.00  0.00    -0.136 A  
HETATM   15  C   UNL     1      -7.291   6.625  64.936  1.00  0.00    -0.080 A  
HETATM   16  C   UNL     1      -7.559   5.289  65.242  1.00  0.00    -0.082 A  
HETATM   17  C   UNL     1      -8.653   4.894  66.015  1.00  0.00    -0.119 A  
HETATM   18  C   UNL     1      -8.595   3.472  66.108  1.00  0.00    -0.117 A  
HETATM   19  C   UNL     1      -7.489   3.044  65.411  1.00  0.00    -0.073 A  
HETATM   20  N   UNL     1      -6.870   4.148  64.893  1.00  0.00    -0.048 NA 
HETATM   21  H   UNL     1      -6.020   4.130  64.329  1.00  0.00     0.000 HD 
ENDBRANCH  11  12
ENDBRANCH  10  11
ENDBRANCH   7  10
ENDBRANCH   6   7
ENDBRANCH   4   6
ENDBRANCH   2   4
TORSDOF 6
ENDMDL
MODEL      284
REMARK 921   NORMALIZED FREE ENERGY PREDICTED BY IDOCK:   -3.06 KCAL/MOL
REMARK 922        TOTAL FREE ENERGY PREDICTED BY IDOCK:   -4.51 KCAL/MOL
REMARK 923 INTER-LIGAND FREE ENERGY PREDICTED BY IDOCK:   -3.96 KCAL/MOL
REMARK 924 INTRA-LIGAND FREE ENERGY PREDICTED BY IDOCK:   -0.55 KCAL/MOL
REMARK 927      BINDING AFFINITY PREDICTED BY RF-SCORE:    0.00 PKD
ROOT
HETATM    1  C   UNL     1     -10.943   3.855  73.464  1.00  0.00    -0.343 C  
HETATM    2  C   UNL     1     -10.069   4.795  72.632  1.00  0.00    -0.176 C  
HETATM    3  C   UNL     1      -9.031   5.464  73.539  1.00  0.00    -0.125 C  
ENDROOT
BRANCH   2   4
HETATM    4  N   UNL     1      -9.441   4.012  71.563  1.00  0.00    -0.142 NA 
HETATM    5  H   UNL     1      -9.576   3.013  71.721  1.00  0.00     0.000 HD 
BRANCH   4   6
HETATM    6  C   UNL     1      -9.888   4.390  70.220  1.00  0.00    -0.214 C  
BRANCH   6   7
HETATM    7  C   UNL     1      -8.701   4.833  69.341  1.00  0.00    -0.083 C  
HETATM    8  H   UNL     1      -7.129   3.969  68.549  1.00  0.00     0.000 HD 
HETATM    9  O   UNL     1      -7.860   3.697  69.091  1.00  0.00    -0.052 OA 
BRANCH   7  10
HETATM   10  C   UNL     1      -9.250   5.452  68.043  1.00  0.00    -0.110 C  
BRANCH  10  11
HETATM   11  O   UNL     1     -10.455   6.172  68.305  1.00  0.00    -0.181 OA 
BRANCH  11  12
HETATM   12  C   UNL     1     -10.410   7.524  68.058  1.00  0.00    -0.204 A  
HETATM   13  C   UNL     1     -10.251   8.093  66.783  1.00  0.00    -0.372 A  
HETATM   14  C   UNL     1     -10.246   9.476  66.599  1.00  0.00    -0.310 A  
HETATM   15  C   UNL     1     -10.405  10.347  67.678  1.00  0.00    -0.260 A  
HETATM   16  C   UNL     1     -10.573   9.779  68.942  1.00  0.00    -0.218 A  
HETATM   17  C   UNL     1     -10.581   8.399  69.157  1.00  0.00    -0.177 A  
HETATM   18  C   UNL     1     -10.773   8.205  70.557  1.00  0.00    -0.233 A  
HETATM   19  C   UNL     1     -10.883   9.441  71.148  1.00  0.00    -0.357 A  
HETATM   20  N   UNL     1     -10.761  10.385  70.165  1.00  0.00    -0.406 NA 
HETATM   21  H   UNL     1     -10.805  11.393  70.316  1.00  0.00     0.000 HD 
ENDBRANCH  11  12
ENDBRANCH  10  11
ENDBRANCH   7  10
ENDBRANCH   6   7
ENDBRANCH   4   6
ENDBRANCH   2   4
TORSDOF 6
ENDMDL
MODEL      285
REMARK 921   NORMALIZED FREE ENERGY PREDICTED BY IDOCK:   -3.05 KCAL/MOL
REMARK 922        TOTAL FREE ENERGY PREDICTED BY IDOCK:   -4.50 KCAL/MOL
REMARK 923 INTER-LIGAND FREE ENERGY PREDICTED BY IDOCK:   -4.01 KCAL/MOL
REMARK 924 INTRA-LIGAND FREE ENERGY PREDICTED BY IDOCK:   -0.49 KCAL/MOL
REMARK 927      BINDING AFFINITY PREDICTED BY RF-SCORE:    0.00 PKD
ROOT
HETATM    1  C   UNL     1     -11.513  11.856  69.815  1.00  0.00    -0.303 C  
HETATM    2  C   UNL     1     -10.330  11.224  69.078  1.00  0.00    -0.166 C  
HETATM    3  C   UNL     1     -10.701   9.803  68.642  1.00  0.00    -0.247 C  
ENDROOT
BRANCH   2   4
HETATM    4  N   UNL     1      -9.992  12.078  67.935  1.00  0.00    -0.192 NA 
HETATM    5  H   UNL     1      -9.165  11.725  67.453  1.00  0.00     0.000 HD 
BRANCH   4   6
HETATM    6  C   UNL     1     -11.100  12.264  66.996  1.00  0.00    -0.287 C  
BRANCH   6   7
HETATM    7  C   UNL     1     -11.140  13.709  66.459  1.00  0.00    -0.305 C  
HETATM    8  H   UNL     1     -12.512  14.914  65.745  1.00  0.00     0.000 HD 
HETATM    9  O   UNL     1     -12.488  14.024  66.075  1.00  0.00    -0.468 OA 
BRANCH   7  10
HETATM   10  C   UNL     1     -10.606  14.658  67.548  1.00  0.00    -0.257 C  
BRANCH  10  11
HETATM   11  O   UNL     1      -9.181  14.590  67.611  1.00  0.00    -0.187 OA 
BRANCH  11  12
HETATM   12  C   UNL     1      -8.531  15.792  67.764  1.00  0.00    -0.155 A  
HETATM   13  C   UNL     1      -8.797  16.941  67.000  1.00  0.00    -0.231 A  
HETATM   14  C   UNL     1      -8.122  18.141  67.230  1.00  0.00    -0.230 A  
HETATM   15  C   UNL     1      -7.158  18.243  68.234  1.00  0.00    -0.254 A  
HETATM   16  C   UNL     1      -6.903  17.103  68.998  1.00  0.00    -0.231 A  
HETATM   17  C   UNL     1      -7.562  15.889  68.790  1.00  0.00    -0.178 A  
HETATM   18  C   UNL     1      -7.041  14.972  69.751  1.00  0.00    -0.170 A  
HETATM   19  C   UNL     1      -6.104  15.635  70.508  1.00  0.00     0.074 A  
HETATM   20  N   UNL     1      -6.029  16.920  70.047  1.00  0.00    -0.221 NA 
HETATM   21  H   UNL     1      -5.413  17.640  70.426  1.00  0.00     0.000 HD 
ENDBRANCH  11  12
ENDBRANCH  10  11
ENDBRANCH   7  10
ENDBRANCH   6   7
ENDBRANCH   4   6
ENDBRANCH   2   4
TORSDOF 6
ENDMDL
MODEL      286
REMARK 921   NORMALIZED FREE ENERGY PREDICTED BY IDOCK:   -3.05 KCAL/MOL
REMARK 922        TOTAL FREE ENERGY PREDICTED BY IDOCK:   -4.49 KCAL/MOL
REMARK 923 INTER-LIGAND FREE ENERGY PREDICTED BY IDOCK:   -3.83 KCAL/MOL
REMARK 924 INTRA-LIGAND FREE ENERGY PREDICTED BY IDOCK:   -0.66 KCAL/MOL
REMARK 927      BINDING AFFINITY PREDICTED BY RF-SCORE:    0.00 PKD
ROOT
HETATM    1  C   UNL     1      -6.596   8.662  72.641  1.00  0.00    -0.045 C  
HETATM    2  C   UNL     1      -7.838   7.860  73.035  1.00  0.00    -0.131 C  
HETATM    3  C   UNL     1      -7.828   7.614  74.546  1.00  0.00    -0.229 C  
ENDROOT
BRANCH   2   4
HETATM    4  N   UNL     1      -9.023   8.609  72.607  1.00  0.00    -0.375 NA 
HETATM    5  H   UNL     1      -8.987   8.799  71.605  1.00  0.00     0.000 HD 
BRANCH   4   6
HETATM    6  C   UNL     1     -10.286   7.962  72.968  1.00  0.00    -0.334 C  
BRANCH   6   7
HETATM    7  C   UNL     1     -11.384   8.262  71.927  1.00  0.00    -0.308 C  
HETATM    8  H   UNL     1     -11.772   9.708  70.661  1.00  0.00     0.000 HD 
HETATM    9  O   UNL     1     -11.097   9.523  71.301  1.00  0.00    -0.334 OA 
BRANCH   7  10
HETATM   10  C   UNL     1     -11.436   7.105  70.913  1.00  0.00    -0.297 C  
BRANCH  10  11
HETATM   11  O   UNL     1     -10.161   6.926  70.297  1.00  0.00    -0.182 OA 
BRANCH  11  12
HETATM   12  C   UNL     1     -10.172   6.319  69.063  1.00  0.00    -0.184 A  
HETATM   13  C   UNL     1     -10.991   6.715  67.992  1.00  0.00    -0.332 A  
HETATM   14  C   UNL     1     -10.929   6.074  66.753  1.00  0.00    -0.305 A  
HETATM   15  C   UNL     1     -10.045   5.017  66.533  1.00  0.00    -0.278 A  
HETATM   16  C   UNL     1      -9.226   4.633  67.596  1.00  0.00    -0.129 A  
HETATM   17  C   UNL     1      -9.266   5.255  68.846  1.00  0.00    -0.150 A  
HETATM   18  C   UNL     1      -8.298   4.596  69.661  1.00  0.00    -0.077 A  
HETATM   19  C   UNL     1      -7.699   3.617  68.904  1.00  0.00    -0.052 A  
HETATM   20  N   UNL     1      -8.265   3.648  67.659  1.00  0.00    -0.088 NA 
HETATM   21  H   UNL     1      -8.012   3.029  66.888  1.00  0.00     0.000 HD 
ENDBRANCH  11  12
ENDBRANCH  10  11
ENDBRANCH   7  10
ENDBRANCH   6   7
ENDBRANCH   4   6
ENDBRANCH   2   4
TORSDOF 6
ENDMDL
MODEL      287
REMARK 921   NORMALIZED FREE ENERGY PREDICTED BY IDOCK:   -3.03 KCAL/MOL
REMARK 922        TOTAL FREE ENERGY PREDICTED BY IDOCK:   -4.47 KCAL/MOL
REMARK 923 INTER-LIGAND FREE ENERGY PREDICTED BY IDOCK:   -3.82 KCAL/MOL
REMARK 924 INTRA-LIGAND FREE ENERGY PREDICTED BY IDOCK:   -0.64 KCAL/MOL
REMARK 927      BINDING AFFINITY PREDICTED BY RF-SCORE:    0.00 PKD
ROOT
HETATM    1  C   UNL     1     -11.412   5.457  72.877  1.00  0.00    -0.340 C  
HETATM    2  C   UNL     1     -11.214   6.974  72.873  1.00  0.00    -0.236 C  
HETATM    3  C   UNL     1      -9.967   7.328  73.689  1.00  0.00    -0.377 C  
ENDROOT
BRANCH   2   4
HETATM    4  N   UNL     1     -11.104   7.418  71.480  1.00  0.00    -0.237 NA 
HETATM    5  H   UNL     1     -10.786   6.655  70.883  1.00  0.00     0.000 HD 
BRANCH   4   6
HETATM    6  C   UNL     1     -12.337   8.009  70.955  1.00  0.00    -0.150 C  
BRANCH   6   7
HETATM    7  C   UNL     1     -12.151   9.509  70.648  1.00  0.00    -0.162 C  
HETATM    8  H   UNL     1     -12.340  11.189  71.640  1.00  0.00     0.000 HD 
HETATM    9  O   UNL     1     -12.455  10.266  71.829  1.00  0.00    -0.397 OA 
BRANCH   7  10
HETATM   10  C   UNL     1     -10.708   9.739  70.161  1.00  0.00    -0.289 C  
BRANCH  10  11
HETATM   11  O   UNL     1     -10.668   9.795  68.734  1.00  0.00    -0.216 OA 
BRANCH  11  12
HETATM   12  C   UNL     1      -9.588   9.183  68.142  1.00  0.00    -0.144 A  
HETATM   13  C   UNL     1      -8.327   9.781  67.982  1.00  0.00    -0.110 A  
HETATM   14  C   UNL     1      -7.262   9.090  67.400  1.00  0.00    -0.083 A  
HETATM   15  C   UNL     1      -7.413   7.774  66.961  1.00  0.00    -0.095 A  
HETATM   16  C   UNL     1      -8.664   7.180  67.130  1.00  0.00    -0.121 A  
HETATM   17  C   UNL     1      -9.747   7.846  67.708  1.00  0.00    -0.189 A  
HETATM   18  C   UNL     1     -10.839   6.928  67.710  1.00  0.00    -0.312 A  
HETATM   19  C   UNL     1     -10.403   5.748  67.153  1.00  0.00    -0.240 A  
HETATM   20  N   UNL     1      -9.090   5.910  66.807  1.00  0.00    -0.125 NA 
HETATM   21  H   UNL     1      -8.508   5.192  66.373  1.00  0.00     0.000 HD 
ENDBRANCH  11  12
ENDBRANCH  10  11
ENDBRANCH   7  10
ENDBRANCH   6   7
ENDBRANCH   4   6
ENDBRANCH   2   4
TORSDOF 6
ENDMDL
MODEL      288
REMARK 921   NORMALIZED FREE ENERGY PREDICTED BY IDOCK:   -3.02 KCAL/MOL
REMARK 922        TOTAL FREE ENERGY PREDICTED BY IDOCK:   -4.45 KCAL/MOL
REMARK 923 INTER-LIGAND FREE ENERGY PREDICTED BY IDOCK:   -4.40 KCAL/MOL
REMARK 924 INTRA-LIGAND FREE ENERGY PREDICTED BY IDOCK:   -0.05 KCAL/MOL
REMARK 927      BINDING AFFINITY PREDICTED BY RF-SCORE:    0.00 PKD
ROOT
HETATM    1  C   UNL     1      -8.035  13.811  68.470  1.00  0.00    -0.131 C  
HETATM    2  C   UNL     1      -8.966  14.035  67.277  1.00  0.00    -0.218 C  
HETATM    3  C   UNL     1      -8.857  15.491  66.812  1.00  0.00    -0.297 C  
ENDROOT
BRANCH   2   4
HETATM    4  N   UNL     1      -8.593  13.091  66.219  1.00  0.00    -0.307 NA 
HETATM    5  H   UNL     1      -8.007  12.344  66.593  1.00  0.00     0.000 HD 
BRANCH   4   6
HETATM    6  C   UNL     1      -9.740  12.538  65.496  1.00  0.00    -0.119 C  
BRANCH   6   7
HETATM    7  C   UNL     1      -9.952  11.050  65.841  1.00  0.00    -0.240 C  
HETATM    8  H   UNL     1      -8.818   9.457  65.982  1.00  0.00     0.000 HD 
HETATM    9  O   UNL     1      -8.687  10.373  65.770  1.00  0.00    -0.155 OA 
BRANCH   7  10
HETATM   10  C   UNL     1     -10.590  10.951  67.238  1.00  0.00    -0.251 C  
BRANCH  10  11
HETATM   11  O   UNL     1     -11.621  11.929  67.385  1.00  0.00    -0.408 OA 
BRANCH  11  12
HETATM   12  C   UNL     1     -11.790  12.434  68.653  1.00  0.00    -0.302 A  
HETATM   13  C   UNL     1     -11.764  13.802  68.972  1.00  0.00    -0.372 A  
HETATM   14  C   UNL     1     -11.976  14.249  70.278  1.00  0.00    -0.398 A  
HETATM   15  C   UNL     1     -12.228  13.349  71.314  1.00  0.00    -0.163 A  
HETATM   16  C   UNL     1     -12.264  11.992  70.992  1.00  0.00    -0.141 A  
HETATM   17  C   UNL     1     -12.054  11.515  69.696  1.00  0.00    -0.363 A  
HETATM   18  C   UNL     1     -12.167  10.095  69.760  1.00  0.00     0.018 A  
HETATM   19  C   UNL     1     -12.443   9.747  71.061  1.00  0.00    -0.323 A  
HETATM   20  N   UNL     1     -12.500  10.899  71.797  1.00  0.00    -0.232 NA 
HETATM   21  H   UNL     1     -12.691  10.942  72.798  1.00  0.00     0.000 HD 
ENDBRANCH  11  12
ENDBRANCH  10  11
ENDBRANCH   7  10
ENDBRANCH   6   7
ENDBRANCH   4   6
ENDBRANCH   2   4
TORSDOF 6
ENDMDL
MODEL      289
REMARK 921   NORMALIZED FREE ENERGY PREDICTED BY IDOCK:   -3.00 KCAL/MOL
REMARK 922        TOTAL FREE ENERGY PREDICTED BY IDOCK:   -4.43 KCAL/MOL
REMARK 923 INTER-LIGAND FREE ENERGY PREDICTED BY IDOCK:   -4.25 KCAL/MOL
REMARK 924 INTRA-LIGAND FREE ENERGY PREDICTED BY IDOCK:   -0.18 KCAL/MOL
REMARK 927      BINDING AFFINITY PREDICTED BY RF-SCORE:    0.00 PKD
ROOT
HETATM    1  C   UNL     1     -10.869  11.504  66.657  1.00  0.00    -0.335 C  
HETATM    2  C   UNL     1     -10.005  12.143  67.747  1.00  0.00    -0.198 C  
HETATM    3  C   UNL     1      -8.757  12.762  67.111  1.00  0.00    -0.202 C  
ENDROOT
BRANCH   2   4
HETATM    4  N   UNL     1     -10.817  13.141  68.449  1.00  0.00    -0.253 NA 
HETATM    5  H   UNL     1     -11.179  12.762  69.324  1.00  0.00     0.000 HD 
BRANCH   4   6
HETATM    6  C   UNL     1     -10.116  14.406  68.684  1.00  0.00    -0.242 C  
BRANCH   6   7
HETATM    7  C   UNL     1     -10.583  15.495  67.697  1.00  0.00    -0.291 C  
HETATM    8  H   UNL     1     -12.296  16.308  67.198  1.00  0.00     0.000 HD 
HETATM    9  O   UNL     1     -12.008  15.638  67.805  1.00  0.00    -0.048 OA 
BRANCH   7  10
HETATM   10  C   UNL     1      -9.839  16.804  68.015  1.00  0.00    -0.265 C  
BRANCH  10  11
HETATM   11  O   UNL     1      -9.462  17.467  66.807  1.00  0.00    -0.257 OA 
BRANCH  11  12
HETATM   12  C   UNL     1      -8.742  18.629  66.962  1.00  0.00    -0.280 A  
HETATM   13  C   UNL     1      -9.310  19.882  67.247  1.00  0.00    -0.470 A  
HETATM   14  C   UNL     1      -8.516  21.017  67.424  1.00  0.00    -0.009 A  
HETATM   15  C   UNL     1      -7.126  20.945  67.329  1.00  0.00    -0.430 A  
HETATM   16  C   UNL     1      -6.565  19.697  67.055  1.00  0.00    -0.193 A  
HETATM   17  C   UNL     1      -7.333  18.545  66.872  1.00  0.00    -0.228 A  
HETATM   18  C   UNL     1      -6.418  17.481  66.614  1.00  0.00    -0.252 A  
HETATM   19  C   UNL     1      -5.144  17.996  66.652  1.00  0.00    -0.141 A  
HETATM   20  N   UNL     1      -5.243  19.334  66.920  1.00  0.00    -0.157 NA 
HETATM   21  H   UNL     1      -4.450  19.971  67.007  1.00  0.00     0.000 HD 
ENDBRANCH  11  12
ENDBRANCH  10  11
ENDBRANCH   7  10
ENDBRANCH   6   7
ENDBRANCH   4   6
ENDBRANCH   2   4
TORSDOF 6
ENDMDL
MODEL      290
REMARK 921   NORMALIZED FREE ENERGY PREDICTED BY IDOCK:   -2.99 KCAL/MOL
REMARK 922        TOTAL FREE ENERGY PREDICTED BY IDOCK:   -4.41 KCAL/MOL
REMARK 923 INTER-LIGAND FREE ENERGY PREDICTED BY IDOCK:   -3.88 KCAL/MOL
REMARK 924 INTRA-LIGAND FREE ENERGY PREDICTED BY IDOCK:   -0.53 KCAL/MOL
REMARK 927      BINDING AFFINITY PREDICTED BY RF-SCORE:    0.00 PKD
ROOT
HETATM    1  C   UNL     1      -8.851   9.501  67.523  1.00  0.00    -0.130 C  
HETATM    2  C   UNL     1     -10.147   8.880  66.997  1.00  0.00    -0.261 C  
HETATM    3  C   UNL     1     -10.078   7.357  67.140  1.00  0.00    -0.314 C  
ENDROOT
BRANCH   2   4
HETATM    4  N   UNL     1     -11.268   9.452  67.750  1.00  0.00    -0.433 NA 
HETATM    5  H   UNL     1     -12.130   8.944  67.553  1.00  0.00     0.000 HD 
BRANCH   4   6
HETATM    6  C   UNL     1     -11.026   9.526  69.193  1.00  0.00    -0.125 C  
BRANCH   6   7
HETATM    7  C   UNL     1     -12.118  10.354  69.899  1.00  0.00    -0.181 C  
HETATM    8  H   UNL     1     -12.439  11.007  71.720  1.00  0.00     0.000 HD 
HETATM    9  O   UNL     1     -11.767  10.498  71.285  1.00  0.00    -0.306 OA 
BRANCH   7  10
HETATM   10  C   UNL     1     -12.251  11.712  69.186  1.00  0.00    -0.137 C  
BRANCH  10  11
HETATM   11  O   UNL     1     -11.064  12.486  69.368  1.00  0.00    -0.188 OA 
BRANCH  11  12
HETATM   12  C   UNL     1     -11.256  13.826  69.612  1.00  0.00    -0.115 A  
HETATM   13  C   UNL     1     -11.564  14.367  70.871  1.00  0.00    -0.203 A  
HETATM   14  C   UNL     1     -11.714  15.743  71.055  1.00  0.00    -0.462 A  
HETATM   15  C   UNL     1     -11.558  16.633  69.991  1.00  0.00     0.387 A  
HETATM   16  C   UNL     1     -11.242  16.093  68.744  1.00  0.00    -0.365 A  
HETATM   17  C   UNL     1     -11.087  14.721  68.530  1.00  0.00    -0.275 A  
HETATM   18  C   UNL     1     -10.771  14.557  67.148  1.00  0.00    -0.286 A  
HETATM   19  C   UNL     1     -10.736  15.803  66.568  1.00  0.00    -0.283 A  
HETATM   20  N   UNL     1     -11.020  16.723  67.539  1.00  0.00    -0.205 NA 
HETATM   21  H   UNL     1     -11.061  17.732  67.392  1.00  0.00     0.000 HD 
ENDBRANCH  11  12
ENDBRANCH  10  11
ENDBRANCH   7  10
ENDBRANCH   6   7
ENDBRANCH   4   6
ENDBRANCH   2   4
TORSDOF 6
ENDMDL
MODEL      291
REMARK 921   NORMALIZED FREE ENERGY PREDICTED BY IDOCK:   -2.98 KCAL/MOL
REMARK 922        TOTAL FREE ENERGY PREDICTED BY IDOCK:   -4.40 KCAL/MOL
REMARK 923 INTER-LIGAND FREE ENERGY PREDICTED BY IDOCK:   -3.92 KCAL/MOL
REMARK 924 INTRA-LIGAND FREE ENERGY PREDICTED BY IDOCK:   -0.48 KCAL/MOL
REMARK 927      BINDING AFFINITY PREDICTED BY RF-SCORE:    0.00 PKD
ROOT
HETATM    1  C   UNL     1     -13.436   8.904  72.387  1.00  0.00    -0.499 C  
HETATM    2  C   UNL     1     -12.558   8.813  71.137  1.00  0.00    -0.168 C  
HETATM    3  C   UNL     1     -11.162   9.356  71.453  1.00  0.00    -0.452 C  
ENDROOT
BRANCH   2   4
HETATM    4  N   UNL     1     -12.517   7.412  70.707  1.00  0.00    -0.564 NA 
HETATM    5  H   UNL     1     -12.173   7.338  69.749  1.00  0.00     0.000 HD 
BRANCH   4   6
HETATM    6  C   UNL     1     -11.746   6.547  71.603  1.00  0.00    -0.324 C  
BRANCH   6   7
HETATM    7  C   UNL     1     -10.590   5.855  70.852  1.00  0.00    -0.256 C  
HETATM    8  H   UNL     1      -9.666   4.129  70.962  1.00  0.00     0.000 HD 
HETATM    9  O   UNL     1     -10.378   4.555  71.425  1.00  0.00    -0.152 OA 
BRANCH   7  10
HETATM   10  C   UNL     1     -10.944   5.783  69.355  1.00  0.00    -0.282 C  
BRANCH  10  11
HETATM   11  O   UNL     1      -9.807   6.123  68.559  1.00  0.00    -0.130 OA 
BRANCH  11  12
HETATM   12  C   UNL     1      -9.407   7.438  68.618  1.00  0.00    -0.139 A  
HETATM   13  C   UNL     1      -9.990   8.478  67.875  1.00  0.00    -0.225 A  
HETATM   14  C   UNL     1      -9.555   9.798  68.007  1.00  0.00    -0.160 A  
HETATM   15  C   UNL     1      -8.527  10.133  68.890  1.00  0.00    -0.139 A  
HETATM   16  C   UNL     1      -7.958   9.098  69.634  1.00  0.00    -0.103 A  
HETATM   17  C   UNL     1      -8.371   7.769  69.522  1.00  0.00    -0.129 A  
HETATM   18  C   UNL     1      -7.567   7.014  70.427  1.00  0.00    -0.090 A  
HETATM   19  C   UNL     1      -6.708   7.882  71.060  1.00  0.00    -0.038 A  
HETATM   20  N   UNL     1      -6.952   9.138  70.575  1.00  0.00    -0.071 NA 
HETATM   21  H   UNL     1      -6.460   9.982  70.868  1.00  0.00     0.000 HD 
ENDBRANCH  11  12
ENDBRANCH  10  11
ENDBRANCH   7  10
ENDBRANCH   6   7
ENDBRANCH   4   6
ENDBRANCH   2   4
TORSDOF 6
ENDMDL
MODEL      292
REMARK 921   NORMALIZED FREE ENERGY PREDICTED BY IDOCK:   -2.98 KCAL/MOL
REMARK 922        TOTAL FREE ENERGY PREDICTED BY IDOCK:   -4.40 KCAL/MOL
REMARK 923 INTER-LIGAND FREE ENERGY PREDICTED BY IDOCK:   -3.81 KCAL/MOL
REMARK 924 INTRA-LIGAND FREE ENERGY PREDICTED BY IDOCK:   -0.59 KCAL/MOL
REMARK 927      BINDING AFFINITY PREDICTED BY RF-SCORE:    0.00 PKD
ROOT
HETATM    1  C   UNL     1      -6.770   8.123  72.866  1.00  0.00    -0.103 C  
HETATM    2  C   UNL     1      -6.517   6.806  72.130  1.00  0.00    -0.053 C  
HETATM    3  C   UNL     1      -5.536   5.950  72.937  1.00  0.00    -0.035 C  
ENDROOT
BRANCH   2   4
HETATM    4  N   UNL     1      -7.805   6.132  71.940  1.00  0.00    -0.101 NA 
HETATM    5  H   UNL     1      -7.693   5.119  71.988  1.00  0.00     0.000 HD 
BRANCH   4   6
HETATM    6  C   UNL     1      -8.844   6.583  72.868  1.00  0.00    -0.122 C  
BRANCH   6   7
HETATM    7  C   UNL     1     -10.195   5.902  72.569  1.00  0.00    -0.187 C  
HETATM    8  H   UNL     1     -11.522   4.885  73.593  1.00  0.00     0.000 HD 
HETATM    9  O   UNL     1     -10.690   5.304  73.777  1.00  0.00    -0.268 OA 
BRANCH   7  10
HETATM   10  C   UNL     1     -11.164   6.952  71.996  1.00  0.00    -0.257 C  
BRANCH  10  11
HETATM   11  O   UNL     1     -10.440   7.975  71.312  1.00  0.00    -0.198 OA 
BRANCH  11  12
HETATM   12  C   UNL     1     -11.174   9.075  70.933  1.00  0.00    -0.287 A  
HETATM   13  C   UNL     1     -12.377   9.474  71.539  1.00  0.00    -0.465 A  
HETATM   14  C   UNL     1     -13.055  10.622  71.126  1.00  0.00    -0.415 A  
HETATM   15  C   UNL     1     -12.557  11.419  70.094  1.00  0.00    -0.174 A  
HETATM   16  C   UNL     1     -11.357  11.026  69.501  1.00  0.00    -0.287 A  
HETATM   17  C   UNL     1     -10.657   9.883  69.893  1.00  0.00    -0.312 A  
HETATM   18  C   UNL     1      -9.495   9.812  69.067  1.00  0.00    -0.173 A  
HETATM   19  C   UNL     1      -9.510  10.892  68.217  1.00  0.00    -0.168 A  
HETATM   20  N   UNL     1     -10.637  11.619  68.487  1.00  0.00    -0.208 NA 
HETATM   21  H   UNL     1     -10.906  12.478  68.006  1.00  0.00     0.000 HD 
ENDBRANCH  11  12
ENDBRANCH  10  11
ENDBRANCH   7  10
ENDBRANCH   6   7
ENDBRANCH   4   6
ENDBRANCH   2   4
TORSDOF 6
ENDMDL
MODEL      293
REMARK 921   NORMALIZED FREE ENERGY PREDICTED BY IDOCK:   -2.94 KCAL/MOL
REMARK 922        TOTAL FREE ENERGY PREDICTED BY IDOCK:   -4.35 KCAL/MOL
REMARK 923 INTER-LIGAND FREE ENERGY PREDICTED BY IDOCK:   -4.49 KCAL/MOL
REMARK 924 INTRA-LIGAND FREE ENERGY PREDICTED BY IDOCK:    0.14 KCAL/MOL
REMARK 927      BINDING AFFINITY PREDICTED BY RF-SCORE:    0.00 PKD
ROOT
HETATM    1  C   UNL     1      -6.864  10.526  66.401  1.00  0.00    -0.119 C  
HETATM    2  C   UNL     1      -7.798   9.778  65.447  1.00  0.00    -0.122 C  
HETATM    3  C   UNL     1      -7.440   8.288  65.448  1.00  0.00    -0.085 C  
ENDROOT
BRANCH   2   4
HETATM    4  N   UNL     1      -9.179  10.011  65.880  1.00  0.00    -0.157 NA 
HETATM    5  H   UNL     1      -9.772   9.218  65.635  1.00  0.00     0.000 HD 
BRANCH   4   6
HETATM    6  C   UNL     1      -9.299  10.328  67.305  1.00  0.00    -0.149 C  
BRANCH   6   7
HETATM    7  C   UNL     1     -10.698   9.962  67.842  1.00  0.00    -0.265 C  
HETATM    8  H   UNL     1     -11.407   8.970  69.377  1.00  0.00     0.000 HD 
HETATM    9  O   UNL     1     -10.546   9.196  69.047  1.00  0.00    -0.222 OA 
BRANCH   7  10
HETATM   10  C   UNL     1     -11.497  11.258  68.070  1.00  0.00    -0.298 C  
BRANCH  10  11
HETATM   11  O   UNL     1     -11.446  12.085  66.907  1.00  0.00    -0.327 OA 
BRANCH  11  12
HETATM   12  C   UNL     1     -10.916  13.340  67.088  1.00  0.00    -0.272 A  
HETATM   13  C   UNL     1     -10.050  13.975  66.181  1.00  0.00    -0.319 A  
HETATM   14  C   UNL     1      -9.573  15.266  66.412  1.00  0.00    -0.317 A  
HETATM   15  C   UNL     1      -9.945  15.977  67.553  1.00  0.00    -0.240 A  
HETATM   16  C   UNL     1     -10.813  15.348  68.447  1.00  0.00    -0.268 A  
HETATM   17  C   UNL     1     -11.305  14.057  68.244  1.00  0.00    -0.317 A  
HETATM   18  C   UNL     1     -12.149  13.762  69.355  1.00  0.00    -0.377 A  
HETATM   19  C   UNL     1     -12.157  14.857  70.187  1.00  0.00    -0.327 A  
HETATM   20  N   UNL     1     -11.348  15.809  69.630  1.00  0.00    -0.307 NA 
HETATM   21  H   UNL     1     -11.168  16.729  70.033  1.00  0.00     0.000 HD 
ENDBRANCH  11  12
ENDBRANCH  10  11
ENDBRANCH   7  10
ENDBRANCH   6   7
ENDBRANCH   4   6
ENDBRANCH   2   4
TORSDOF 6
ENDMDL
MODEL      294
REMARK 921   NORMALIZED FREE ENERGY PREDICTED BY IDOCK:   -2.93 KCAL/MOL
REMARK 922        TOTAL FREE ENERGY PREDICTED BY IDOCK:   -4.34 KCAL/MOL
REMARK 923 INTER-LIGAND FREE ENERGY PREDICTED BY IDOCK:   -3.96 KCAL/MOL
REMARK 924 INTRA-LIGAND FREE ENERGY PREDICTED BY IDOCK:   -0.38 KCAL/MOL
REMARK 927      BINDING AFFINITY PREDICTED BY RF-SCORE:    0.00 PKD
ROOT
HETATM    1  C   UNL     1     -10.157   9.615  70.342  1.00  0.00    -0.336 C  
HETATM    2  C   UNL     1      -9.247  10.436  69.427  1.00  0.00    -0.159 C  
HETATM    3  C   UNL     1      -8.955   9.640  68.151  1.00  0.00    -0.123 C  
ENDROOT
BRANCH   2   4
HETATM    4  N   UNL     1      -9.914  11.709  69.139  1.00  0.00    -0.418 NA 
HETATM    5  H   UNL     1     -10.081  11.810  68.137  1.00  0.00     0.000 HD 
BRANCH   4   6
HETATM    6  C   UNL     1     -11.153  11.905  69.894  1.00  0.00     0.157 C  
BRANCH   6   7
HETATM    7  C   UNL     1     -11.713  13.327  69.690  1.00  0.00    -0.303 C  
HETATM    8  H   UNL     1     -12.858  14.554  70.703  1.00  0.00     0.000 HD 
HETATM    9  O   UNL     1     -12.513  13.678  70.829  1.00  0.00    -0.343 OA 
BRANCH   7  10
HETATM   10  C   UNL     1     -10.537  14.297  69.479  1.00  0.00    -0.011 C  
BRANCH  10  11
HETATM   11  O   UNL     1     -10.169  14.341  68.099  1.00  0.00    -0.222 OA 
BRANCH  11  12
HETATM   12  C   UNL     1      -9.219  15.276  67.763  1.00  0.00    -0.187 A  
HETATM   13  C   UNL     1      -7.924  14.965  67.314  1.00  0.00    -0.237 A  
HETATM   14  C   UNL     1      -7.018  15.965  66.958  1.00  0.00    -0.173 A  
HETATM   15  C   UNL     1      -7.369  17.314  67.029  1.00  0.00    -0.218 A  
HETATM   16  C   UNL     1      -8.659  17.619  67.466  1.00  0.00    -0.222 A  
HETATM   17  C   UNL     1      -9.587  16.640  67.830  1.00  0.00    -0.234 A  
HETATM   18  C   UNL     1     -10.776  17.328  68.215  1.00  0.00    -0.349 A  
HETATM   19  C   UNL     1     -10.553  18.677  68.073  1.00  0.00    -0.302 A  
HETATM   20  N   UNL     1      -9.273  18.843  67.620  1.00  0.00    -0.284 NA 
HETATM   21  H   UNL     1      -8.836  19.744  67.423  1.00  0.00     0.000 HD 
ENDBRANCH  11  12
ENDBRANCH  10  11
ENDBRANCH   7  10
ENDBRANCH   6   7
ENDBRANCH   4   6
ENDBRANCH   2   4
TORSDOF 6
ENDMDL
MODEL      295
REMARK 921   NORMALIZED FREE ENERGY PREDICTED BY IDOCK:   -2.89 KCAL/MOL
REMARK 922        TOTAL FREE ENERGY PREDICTED BY IDOCK:   -4.28 KCAL/MOL
REMARK 923 INTER-LIGAND FREE ENERGY PREDICTED BY IDOCK:   -3.56 KCAL/MOL
REMARK 924 INTRA-LIGAND FREE ENERGY PREDICTED BY IDOCK:   -0.72 KCAL/MOL
REMARK 927      BINDING AFFINITY PREDICTED BY RF-SCORE:    0.00 PKD
ROOT
HETATM    1  C   UNL     1      -8.564   7.640  67.500  1.00  0.00    -0.119 C  
HETATM    2  C   UNL     1      -9.914   7.858  68.188  1.00  0.00    -0.180 C  
HETATM    3  C   UNL     1     -10.753   6.582  68.079  1.00  0.00    -0.351 C  
ENDROOT
BRANCH   2   4
HETATM    4  N   UNL     1      -9.662   8.232  69.583  1.00  0.00    -0.172 NA 
HETATM    5  H   UNL     1      -8.660   8.276  69.769  1.00  0.00     0.000 HD 
BRANCH   4   6
HETATM    6  C   UNL     1     -10.319   9.478  69.983  1.00  0.00    -0.247 C  
BRANCH   6   7
HETATM    7  C   UNL     1     -10.972   9.344  71.373  1.00  0.00    -0.373 C  
HETATM    8  H   UNL     1     -12.669   8.660  72.077  1.00  0.00     0.000 HD 
HETATM    9  O   UNL     1     -12.267   8.743  71.221  1.00  0.00    -0.295 OA 
BRANCH   7  10
HETATM   10  C   UNL     1     -10.045   8.513  72.278  1.00  0.00    -0.316 C  
BRANCH  10  11
HETATM   11  O   UNL     1     -10.346   7.122  72.155  1.00  0.00    -0.193 OA 
BRANCH  11  12
HETATM   12  C   UNL     1      -9.332   6.257  72.493  1.00  0.00    -0.146 A  
HETATM   13  C   UNL     1      -7.966   6.521  72.294  1.00  0.00    -0.102 A  
HETATM   14  C   UNL     1      -6.984   5.611  72.691  1.00  0.00    -0.080 A  
HETATM   15  C   UNL     1      -7.325   4.407  73.307  1.00  0.00    -0.076 A  
HETATM   16  C   UNL     1      -8.682   4.153  73.513  1.00  0.00    -0.091 A  
HETATM   17  C   UNL     1      -9.686   5.043  73.126  1.00  0.00    -0.167 A  
HETATM   18  C   UNL     1     -10.928   4.445  73.497  1.00  0.00    -0.379 A  
HETATM   19  C   UNL     1     -10.657   3.236  74.094  1.00  0.00    -0.199 A  
HETATM   20  N   UNL     1      -9.299   3.070  74.100  1.00  0.00    -0.081 NA 
HETATM   21  H   UNL     1      -8.813   2.259  74.484  1.00  0.00     0.000 HD 
ENDBRANCH  11  12
ENDBRANCH  10  11
ENDBRANCH   7  10
ENDBRANCH   6   7
ENDBRANCH   4   6
ENDBRANCH   2   4
TORSDOF 6
ENDMDL
MODEL      296
REMARK 921   NORMALIZED FREE ENERGY PREDICTED BY IDOCK:   -2.87 KCAL/MOL
REMARK 922        TOTAL FREE ENERGY PREDICTED BY IDOCK:   -4.26 KCAL/MOL
REMARK 923 INTER-LIGAND FREE ENERGY PREDICTED BY IDOCK:   -3.52 KCAL/MOL
REMARK 924 INTRA-LIGAND FREE ENERGY PREDICTED BY IDOCK:   -0.73 KCAL/MOL
REMARK 927      BINDING AFFINITY PREDICTED BY RF-SCORE:    0.00 PKD
ROOT
HETATM    1  C   UNL     1      -7.404   4.346  69.590  1.00  0.00    -0.051 C  
HETATM    2  C   UNL     1      -8.920   4.189  69.726  1.00  0.00    -0.096 C  
HETATM    3  C   UNL     1      -9.421   5.054  70.887  1.00  0.00    -0.222 C  
ENDROOT
BRANCH   2   4
HETATM    4  N   UNL     1      -9.537   4.569  68.452  1.00  0.00    -0.150 NA 
HETATM    5  H   UNL     1      -9.933   5.507  68.509  1.00  0.00     0.000 HD 
BRANCH   4   6
HETATM    6  C   UNL     1      -8.630   4.458  67.307  1.00  0.00    -0.104 C  
BRANCH   6   7
HETATM    7  C   UNL     1      -9.306   4.947  66.010  1.00  0.00    -0.156 C  
HETATM    8  H   UNL     1     -11.109   4.874  65.243  1.00  0.00     0.000 HD 
HETATM    9  O   UNL     1     -10.693   4.573  66.041  1.00  0.00    -0.238 OA 
BRANCH   7  10
HETATM   10  C   UNL     1      -9.114   6.470  65.894  1.00  0.00    -0.039 C  
BRANCH  10  11
HETATM   11  O   UNL     1     -10.104   7.156  66.661  1.00  0.00    -0.209 OA 
BRANCH  11  12
HETATM   12  C   UNL     1      -9.911   8.508  66.815  1.00  0.00    -0.257 A  
HETATM   13  C   UNL     1      -9.769   9.416  65.752  1.00  0.00    -0.354 A  
HETATM   14  C   UNL     1      -9.607  10.784  65.979  1.00  0.00    -0.244 A  
HETATM   15  C   UNL     1      -9.585  11.300  67.276  1.00  0.00    -0.188 A  
HETATM   16  C   UNL     1      -9.736  10.397  68.329  1.00  0.00    -0.151 A  
HETATM   17  C   UNL     1      -9.898   9.024  68.132  1.00  0.00    -0.191 A  
HETATM   18  C   UNL     1     -10.019   8.438  69.427  1.00  0.00    -0.191 A  
HETATM   19  C   UNL     1      -9.936   9.444  70.361  1.00  0.00    -0.252 A  
HETATM   20  N   UNL     1      -9.766  10.623  69.688  1.00  0.00    -0.433 NA 
HETATM   21  H   UNL     1      -9.675  11.538  70.130  1.00  0.00     0.000 HD 
ENDBRANCH  11  12
ENDBRANCH  10  11
ENDBRANCH   7  10
ENDBRANCH   6   7
ENDBRANCH   4   6
ENDBRANCH   2   4
TORSDOF 6
ENDMDL
MODEL      297
REMARK 921   NORMALIZED FREE ENERGY PREDICTED BY IDOCK:   -2.85 KCAL/MOL
REMARK 922        TOTAL FREE ENERGY PREDICTED BY IDOCK:   -4.23 KCAL/MOL
REMARK 923 INTER-LIGAND FREE ENERGY PREDICTED BY IDOCK:   -3.47 KCAL/MOL
REMARK 924 INTRA-LIGAND FREE ENERGY PREDICTED BY IDOCK:   -0.76 KCAL/MOL
REMARK 927      BINDING AFFINITY PREDICTED BY RF-SCORE:    0.00 PKD
ROOT
HETATM    1  C   UNL     1     -10.189   7.608  70.372  1.00  0.00    -0.203 C  
HETATM    2  C   UNL     1      -8.980   7.458  69.447  1.00  0.00    -0.139 C  
HETATM    3  C   UNL     1      -8.079   6.333  69.964  1.00  0.00    -0.120 C  
ENDROOT
BRANCH   2   4
HETATM    4  N   UNL     1      -9.470   7.191  68.091  1.00  0.00    -0.132 NA 
HETATM    5  H   UNL     1     -10.229   7.829  67.850  1.00  0.00     0.000 HD 
BRANCH   4   6
HETATM    6  C   UNL     1      -8.419   7.226  67.072  1.00  0.00    -0.118 C  
BRANCH   6   7
HETATM    7  C   UNL     1      -7.554   8.496  67.205  1.00  0.00    -0.096 C  
HETATM    8  H   UNL     1      -5.716   9.008  66.753  1.00  0.00     0.000 HD 
HETATM    9  O   UNL     1      -6.249   8.226  66.671  1.00  0.00    -0.052 OA 
BRANCH   7  10
HETATM   10  C   UNL     1      -8.257   9.654  66.473  1.00  0.00    -0.119 C  
BRANCH  10  11
HETATM   11  O   UNL     1      -9.498   9.965  67.109  1.00  0.00    -0.153 OA 
BRANCH  11  12
HETATM   12  C   UNL     1      -9.715  11.295  67.379  1.00  0.00    -0.173 A  
HETATM   13  C   UNL     1      -9.078  12.354  66.710  1.00  0.00    -0.212 A  
HETATM   14  C   UNL     1      -9.369  13.686  67.011  1.00  0.00    -0.249 A  
HETATM   15  C   UNL     1     -10.311  14.013  67.988  1.00  0.00    -0.240 A  
HETATM   16  C   UNL     1     -10.949  12.959  68.643  1.00  0.00    -0.261 A  
HETATM   17  C   UNL     1     -10.677  11.618  68.364  1.00  0.00    -0.248 A  
HETATM   18  C   UNL     1     -11.513  10.844  69.223  1.00  0.00    -0.372 A  
HETATM   19  C   UNL     1     -12.262  11.711  69.983  1.00  0.00    -0.263 A  
HETATM   20  N   UNL     1     -11.915  12.985  69.625  1.00  0.00    -0.318 NA 
HETATM   21  H   UNL     1     -12.315  13.833  70.028  1.00  0.00     0.000 HD 
ENDBRANCH  11  12
ENDBRANCH  10  11
ENDBRANCH   7  10
ENDBRANCH   6   7
ENDBRANCH   4   6
ENDBRANCH   2   4
TORSDOF 6
ENDMDL
MODEL      298
REMARK 921   NORMALIZED FREE ENERGY PREDICTED BY IDOCK:   -2.84 KCAL/MOL
REMARK 922        TOTAL FREE ENERGY PREDICTED BY IDOCK:   -4.22 KCAL/MOL
REMARK 923 INTER-LIGAND FREE ENERGY PREDICTED BY IDOCK:   -3.75 KCAL/MOL
REMARK 924 INTRA-LIGAND FREE ENERGY PREDICTED BY IDOCK:   -0.46 KCAL/MOL
REMARK 927      BINDING AFFINITY PREDICTED BY RF-SCORE:    0.00 PKD
ROOT
HETATM    1  C   UNL     1      -9.696   6.493  71.200  1.00  0.00    -0.188 C  
HETATM    2  C   UNL     1      -8.737   5.721  70.289  1.00  0.00    -0.137 C  
HETATM    3  C   UNL     1      -8.651   4.265  70.758  1.00  0.00    -0.112 C  
ENDROOT
BRANCH   2   4
HETATM    4  N   UNL     1      -9.228   5.826  68.912  1.00  0.00    -0.115 NA 
HETATM    5  H   UNL     1     -10.248   5.790  68.889  1.00  0.00     0.000 HD 
BRANCH   4   6
HETATM    6  C   UNL     1      -8.736   7.010  68.204  1.00  0.00    -0.127 C  
BRANCH   6   7
HETATM    7  C   UNL     1      -7.361   7.452  68.745  1.00  0.00    -0.095 C  
HETATM    8  H   UNL     1      -5.486   7.079  68.311  1.00  0.00     0.000 HD 
HETATM    9  O   UNL     1      -6.332   6.807  67.978  1.00  0.00    -0.040 OA 
BRANCH   7  10
HETATM   10  C   UNL     1      -7.269   8.987  68.671  1.00  0.00    -0.072 C  
BRANCH  10  11
HETATM   11  O   UNL     1      -8.286   9.585  69.476  1.00  0.00    -0.120 OA 
BRANCH  11  12
HETATM   12  C   UNL     1      -9.281  10.243  68.792  1.00  0.00    -0.166 A  
HETATM   13  C   UNL     1      -9.130  10.795  67.509  1.00  0.00    -0.143 A  
HETATM   14  C   UNL     1     -10.194  11.422  66.857  1.00  0.00    -0.254 A  
HETATM   15  C   UNL     1     -11.450  11.518  67.457  1.00  0.00    -0.355 A  
HETATM   16  C   UNL     1     -11.599  10.959  68.727  1.00  0.00    -0.309 A  
HETATM   17  C   UNL     1     -10.554  10.327  69.404  1.00  0.00    -0.262 A  
HETATM   18  C   UNL     1     -11.082   9.890  70.655  1.00  0.00    -0.409 A  
HETATM   19  C   UNL     1     -12.408  10.251  70.707  1.00  0.00    -0.350 A  
HETATM   20  N   UNL     1     -12.711  10.895  69.538  1.00  0.00    -0.498 NA 
HETATM   21  H   UNL     1     -13.629  11.273  69.302  1.00  0.00     0.000 HD 
ENDBRANCH  11  12
ENDBRANCH  10  11
ENDBRANCH   7  10
ENDBRANCH   6   7
ENDBRANCH   4   6
ENDBRANCH   2   4
TORSDOF 6
ENDMDL
MODEL      299
REMARK 921   NORMALIZED FREE ENERGY PREDICTED BY IDOCK:   -2.84 KCAL/MOL
REMARK 922        TOTAL FREE ENERGY PREDICTED BY IDOCK:   -4.22 KCAL/MOL
REMARK 923 INTER-LIGAND FREE ENERGY PREDICTED BY IDOCK:   -4.17 KCAL/MOL
REMARK 924 INTRA-LIGAND FREE ENERGY PREDICTED BY IDOCK:   -0.05 KCAL/MOL
REMARK 927      BINDING AFFINITY PREDICTED BY RF-SCORE:    0.00 PKD
ROOT
HETATM    1  C   UNL     1     -11.767  15.203  71.638  1.00  0.00    -0.458 C  
HETATM    2  C   UNL     1     -13.009  14.367  71.323  1.00  0.00    -0.344 C  
HETATM    3  C   UNL     1     -14.266  15.166  71.680  1.00  0.00    -0.664 C  
ENDROOT
BRANCH   2   4
HETATM    4  N   UNL     1     -12.973  14.008  69.902  1.00  0.00    -0.227 NA 
HETATM    5  H   UNL     1     -13.872  14.197  69.459  1.00  0.00     0.000 HD 
BRANCH   4   6
HETATM    6  C   UNL     1     -11.885  14.655  69.163  1.00  0.00    -0.312 C  
BRANCH   6   7
HETATM    7  C   UNL     1     -11.942  14.301  67.663  1.00  0.00    -0.365 C  
HETATM    8  H   UNL     1     -11.888  15.295  65.974  1.00  0.00     0.000 HD 
HETATM    9  O   UNL     1     -11.852  15.512  66.897  1.00  0.00     0.079 OA 
BRANCH   7  10
HETATM   10  C   UNL     1     -10.800  13.320  67.341  1.00  0.00    -0.267 C  
BRANCH  10  11
HETATM   11  O   UNL     1      -9.821  13.951  66.514  1.00  0.00    -0.273 OA 
BRANCH  11  12
HETATM   12  C   UNL     1      -8.717  14.448  67.167  1.00  0.00    -0.226 A  
HETATM   13  C   UNL     1      -8.322  15.796  67.144  1.00  0.00    -0.231 A  
HETATM   14  C   UNL     1      -7.207  16.240  67.857  1.00  0.00    -0.145 A  
HETATM   15  C   UNL     1      -6.445  15.357  68.624  1.00  0.00    -0.094 A  
HETATM   16  C   UNL     1      -6.846  14.021  68.652  1.00  0.00    -0.103 A  
HETATM   17  C   UNL     1      -7.956  13.548  67.949  1.00  0.00    -0.162 A  
HETATM   18  C   UNL     1      -8.047  12.150  68.220  1.00  0.00    -0.166 A  
HETATM   19  C   UNL     1      -7.019  11.813  69.068  1.00  0.00    -0.107 A  
HETATM   20  N   UNL     1      -6.300  12.949  69.324  1.00  0.00    -0.103 NA 
HETATM   21  H   UNL     1      -5.478  12.995  69.926  1.00  0.00     0.000 HD 
ENDBRANCH  11  12
ENDBRANCH  10  11
ENDBRANCH   7  10
ENDBRANCH   6   7
ENDBRANCH   4   6
ENDBRANCH   2   4
TORSDOF 6
ENDMDL
MODEL      300
REMARK 921   NORMALIZED FREE ENERGY PREDICTED BY IDOCK:   -2.82 KCAL/MOL
REMARK 922        TOTAL FREE ENERGY PREDICTED BY IDOCK:   -4.19 KCAL/MOL
REMARK 923 INTER-LIGAND FREE ENERGY PREDICTED BY IDOCK:   -3.54 KCAL/MOL
REMARK 924 INTRA-LIGAND FREE ENERGY PREDICTED BY IDOCK:   -0.65 KCAL/MOL
REMARK 927      BINDING AFFINITY PREDICTED BY RF-SCORE:    0.00 PKD
ROOT
HETATM    1  C   UNL     1      -6.589   8.680  72.639  1.00  0.00    -0.045 C  
HETATM    2  C   UNL     1      -7.847   7.883  72.993  1.00  0.00    -0.131 C  
HETATM    3  C   UNL     1      -7.858   7.590  74.496  1.00  0.00    -0.212 C  
ENDROOT
BRANCH   2   4
HETATM    4  N   UNL     1      -9.016   8.662  72.576  1.00  0.00    -0.380 NA 
HETATM    5  H   UNL     1      -8.951   8.909  71.589  1.00  0.00     0.000 HD 
BRANCH   4   6
HETATM    6  C   UNL     1     -10.292   8.002  72.863  1.00  0.00    -0.327 C  
BRANCH   6   7
HETATM    7  C   UNL     1     -11.363   8.380  71.820  1.00  0.00    -0.300 C  
HETATM    8  H   UNL     1     -11.735   9.927  70.674  1.00  0.00     0.000 HD 
HETATM    9  O   UNL     1     -11.076   9.694  71.316  1.00  0.00    -0.346 OA 
BRANCH   7  10
HETATM   10  C   UNL     1     -11.369   7.316  70.707  1.00  0.00    -0.285 C  
BRANCH  10  11
HETATM   11  O   UNL     1     -10.078   7.221  70.103  1.00  0.00    -0.187 OA 
BRANCH  11  12
HETATM   12  C   UNL     1     -10.053   6.736  68.817  1.00  0.00    -0.160 A  
HETATM   13  C   UNL     1     -10.596   5.501  68.424  1.00  0.00    -0.210 A  
HETATM   14  C   UNL     1     -10.566   5.082  67.092  1.00  0.00    -0.112 A  
HETATM   15  C   UNL     1      -9.998   5.882  66.100  1.00  0.00    -0.039 A  
HETATM   16  C   UNL     1      -9.469   7.113  66.491  1.00  0.00    -0.156 A  
HETATM   17  C   UNL     1      -9.484   7.557  67.815  1.00  0.00    -0.157 A  
HETATM   18  C   UNL     1      -8.862   8.841  67.823  1.00  0.00    -0.137 A  
HETATM   19  C   UNL     1      -8.497   9.145  66.532  1.00  0.00    -0.123 A  
HETATM   20  N   UNL     1      -8.868   8.097  65.736  1.00  0.00    -0.230 NA 
HETATM   21  H   UNL     1      -8.722   8.050  64.727  1.00  0.00     0.000 HD 
ENDBRANCH  11  12
ENDBRANCH  10  11
ENDBRANCH   7  10
ENDBRANCH   6   7
ENDBRANCH   4   6
ENDBRANCH   2   4
TORSDOF 6
ENDMDL
MODEL      301
REMARK 921   NORMALIZED FREE ENERGY PREDICTED BY IDOCK:   -2.79 KCAL/MOL
REMARK 922        TOTAL FREE ENERGY PREDICTED BY IDOCK:   -4.15 KCAL/MOL
REMARK 923 INTER-LIGAND FREE ENERGY PREDICTED BY IDOCK:   -3.27 KCAL/MOL
REMARK 924 INTRA-LIGAND FREE ENERGY PREDICTED BY IDOCK:   -0.88 KCAL/MOL
REMARK 927      BINDING AFFINITY PREDICTED BY RF-SCORE:    0.00 PKD
ROOT
HETATM    1  C   UNL     1      -7.986   4.766  66.423  1.00  0.00    -0.103 C  
HETATM    2  C   UNL     1      -6.992   5.179  67.510  1.00  0.00    -0.065 C  
HETATM    3  C   UNL     1      -7.320   6.596  67.989  1.00  0.00    -0.097 C  
ENDROOT
BRANCH   2   4
HETATM    4  N   UNL     1      -7.069   4.200  68.598  1.00  0.00    -0.054 NA 
HETATM    5  H   UNL     1      -6.821   4.631  69.489  1.00  0.00     0.000 HD 
BRANCH   4   6
HETATM    6  C   UNL     1      -8.367   3.528  68.690  1.00  0.00    -0.077 C  
BRANCH   6   7
HETATM    7  C   UNL     1      -8.676   3.108  70.141  1.00  0.00    -0.070 C  
HETATM    8  H   UNL     1      -7.684   3.025  71.830  1.00  0.00     0.000 HD 
HETATM    9  O   UNL     1      -7.494   3.284  70.937  1.00  0.00    -0.037 OA 
BRANCH   7  10
HETATM   10  C   UNL     1      -9.860   3.945  70.659  1.00  0.00    -0.122 C  
BRANCH  10  11
HETATM   11  O   UNL     1      -9.788   5.277  70.148  1.00  0.00    -0.184 OA 
BRANCH  11  12
HETATM   12  C   UNL     1      -9.751   6.278  71.090  1.00  0.00    -0.175 A  
HETATM   13  C   UNL     1      -8.578   6.747  71.704  1.00  0.00    -0.125 A  
HETATM   14  C   UNL     1      -8.608   7.791  72.631  1.00  0.00    -0.191 A  
HETATM   15  C   UNL     1      -9.810   8.411  72.977  1.00  0.00    -0.152 A  
HETATM   16  C   UNL     1     -10.972   7.949  72.358  1.00  0.00    -0.325 A  
HETATM   17  C   UNL     1     -10.972   6.907  71.429  1.00  0.00    -0.270 A  
HETATM   18  C   UNL     1     -12.327   6.722  71.022  1.00  0.00    -0.370 A  
HETATM   19  C   UNL     1     -13.102   7.639  71.692  1.00  0.00    -0.353 A  
HETATM   20  N   UNL     1     -12.275   8.376  72.495  1.00  0.00    -0.500 NA 
HETATM   21  H   UNL     1     -12.579   9.133  73.108  1.00  0.00     0.000 HD 
ENDBRANCH  11  12
ENDBRANCH  10  11
ENDBRANCH   7  10
ENDBRANCH   6   7
ENDBRANCH   4   6
ENDBRANCH   2   4
TORSDOF 6
ENDMDL
MODEL      302
REMARK 921   NORMALIZED FREE ENERGY PREDICTED BY IDOCK:   -2.78 KCAL/MOL
REMARK 922        TOTAL FREE ENERGY PREDICTED BY IDOCK:   -4.13 KCAL/MOL
REMARK 923 INTER-LIGAND FREE ENERGY PREDICTED BY IDOCK:   -3.47 KCAL/MOL
REMARK 924 INTRA-LIGAND FREE ENERGY PREDICTED BY IDOCK:   -0.66 KCAL/MOL
REMARK 927      BINDING AFFINITY PREDICTED BY RF-SCORE:    0.00 PKD
ROOT
HETATM    1  C   UNL     1      -5.484   7.518  71.697  1.00  0.00    -0.035 C  
HETATM    2  C   UNL     1      -6.698   7.309  72.604  1.00  0.00    -0.063 C  
HETATM    3  C   UNL     1      -6.574   8.208  73.838  1.00  0.00    -0.138 C  
ENDROOT
BRANCH   2   4
HETATM    4  N   UNL     1      -7.907   7.605  71.829  1.00  0.00    -0.085 NA 
HETATM    5  H   UNL     1      -8.033   6.921  71.082  1.00  0.00     0.000 HD 
BRANCH   4   6
HETATM    6  C   UNL     1      -9.117   7.707  72.648  1.00  0.00    -0.157 C  
BRANCH   6   7
HETATM    7  C   UNL     1      -9.747   6.320  72.887  1.00  0.00    -0.158 C  
HETATM    8  H   UNL     1     -11.176   5.593  74.017  1.00  0.00     0.000 HD 
HETATM    9  O   UNL     1     -10.788   6.447  73.869  1.00  0.00    -0.185 OA 
BRANCH   7  10
HETATM   10  C   UNL     1     -10.273   5.775  71.547  1.00  0.00    -0.203 C  
BRANCH  10  11
HETATM   11  O   UNL     1     -11.028   6.778  70.864  1.00  0.00    -0.239 OA 
BRANCH  11  12
HETATM   12  C   UNL     1     -10.685   6.995  69.551  1.00  0.00    -0.241 A  
HETATM   13  C   UNL     1     -10.533   5.978  68.592  1.00  0.00    -0.297 A  
HETATM   14  C   UNL     1     -10.214   6.271  67.265  1.00  0.00    -0.237 A  
HETATM   15  C   UNL     1     -10.040   7.589  66.841  1.00  0.00    -0.336 A  
HETATM   16  C   UNL     1     -10.202   8.597  67.793  1.00  0.00    -0.225 A  
HETATM   17  C   UNL     1     -10.519   8.334  69.127  1.00  0.00    -0.217 A  
HETATM   18  C   UNL     1     -10.600   9.598  69.784  1.00  0.00    -0.267 A  
HETATM   19  C   UNL     1     -10.343  10.579  68.855  1.00  0.00    -0.208 A  
HETATM   20  N   UNL     1     -10.105   9.964  67.656  1.00  0.00    -0.185 NA 
HETATM   21  H   UNL     1      -9.887  10.450  66.786  1.00  0.00     0.000 HD 
ENDBRANCH  11  12
ENDBRANCH  10  11
ENDBRANCH   7  10
ENDBRANCH   6   7
ENDBRANCH   4   6
ENDBRANCH   2   4
TORSDOF 6
ENDMDL
MODEL      303
REMARK 921   NORMALIZED FREE ENERGY PREDICTED BY IDOCK:   -2.73 KCAL/MOL
REMARK 922        TOTAL FREE ENERGY PREDICTED BY IDOCK:   -4.07 KCAL/MOL
REMARK 923 INTER-LIGAND FREE ENERGY PREDICTED BY IDOCK:   -3.66 KCAL/MOL
REMARK 924 INTRA-LIGAND FREE ENERGY PREDICTED BY IDOCK:   -0.41 KCAL/MOL
REMARK 927      BINDING AFFINITY PREDICTED BY RF-SCORE:    0.00 PKD
ROOT
HETATM    1  C   UNL     1      -7.669   5.019  66.188  1.00  0.00    -0.091 C  
HETATM    2  C   UNL     1      -8.613   5.703  65.197  1.00  0.00    -0.130 C  
HETATM    3  C   UNL     1      -9.127   4.672  64.188  1.00  0.00    -0.099 C  
ENDROOT
BRANCH   2   4
HETATM    4  N   UNL     1      -9.705   6.321  65.955  1.00  0.00    -0.385 NA 
HETATM    5  H   UNL     1     -10.396   5.621  66.226  1.00  0.00     0.000 HD 
BRANCH   4   6
HETATM    6  C   UNL     1      -9.251   7.080  67.123  1.00  0.00    -0.137 C  
BRANCH   6   7
HETATM    7  C   UNL     1      -8.929   8.541  66.747  1.00  0.00    -0.146 C  
HETATM    8  H   UNL     1      -9.898  10.036  65.929  1.00  0.00     0.000 HD 
HETATM    9  O   UNL     1     -10.096   9.137  66.160  1.00  0.00    -0.290 OA 
BRANCH   7  10
HETATM   10  C   UNL     1      -8.465   9.287  68.011  1.00  0.00    -0.120 C  
BRANCH  10  11
HETATM   11  O   UNL     1      -9.451   9.184  69.040  1.00  0.00    -0.149 OA 
BRANCH  11  12
HETATM   12  C   UNL     1      -8.978   8.869  70.292  1.00  0.00    -0.183 A  
HETATM   13  C   UNL     1      -7.636   8.998  70.689  1.00  0.00    -0.125 A  
HETATM   14  C   UNL     1      -7.229   8.690  71.989  1.00  0.00    -0.074 A  
HETATM   15  C   UNL     1      -8.145   8.247  72.944  1.00  0.00    -0.211 A  
HETATM   16  C   UNL     1      -9.479   8.129  72.549  1.00  0.00    -0.269 A  
HETATM   17  C   UNL     1      -9.915   8.429  71.256  1.00  0.00    -0.261 A  
HETATM   18  C   UNL     1     -11.321   8.190  71.234  1.00  0.00    -0.300 A  
HETATM   19  C   UNL     1     -11.702   7.767  72.486  1.00  0.00    -0.339 A  
HETATM   20  N   UNL     1     -10.583   7.735  73.273  1.00  0.00    -0.350 NA 
HETATM   21  H   UNL     1     -10.568   7.458  74.255  1.00  0.00     0.000 HD 
ENDBRANCH  11  12
ENDBRANCH  10  11
ENDBRANCH   7  10
ENDBRANCH   6   7
ENDBRANCH   4   6
ENDBRANCH   2   4
TORSDOF 6
ENDMDL
MODEL      304
REMARK 921   NORMALIZED FREE ENERGY PREDICTED BY IDOCK:   -2.70 KCAL/MOL
REMARK 922        TOTAL FREE ENERGY PREDICTED BY IDOCK:   -4.03 KCAL/MOL
REMARK 923 INTER-LIGAND FREE ENERGY PREDICTED BY IDOCK:   -3.61 KCAL/MOL
REMARK 924 INTRA-LIGAND FREE ENERGY PREDICTED BY IDOCK:   -0.41 KCAL/MOL
REMARK 927      BINDING AFFINITY PREDICTED BY RF-SCORE:    0.00 PKD
ROOT
HETATM    1  C   UNL     1      -6.880   7.285  62.883  1.00  0.00    -0.054 C  
HETATM    2  C   UNL     1      -7.402   7.261  64.322  1.00  0.00    -0.086 C  
HETATM    3  C   UNL     1      -6.325   7.805  65.264  1.00  0.00    -0.038 C  
ENDROOT
BRANCH   2   4
HETATM    4  N   UNL     1      -8.633   8.056  64.376  1.00  0.00    -0.384 NA 
HETATM    5  H   UNL     1      -9.454   7.452  64.332  1.00  0.00     0.000 HD 
BRANCH   4   6
HETATM    6  C   UNL     1      -8.704   8.944  65.539  1.00  0.00    -0.183 C  
BRANCH   6   7
HETATM    7  C   UNL     1      -9.991   8.698  66.351  1.00  0.00    -0.260 C  
HETATM    8  H   UNL     1     -10.606   7.370  67.657  1.00  0.00     0.000 HD 
HETATM    9  O   UNL     1      -9.813   7.522  67.156  1.00  0.00    -0.168 OA 
BRANCH   7  10
HETATM   10  C   UNL     1     -10.290   9.947  67.199  1.00  0.00    -0.243 C  
BRANCH  10  11
HETATM   11  O   UNL     1      -9.725  11.109  66.589  1.00  0.00    -0.189 OA 
BRANCH  11  12
HETATM   12  C   UNL     1     -10.105  12.314  67.132  1.00  0.00    -0.208 A  
HETATM   13  C   UNL     1     -11.415  12.627  67.531  1.00  0.00    -0.397 A  
HETATM   14  C   UNL     1     -11.726  13.860  68.106  1.00  0.00    -0.388 A  
HETATM   15  C   UNL     1     -10.741  14.827  68.310  1.00  0.00    -0.242 A  
HETATM   16  C   UNL     1      -9.438  14.510  67.923  1.00  0.00    -0.212 A  
HETATM   17  C   UNL     1      -9.098  13.285  67.344  1.00  0.00    -0.216 A  
HETATM   18  C   UNL     1      -7.695  13.330  67.088  1.00  0.00    -0.018 A  
HETATM   19  C   UNL     1      -7.223  14.549  67.513  1.00  0.00    -0.187 A  
HETATM   20  N   UNL     1      -8.283  15.254  68.016  1.00  0.00    -0.138 NA 
HETATM   21  H   UNL     1      -8.225  16.196  68.404  1.00  0.00     0.000 HD 
ENDBRANCH  11  12
ENDBRANCH  10  11
ENDBRANCH   7  10
ENDBRANCH   6   7
ENDBRANCH   4   6
ENDBRANCH   2   4
TORSDOF 6
ENDMDL
MODEL      305
REMARK 921   NORMALIZED FREE ENERGY PREDICTED BY IDOCK:   -2.69 KCAL/MOL
REMARK 922        TOTAL FREE ENERGY PREDICTED BY IDOCK:   -4.01 KCAL/MOL
REMARK 923 INTER-LIGAND FREE ENERGY PREDICTED BY IDOCK:   -3.55 KCAL/MOL
REMARK 924 INTRA-LIGAND FREE ENERGY PREDICTED BY IDOCK:   -0.46 KCAL/MOL
REMARK 927      BINDING AFFINITY PREDICTED BY RF-SCORE:    0.00 PKD
ROOT
HETATM    1  C   UNL     1     -12.111  10.857  70.100  1.00  0.00    -0.431 C  
HETATM    2  C   UNL     1     -11.893  10.269  71.496  1.00  0.00    -0.204 C  
HETATM    3  C   UNL     1     -13.249  10.010  72.158  1.00  0.00    -0.489 C  
ENDROOT
BRANCH   2   4
HETATM    4  N   UNL     1     -11.106   9.040  71.358  1.00  0.00    -0.300 NA 
HETATM    5  H   UNL     1     -11.631   8.331  70.845  1.00  0.00     0.000 HD 
BRANCH   4   6
HETATM    6  C   UNL     1      -9.791   9.252  70.749  1.00  0.00    -0.283 C  
BRANCH   6   7
HETATM    7  C   UNL     1      -9.386   8.057  69.863  1.00  0.00    -0.156 C  
HETATM    8  H   UNL     1      -7.840   6.858  69.727  1.00  0.00     0.000 HD 
HETATM    9  O   UNL     1      -8.090   7.594  70.272  1.00  0.00    -0.110 OA 
BRANCH   7  10
HETATM   10  C   UNL     1     -10.462   6.963  69.985  1.00  0.00    -0.207 C  
BRANCH  10  11
HETATM   11  O   UNL     1     -10.547   6.211  68.773  1.00  0.00    -0.213 OA 
BRANCH  11  12
HETATM   12  C   UNL     1      -9.810   5.051  68.735  1.00  0.00    -0.168 A  
HETATM   13  C   UNL     1      -9.800   4.084  69.754  1.00  0.00    -0.173 A  
HETATM   14  C   UNL     1      -9.053   2.911  69.637  1.00  0.00    -0.197 A  
HETATM   15  C   UNL     1      -8.290   2.654  68.497  1.00  0.00    -0.086 A  
HETATM   16  C   UNL     1      -8.310   3.612  67.482  1.00  0.00    -0.094 A  
HETATM   17  C   UNL     1      -9.047   4.795  67.572  1.00  0.00    -0.129 A  
HETATM   18  C   UNL     1      -8.820   5.511  66.359  1.00  0.00    -0.126 A  
HETATM   19  C   UNL     1      -7.975   4.762  65.574  1.00  0.00    -0.095 A  
HETATM   20  N   UNL     1      -7.674   3.617  66.260  1.00  0.00    -0.087 NA 
HETATM   21  H   UNL     1      -7.065   2.874  65.916  1.00  0.00     0.000 HD 
ENDBRANCH  11  12
ENDBRANCH  10  11
ENDBRANCH   7  10
ENDBRANCH   6   7
ENDBRANCH   4   6
ENDBRANCH   2   4
TORSDOF 6
ENDMDL
MODEL      306
REMARK 921   NORMALIZED FREE ENERGY PREDICTED BY IDOCK:   -2.68 KCAL/MOL
REMARK 922        TOTAL FREE ENERGY PREDICTED BY IDOCK:   -4.00 KCAL/MOL
REMARK 923 INTER-LIGAND FREE ENERGY PREDICTED BY IDOCK:   -3.43 KCAL/MOL
REMARK 924 INTRA-LIGAND FREE ENERGY PREDICTED BY IDOCK:   -0.58 KCAL/MOL
REMARK 927      BINDING AFFINITY PREDICTED BY RF-SCORE:    0.00 PKD
ROOT
HETATM    1  C   UNL     1     -11.503   9.965  71.063  1.00  0.00    -0.466 C  
HETATM    2  C   UNL     1     -11.125   9.585  69.630  1.00  0.00    -0.171 C  
HETATM    3  C   UNL     1      -9.862  10.346  69.216  1.00  0.00    -0.243 C  
ENDROOT
BRANCH   2   4
HETATM    4  N   UNL     1     -10.933   8.132  69.576  1.00  0.00    -0.426 NA 
HETATM    5  H   UNL     1     -10.497   7.858  68.695  1.00  0.00     0.000 HD 
BRANCH   4   6
HETATM    6  C   UNL     1     -10.180   7.599  70.714  1.00  0.00    -0.201 C  
BRANCH   6   7
HETATM    7  C   UNL     1     -10.600   6.150  71.031  1.00  0.00    -0.246 C  
HETATM    8  H   UNL     1     -12.181   5.270  71.787  1.00  0.00     0.000 HD 
HETATM    9  O   UNL     1     -11.922   6.162  71.591  1.00  0.00    -0.268 OA 
BRANCH   7  10
HETATM   10  C   UNL     1     -10.520   5.317  69.739  1.00  0.00    -0.269 C  
BRANCH  10  11
HETATM   11  O   UNL     1      -9.327   5.630  69.019  1.00  0.00    -0.120 OA 
BRANCH  11  12
HETATM   12  C   UNL     1      -9.249   5.124  67.742  1.00  0.00    -0.115 A  
HETATM   13  C   UNL     1      -9.422   5.886  66.575  1.00  0.00    -0.171 A  
HETATM   14  C   UNL     1      -9.297   5.315  65.307  1.00  0.00    -0.004 A  
HETATM   15  C   UNL     1      -8.990   3.962  65.155  1.00  0.00    -0.132 A  
HETATM   16  C   UNL     1      -8.809   3.210  66.316  1.00  0.00    -0.142 A  
HETATM   17  C   UNL     1      -8.929   3.754  67.597  1.00  0.00    -0.158 A  
HETATM   18  C   UNL     1      -8.677   2.692  68.517  1.00  0.00    -0.132 A  
HETATM   19  C   UNL     1      -8.409   1.555  67.792  1.00  0.00    -0.066 A  
HETATM   20  N   UNL     1      -8.490   1.878  66.465  1.00  0.00    -0.095 NA 
HETATM   21  H   UNL     1      -8.337   1.225  65.696  1.00  0.00     0.000 HD 
ENDBRANCH  11  12
ENDBRANCH  10  11
ENDBRANCH   7  10
ENDBRANCH   6   7
ENDBRANCH   4   6
ENDBRANCH   2   4
TORSDOF 6
ENDMDL
MODEL      307
REMARK 921   NORMALIZED FREE ENERGY PREDICTED BY IDOCK:   -2.68 KCAL/MOL
REMARK 922        TOTAL FREE ENERGY PREDICTED BY IDOCK:   -4.00 KCAL/MOL
REMARK 923 INTER-LIGAND FREE ENERGY PREDICTED BY IDOCK:   -3.51 KCAL/MOL
REMARK 924 INTRA-LIGAND FREE ENERGY PREDICTED BY IDOCK:   -0.49 KCAL/MOL
REMARK 927      BINDING AFFINITY PREDICTED BY RF-SCORE:    0.00 PKD
ROOT
HETATM    1  C   UNL     1     -11.456  10.614  69.455  1.00  0.00    -0.356 C  
HETATM    2  C   UNL     1     -10.549   9.568  70.108  1.00  0.00    -0.254 C  
HETATM    3  C   UNL     1     -11.154   9.133  71.446  1.00  0.00    -0.415 C  
ENDROOT
BRANCH   2   4
HETATM    4  N   UNL     1     -10.404   8.443  69.179  1.00  0.00    -0.219 NA 
HETATM    5  H   UNL     1     -11.231   8.353  68.589  1.00  0.00     0.000 HD 
BRANCH   4   6
HETATM    6  C   UNL     1      -9.189   8.512  68.363  1.00  0.00    -0.135 C  
BRANCH   6   7
HETATM    7  C   UNL     1      -9.529   8.553  66.859  1.00  0.00    -0.183 C  
HETATM    8  H   UNL     1      -9.882   9.948  65.528  1.00  0.00     0.000 HD 
HETATM    9  O   UNL     1      -9.673   9.923  66.454  1.00  0.00    -0.186 OA 
BRANCH   7  10
HETATM   10  C   UNL     1      -8.419   7.826  66.080  1.00  0.00    -0.139 C  
BRANCH  10  11
HETATM   11  O   UNL     1      -8.081   6.597  66.725  1.00  0.00    -0.110 OA 
BRANCH  11  12
HETATM   12  C   UNL     1      -8.512   5.453  66.096  1.00  0.00    -0.120 A  
HETATM   13  C   UNL     1      -8.578   5.290  64.702  1.00  0.00    -0.125 A  
HETATM   14  C   UNL     1      -8.995   4.088  64.129  1.00  0.00    -0.135 A  
HETATM   15  C   UNL     1      -9.358   2.999  64.923  1.00  0.00    -0.147 A  
HETATM   16  C   UNL     1      -9.281   3.160  66.307  1.00  0.00    -0.130 A  
HETATM   17  C   UNL     1      -8.869   4.351  66.909  1.00  0.00    -0.114 A  
HETATM   18  C   UNL     1      -8.920   4.135  68.318  1.00  0.00    -0.154 A  
HETATM   19  C   UNL     1      -9.345   2.846  68.537  1.00  0.00    -0.187 A  
HETATM   20  N   UNL     1      -9.560   2.266  67.317  1.00  0.00    -0.406 NA 
HETATM   21  H   UNL     1      -9.880   1.307  67.176  1.00  0.00     0.000 HD 
ENDBRANCH  11  12
ENDBRANCH  10  11
ENDBRANCH   7  10
ENDBRANCH   6   7
ENDBRANCH   4   6
ENDBRANCH   2   4
TORSDOF 6
ENDMDL
MODEL      308
REMARK 921   NORMALIZED FREE ENERGY PREDICTED BY IDOCK:   -2.65 KCAL/MOL
REMARK 922        TOTAL FREE ENERGY PREDICTED BY IDOCK:   -3.95 KCAL/MOL
REMARK 923 INTER-LIGAND FREE ENERGY PREDICTED BY IDOCK:   -3.48 KCAL/MOL
REMARK 924 INTRA-LIGAND FREE ENERGY PREDICTED BY IDOCK:   -0.48 KCAL/MOL
REMARK 927      BINDING AFFINITY PREDICTED BY RF-SCORE:    0.00 PKD
ROOT
HETATM    1  C   UNL     1     -10.972   9.326  70.838  1.00  0.00    -0.368 C  
HETATM    2  C   UNL     1     -10.870  10.091  69.516  1.00  0.00    -0.253 C  
HETATM    3  C   UNL     1     -11.001   9.110  68.348  1.00  0.00    -0.001 C  
ENDROOT
BRANCH   2   4
HETATM    4  N   UNL     1     -11.922  11.113  69.496  1.00  0.00    -0.337 NA 
HETATM    5  H   UNL     1     -12.838  10.684  69.363  1.00  0.00     0.000 HD 
BRANCH   4   6
HETATM    6  C   UNL     1     -11.921  11.977  70.679  1.00  0.00    -0.160 C  
BRANCH   6   7
HETATM    7  C   UNL     1     -12.321  13.421  70.314  1.00  0.00    -0.284 C  
HETATM    8  H   UNL     1     -13.301  14.878  71.187  1.00  0.00     0.000 HD 
HETATM    9  O   UNL     1     -13.054  13.989  71.411  1.00  0.00    -0.331 OA 
BRANCH   7  10
HETATM   10  C   UNL     1     -11.048  14.221  69.986  1.00  0.00    -0.023 C  
BRANCH  10  11
HETATM   11  O   UNL     1     -10.805  14.213  68.578  1.00  0.00    -0.237 OA 
BRANCH  11  12
HETATM   12  C   UNL     1      -9.525  13.890  68.195  1.00  0.00    -0.207 A  
HETATM   13  C   UNL     1      -9.175  12.716  67.506  1.00  0.00    -0.190 A  
HETATM   14  C   UNL     1      -7.858  12.465  67.117  1.00  0.00    -0.138 A  
HETATM   15  C   UNL     1      -6.839  13.378  67.395  1.00  0.00    -0.081 A  
HETATM   16  C   UNL     1      -7.192  14.547  68.069  1.00  0.00    -0.142 A  
HETATM   17  C   UNL     1      -8.500  14.825  68.472  1.00  0.00    -0.159 A  
HETATM   18  C   UNL     1      -8.467  16.094  69.123  1.00  0.00    -0.239 A  
HETATM   19  C   UNL     1      -7.171  16.553  69.096  1.00  0.00    -0.226 A  
HETATM   20  N   UNL     1      -6.409  15.613  68.457  1.00  0.00    -0.101 NA 
HETATM   21  H   UNL     1      -5.405  15.690  68.292  1.00  0.00     0.000 HD 
ENDBRANCH  11  12
ENDBRANCH  10  11
ENDBRANCH   7  10
ENDBRANCH   6   7
ENDBRANCH   4   6
ENDBRANCH   2   4
TORSDOF 6
ENDMDL
MODEL      309
REMARK 921   NORMALIZED FREE ENERGY PREDICTED BY IDOCK:   -2.64 KCAL/MOL
REMARK 922        TOTAL FREE ENERGY PREDICTED BY IDOCK:   -3.94 KCAL/MOL
REMARK 923 INTER-LIGAND FREE ENERGY PREDICTED BY IDOCK:   -3.58 KCAL/MOL
REMARK 924 INTRA-LIGAND FREE ENERGY PREDICTED BY IDOCK:   -0.36 KCAL/MOL
REMARK 927      BINDING AFFINITY PREDICTED BY RF-SCORE:    0.00 PKD
ROOT
HETATM    1  C   UNL     1     -10.151  17.061  67.630  1.00  0.00    -0.298 C  
HETATM    2  C   UNL     1     -10.253  15.666  68.252  1.00  0.00    -0.223 C  
HETATM    3  C   UNL     1     -11.724  15.333  68.518  1.00  0.00    -0.352 C  
ENDROOT
BRANCH   2   4
HETATM    4  N   UNL     1      -9.630  14.708  67.335  1.00  0.00    -0.212 NA 
HETATM    5  H   UNL     1      -9.079  14.021  67.850  1.00  0.00     0.000 HD 
BRANCH   4   6
HETATM    6  C   UNL     1     -10.585  14.044  66.445  1.00  0.00    -0.280 C  
BRANCH   6   7
HETATM    7  C   UNL     1     -10.154  12.594  66.145  1.00  0.00    -0.257 C  
HETATM    8  H   UNL     1      -9.758  11.541  64.540  1.00  0.00     0.000 HD 
HETATM    9  O   UNL     1     -10.023  12.433  64.724  1.00  0.00    -0.251 OA 
BRANCH   7  10
HETATM   10  C   UNL     1      -8.838  12.304  66.890  1.00  0.00    -0.207 C  
BRANCH  10  11
HETATM   11  O   UNL     1      -8.048  11.366  66.156  1.00  0.00    -0.123 OA 
BRANCH  11  12
HETATM   12  C   UNL     1      -8.421  10.048  66.275  1.00  0.00    -0.130 A  
HETATM   13  C   UNL     1      -8.940   9.473  67.447  1.00  0.00    -0.141 A  
HETATM   14  C   UNL     1      -9.330   8.133  67.490  1.00  0.00    -0.165 A  
HETATM   15  C   UNL     1      -9.223   7.317  66.363  1.00  0.00    -0.201 A  
HETATM   16  C   UNL     1      -8.718   7.894  65.197  1.00  0.00     0.049 A  
HETATM   17  C   UNL     1      -8.318   9.230  65.125  1.00  0.00    -0.155 A  
HETATM   18  C   UNL     1      -7.864   9.450  63.791  1.00  0.00    -0.132 A  
HETATM   19  C   UNL     1      -8.000   8.272  63.095  1.00  0.00    -0.158 A  
HETATM   20  N   UNL     1      -8.517   7.339  63.952  1.00  0.00    -0.347 NA 
HETATM   21  H   UNL     1      -8.724   6.371  63.704  1.00  0.00     0.000 HD 
ENDBRANCH  11  12
ENDBRANCH  10  11
ENDBRANCH   7  10
ENDBRANCH   6   7
ENDBRANCH   4   6
ENDBRANCH   2   4
TORSDOF 6
ENDMDL
MODEL      310
REMARK 921   NORMALIZED FREE ENERGY PREDICTED BY IDOCK:   -2.63 KCAL/MOL
REMARK 922        TOTAL FREE ENERGY PREDICTED BY IDOCK:   -3.93 KCAL/MOL
REMARK 923 INTER-LIGAND FREE ENERGY PREDICTED BY IDOCK:   -3.54 KCAL/MOL
REMARK 924 INTRA-LIGAND FREE ENERGY PREDICTED BY IDOCK:   -0.39 KCAL/MOL
REMARK 927      BINDING AFFINITY PREDICTED BY RF-SCORE:    0.00 PKD
ROOT
HETATM    1  C   UNL     1      -6.970   8.565  65.150  1.00  0.00    -0.075 C  
HETATM    2  C   UNL     1      -6.721   7.276  65.936  1.00  0.00    -0.053 C  
HETATM    3  C   UNL     1      -5.213   7.060  66.096  1.00  0.00    -0.023 C  
ENDROOT
BRANCH   2   4
HETATM    4  N   UNL     1      -7.399   7.391  67.231  1.00  0.00    -0.095 NA 
HETATM    5  H   UNL     1      -6.913   8.054  67.835  1.00  0.00     0.000 HD 
BRANCH   4   6
HETATM    6  C   UNL     1      -8.818   7.736  67.119  1.00  0.00    -0.125 C  
BRANCH   6   7
HETATM    7  C   UNL     1      -9.715   6.537  67.489  1.00  0.00    -0.122 C  
HETATM    8  H   UNL     1     -10.229   4.844  66.645  1.00  0.00     0.000 HD 
HETATM    9  O   UNL     1      -9.677   5.582  66.417  1.00  0.00    -0.152 OA 
BRANCH   7  10
HETATM   10  C   UNL     1      -9.222   5.941  68.820  1.00  0.00    -0.115 C  
BRANCH  10  11
HETATM   11  O   UNL     1     -10.312   5.791  69.731  1.00  0.00    -0.213 OA 
BRANCH  11  12
HETATM   12  C   UNL     1     -10.214   6.503  70.904  1.00  0.00    -0.190 A  
HETATM   13  C   UNL     1      -9.029   6.657  71.642  1.00  0.00    -0.141 A  
HETATM   14  C   UNL     1      -8.992   7.422  72.809  1.00  0.00    -0.179 A  
HETATM   15  C   UNL     1     -10.136   8.067  73.283  1.00  0.00    -0.225 A  
HETATM   16  C   UNL     1     -11.310   7.919  72.542  1.00  0.00    -0.390 A  
HETATM   17  C   UNL     1     -11.376   7.160  71.372  1.00  0.00    -0.288 A  
HETATM   18  C   UNL     1     -12.722   7.246  70.905  1.00  0.00    -0.202 A  
HETATM   19  C   UNL     1     -13.425   8.042  71.778  1.00  0.00    -0.341 A  
HETATM   20  N   UNL     1     -12.564   8.445  72.762  1.00  0.00    -0.613 NA 
HETATM   21  H   UNL     1     -12.815   9.048  73.545  1.00  0.00     0.000 HD 
ENDBRANCH  11  12
ENDBRANCH  10  11
ENDBRANCH   7  10
ENDBRANCH   6   7
ENDBRANCH   4   6
ENDBRANCH   2   4
TORSDOF 6
ENDMDL
MODEL      311
REMARK 921   NORMALIZED FREE ENERGY PREDICTED BY IDOCK:   -2.61 KCAL/MOL
REMARK 922        TOTAL FREE ENERGY PREDICTED BY IDOCK:   -3.91 KCAL/MOL
REMARK 923 INTER-LIGAND FREE ENERGY PREDICTED BY IDOCK:   -3.43 KCAL/MOL
REMARK 924 INTRA-LIGAND FREE ENERGY PREDICTED BY IDOCK:   -0.48 KCAL/MOL
REMARK 927      BINDING AFFINITY PREDICTED BY RF-SCORE:    0.00 PKD
ROOT
HETATM    1  C   UNL     1      -6.153   4.705  70.587  1.00  0.00    -0.018 C  
HETATM    2  C   UNL     1      -6.939   4.117  69.413  1.00  0.00    -0.046 C  
HETATM    3  C   UNL     1      -8.276   3.567  69.919  1.00  0.00    -0.071 C  
ENDROOT
BRANCH   2   4
HETATM    4  N   UNL     1      -7.122   5.170  68.410  1.00  0.00    -0.061 NA 
HETATM    5  H   UNL     1      -7.755   4.860  67.673  1.00  0.00     0.000 HD 
BRANCH   4   6
HETATM    6  C   UNL     1      -7.571   6.445  68.976  1.00  0.00    -0.100 C  
BRANCH   6   7
HETATM    7  C   UNL     1      -8.835   6.959  68.259  1.00  0.00    -0.122 C  
HETATM    8  H   UNL     1     -10.138   6.225  66.991  1.00  0.00     0.000 HD 
HETATM    9  O   UNL     1      -9.360   5.908  67.433  1.00  0.00    -0.112 OA 
BRANCH   7  10
HETATM   10  C   UNL     1      -9.848   7.431  69.318  1.00  0.00    -0.168 C  
BRANCH  10  11
HETATM   11  O   UNL     1      -9.372   8.608  69.972  1.00  0.00    -0.156 OA 
BRANCH  11  12
HETATM   12  C   UNL     1     -10.259   9.658  70.033  1.00  0.00    -0.255 A  
HETATM   13  C   UNL     1     -11.204   9.839  71.057  1.00  0.00    -0.451 A  
HETATM   14  C   UNL     1     -12.054  10.947  71.076  1.00  0.00    -0.425 A  
HETATM   15  C   UNL     1     -11.989  11.920  70.077  1.00  0.00    -0.409 A  
HETATM   16  C   UNL     1     -11.042  11.743  69.068  1.00  0.00    -0.246 A  
HETATM   17  C   UNL     1     -10.180  10.644  69.023  1.00  0.00    -0.231 A  
HETATM   18  C   UNL     1      -9.368  10.810  67.861  1.00  0.00    -0.154 A  
HETATM   19  C   UNL     1      -9.740  11.981  67.245  1.00  0.00    -0.185 A  
HETATM   20  N   UNL     1     -10.750  12.537  67.981  1.00  0.00    -0.214 NA 
HETATM   21  H   UNL     1     -11.220  13.415  67.757  1.00  0.00     0.000 HD 
ENDBRANCH  11  12
ENDBRANCH  10  11
ENDBRANCH   7  10
ENDBRANCH   6   7
ENDBRANCH   4   6
ENDBRANCH   2   4
TORSDOF 6
ENDMDL
MODEL      312
REMARK 921   NORMALIZED FREE ENERGY PREDICTED BY IDOCK:   -2.58 KCAL/MOL
REMARK 922        TOTAL FREE ENERGY PREDICTED BY IDOCK:   -3.86 KCAL/MOL
REMARK 923 INTER-LIGAND FREE ENERGY PREDICTED BY IDOCK:   -3.38 KCAL/MOL
REMARK 924 INTRA-LIGAND FREE ENERGY PREDICTED BY IDOCK:   -0.48 KCAL/MOL
REMARK 927      BINDING AFFINITY PREDICTED BY RF-SCORE:    0.00 PKD
ROOT
HETATM    1  C   UNL     1     -10.301  10.544  65.116  1.00  0.00    -0.310 C  
HETATM    2  C   UNL     1     -10.027  11.629  64.072  1.00  0.00    -0.296 C  
HETATM    3  C   UNL     1     -11.336  12.006  63.372  1.00  0.00    -0.484 C  
ENDROOT
BRANCH   2   4
HETATM    4  N   UNL     1      -9.417  12.776  64.751  1.00  0.00    -0.305 NA 
HETATM    5  H   UNL     1      -9.885  13.642  64.487  1.00  0.00     0.000 HD 
BRANCH   4   6
HETATM    6  C   UNL     1      -9.371  12.636  66.209  1.00  0.00    -0.160 C  
BRANCH   6   7
HETATM    7  C   UNL     1      -7.930  12.779  66.738  1.00  0.00     0.167 C  
HETATM    8  H   UNL     1      -7.011  13.915  68.045  1.00  0.00     0.000 HD 
HETATM    9  O   UNL     1      -7.898  13.827  67.719  1.00  0.00    -0.140 OA 
BRANCH   7  10
HETATM   10  C   UNL     1      -7.476  11.425  67.314  1.00  0.00    -0.134 C  
BRANCH  10  11
HETATM   11  O   UNL     1      -7.855  11.317  68.687  1.00  0.00    -0.126 OA 
BRANCH  11  12
HETATM   12  C   UNL     1      -8.123  10.046  69.136  1.00  0.00    -0.126 A  
HETATM   13  C   UNL     1      -7.194   8.991  69.135  1.00  0.00    -0.067 A  
HETATM   14  C   UNL     1      -7.523   7.730  69.635  1.00  0.00    -0.090 A  
HETATM   15  C   UNL     1      -8.790   7.474  70.162  1.00  0.00    -0.147 A  
HETATM   16  C   UNL     1      -9.707   8.526  70.171  1.00  0.00    -0.170 A  
HETATM   17  C   UNL     1      -9.406   9.797  69.676  1.00  0.00    -0.237 A  
HETATM   18  C   UNL     1     -10.577  10.592  69.854  1.00  0.00    -0.261 A  
HETATM   19  C   UNL     1     -11.539   9.808  70.446  1.00  0.00    -0.258 A  
HETATM   20  N   UNL     1     -11.004   8.562  70.634  1.00  0.00    -0.236 NA 
HETATM   21  H   UNL     1     -11.495   7.775  71.057  1.00  0.00     0.000 HD 
ENDBRANCH  11  12
ENDBRANCH  10  11
ENDBRANCH   7  10
ENDBRANCH   6   7
ENDBRANCH   4   6
ENDBRANCH   2   4
TORSDOF 6
ENDMDL
MODEL      313
REMARK 921   NORMALIZED FREE ENERGY PREDICTED BY IDOCK:   -2.57 KCAL/MOL
REMARK 922        TOTAL FREE ENERGY PREDICTED BY IDOCK:   -3.85 KCAL/MOL
REMARK 923 INTER-LIGAND FREE ENERGY PREDICTED BY IDOCK:   -3.10 KCAL/MOL
REMARK 924 INTRA-LIGAND FREE ENERGY PREDICTED BY IDOCK:   -0.75 KCAL/MOL
REMARK 927      BINDING AFFINITY PREDICTED BY RF-SCORE:    0.00 PKD
ROOT
HETATM    1  C   UNL     1      -9.580  14.028  67.131  1.00  0.00    -0.245 C  
HETATM    2  C   UNL     1      -8.071  13.944  67.368  1.00  0.00    -0.178 C  
HETATM    3  C   UNL     1      -7.483  15.358  67.420  1.00  0.00    -0.239 C  
ENDROOT
BRANCH   2   4
HETATM    4  N   UNL     1      -7.843  13.209  68.616  1.00  0.00    -0.273 NA 
HETATM    5  H   UNL     1      -7.688  12.218  68.427  1.00  0.00     0.000 HD 
BRANCH   4   6
HETATM    6  C   UNL     1      -6.755  13.758  69.428  1.00  0.00    -0.079 C  
BRANCH   6   7
HETATM    7  C   UNL     1      -5.684  12.689  69.724  1.00  0.00    -0.112 C  
HETATM    8  H   UNL     1      -4.700  12.074  71.305  1.00  0.00     0.000 HD 
HETATM    9  O   UNL     1      -5.360  12.732  71.122  1.00  0.00    -0.169 OA 
BRANCH   7  10
HETATM   10  C   UNL     1      -6.224  11.313  69.292  1.00  0.00    -0.073 C  
BRANCH  10  11
HETATM   11  O   UNL     1      -7.264  10.888  70.174  1.00  0.00    -0.121 OA 
BRANCH  11  12
HETATM   12  C   UNL     1      -7.881   9.704  69.844  1.00  0.00    -0.152 A  
HETATM   13  C   UNL     1      -7.249   8.450  69.854  1.00  0.00    -0.055 A  
HETATM   14  C   UNL     1      -7.944   7.281  69.539  1.00  0.00    -0.127 A  
HETATM   15  C   UNL     1      -9.299   7.318  69.207  1.00  0.00    -0.154 A  
HETATM   16  C   UNL     1      -9.928   8.564  69.209  1.00  0.00    -0.195 A  
HETATM   17  C   UNL     1      -9.257   9.749  69.518  1.00  0.00    -0.226 A  
HETATM   18  C   UNL     1     -10.217  10.800  69.415  1.00  0.00    -0.187 A  
HETATM   19  C   UNL     1     -11.423  10.243  69.060  1.00  0.00    -0.137 A  
HETATM   20  N   UNL     1     -11.238   8.892  68.939  1.00  0.00    -0.375 NA 
HETATM   21  H   UNL     1     -11.967   8.225  68.685  1.00  0.00     0.000 HD 
ENDBRANCH  11  12
ENDBRANCH  10  11
ENDBRANCH   7  10
ENDBRANCH   6   7
ENDBRANCH   4   6
ENDBRANCH   2   4
TORSDOF 6
ENDMDL
MODEL      314
REMARK 921   NORMALIZED FREE ENERGY PREDICTED BY IDOCK:   -2.55 KCAL/MOL
REMARK 922        TOTAL FREE ENERGY PREDICTED BY IDOCK:   -3.82 KCAL/MOL
REMARK 923 INTER-LIGAND FREE ENERGY PREDICTED BY IDOCK:   -3.22 KCAL/MOL
REMARK 924 INTRA-LIGAND FREE ENERGY PREDICTED BY IDOCK:   -0.61 KCAL/MOL
REMARK 927      BINDING AFFINITY PREDICTED BY RF-SCORE:    0.00 PKD
ROOT
HETATM    1  C   UNL     1     -12.410   8.609  72.208  1.00  0.00    -0.449 C  
HETATM    2  C   UNL     1     -11.159   9.136  71.502  1.00  0.00    -0.365 C  
HETATM    3  C   UNL     1     -10.062   8.068  71.545  1.00  0.00    -0.228 C  
ENDROOT
BRANCH   2   4
HETATM    4  N   UNL     1     -11.524   9.492  70.127  1.00  0.00    -0.386 NA 
HETATM    5  H   UNL     1     -12.391   9.030  69.853  1.00  0.00     0.000 HD 
BRANCH   4   6
HETATM    6  C   UNL     1     -11.613  10.936  69.901  1.00  0.00    -0.331 C  
BRANCH   6   7
HETATM    7  C   UNL     1     -10.751  11.367  68.697  1.00  0.00    -0.206 C  
HETATM    8  H   UNL     1      -9.790  12.988  68.155  1.00  0.00     0.000 HD 
HETATM    9  O   UNL     1     -10.320  12.722  68.896  1.00  0.00    -0.159 OA 
BRANCH   7  10
HETATM   10  C   UNL     1      -9.568  10.392  68.560  1.00  0.00    -0.158 C  
BRANCH  10  11
HETATM   11  O   UNL     1      -9.719   9.587  67.390  1.00  0.00    -0.147 OA 
BRANCH  11  12
HETATM   12  C   UNL     1      -9.042   8.391  67.395  1.00  0.00    -0.137 A  
HETATM   13  C   UNL     1      -9.639   7.142  67.638  1.00  0.00    -0.152 A  
HETATM   14  C   UNL     1      -8.897   5.960  67.596  1.00  0.00    -0.106 A  
HETATM   15  C   UNL     1      -7.532   5.977  67.305  1.00  0.00    -0.081 A  
HETATM   16  C   UNL     1      -6.945   7.218  67.054  1.00  0.00    -0.081 A  
HETATM   17  C   UNL     1      -7.661   8.416  67.090  1.00  0.00    -0.093 A  
HETATM   18  C   UNL     1      -6.733   9.456  66.786  1.00  0.00    -0.072 A  
HETATM   19  C   UNL     1      -5.503   8.880  66.570  1.00  0.00    -0.039 A  
HETATM   20  N   UNL     1      -5.641   7.528  66.733  1.00  0.00    -0.027 NA 
HETATM   21  H   UNL     1      -4.887   6.849  66.631  1.00  0.00     0.000 HD 
ENDBRANCH  11  12
ENDBRANCH  10  11
ENDBRANCH   7  10
ENDBRANCH   6   7
ENDBRANCH   4   6
ENDBRANCH   2   4
TORSDOF 6
ENDMDL
MODEL      315
REMARK 921   NORMALIZED FREE ENERGY PREDICTED BY IDOCK:   -2.55 KCAL/MOL
REMARK 922        TOTAL FREE ENERGY PREDICTED BY IDOCK:   -3.82 KCAL/MOL
REMARK 923 INTER-LIGAND FREE ENERGY PREDICTED BY IDOCK:   -3.11 KCAL/MOL
REMARK 924 INTRA-LIGAND FREE ENERGY PREDICTED BY IDOCK:   -0.71 KCAL/MOL
REMARK 927      BINDING AFFINITY PREDICTED BY RF-SCORE:    0.00 PKD
ROOT
HETATM    1  C   UNL     1      -6.830   8.357  71.962  1.00  0.00    -0.095 C  
HETATM    2  C   UNL     1      -8.192   8.060  72.594  1.00  0.00    -0.150 C  
HETATM    3  C   UNL     1      -8.117   8.303  74.104  1.00  0.00    -0.284 C  
ENDROOT
BRANCH   2   4
HETATM    4  N   UNL     1      -9.193   8.915  71.949  1.00  0.00    -0.366 NA 
HETATM    5  H   UNL     1      -9.071   8.911  70.936  1.00  0.00     0.000 HD 
BRANCH   4   6
HETATM    6  C   UNL     1     -10.572   8.573  72.306  1.00  0.00    -0.338 C  
BRANCH   6   7
HETATM    7  C   UNL     1     -11.349   8.042  71.085  1.00  0.00    -0.266 C  
HETATM    8  H   UNL     1     -11.213   8.219  69.137  1.00  0.00     0.000 HD 
HETATM    9  O   UNL     1     -10.735   8.546  69.889  1.00  0.00    -0.228 OA 
BRANCH   7  10
HETATM   10  C   UNL     1     -11.358   6.503  71.133  1.00  0.00    -0.314 C  
BRANCH  10  11
HETATM   11  O   UNL     1     -10.023   6.000  71.206  1.00  0.00    -0.179 OA 
BRANCH  11  12
HETATM   12  C   UNL     1      -9.865   4.818  71.890  1.00  0.00    -0.176 A  
HETATM   13  C   UNL     1     -10.898   4.150  72.569  1.00  0.00    -0.036 A  
HETATM   14  C   UNL     1     -10.676   2.934  73.217  1.00  0.00    -0.276 A  
HETATM   15  C   UNL     1      -9.416   2.334  73.209  1.00  0.00    -0.111 A  
HETATM   16  C   UNL     1      -8.395   2.994  72.524  1.00  0.00    -0.071 A  
HETATM   17  C   UNL     1      -8.587   4.212  71.868  1.00  0.00    -0.117 A  
HETATM   18  C   UNL     1      -7.331   4.569  71.294  1.00  0.00    -0.056 A  
HETATM   19  C   UNL     1      -6.426   3.581  71.600  1.00  0.00    -0.015 A  
HETATM   20  N   UNL     1      -7.078   2.634  72.342  1.00  0.00    -0.030 NA 
HETATM   21  H   UNL     1      -6.649   1.783  72.708  1.00  0.00     0.000 HD 
ENDBRANCH  11  12
ENDBRANCH  10  11
ENDBRANCH   7  10
ENDBRANCH   6   7
ENDBRANCH   4   6
ENDBRANCH   2   4
TORSDOF 6
ENDMDL
MODEL      316
REMARK 921   NORMALIZED FREE ENERGY PREDICTED BY IDOCK:   -2.53 KCAL/MOL
REMARK 922        TOTAL FREE ENERGY PREDICTED BY IDOCK:   -3.79 KCAL/MOL
REMARK 923 INTER-LIGAND FREE ENERGY PREDICTED BY IDOCK:   -3.27 KCAL/MOL
REMARK 924 INTRA-LIGAND FREE ENERGY PREDICTED BY IDOCK:   -0.53 KCAL/MOL
REMARK 927      BINDING AFFINITY PREDICTED BY RF-SCORE:    0.00 PKD
ROOT
HETATM    1  C   UNL     1     -11.132  11.156  65.788  1.00  0.00    -0.084 C  
HETATM    2  C   UNL     1     -10.357  12.101  64.866  1.00  0.00    -0.289 C  
HETATM    3  C   UNL     1     -11.330  12.781  63.899  1.00  0.00    -0.498 C  
ENDROOT
BRANCH   2   4
HETATM    4  N   UNL     1      -9.644  13.073  65.701  1.00  0.00    -0.474 NA 
HETATM    5  H   UNL     1     -10.164  13.949  65.759  1.00  0.00     0.000 HD 
BRANCH   4   6
HETATM    6  C   UNL     1      -9.323  12.571  67.039  1.00  0.00    -0.210 C  
BRANCH   6   7
HETATM    7  C   UNL     1      -7.798  12.459  67.242  1.00  0.00    -0.166 C  
HETATM    8  H   UNL     1      -6.496  13.112  68.555  1.00  0.00     0.000 HD 
HETATM    9  O   UNL     1      -7.435  13.180  68.430  1.00  0.00    -0.111 OA 
BRANCH   7  10
HETATM   10  C   UNL     1      -7.416  10.970  67.323  1.00  0.00    -0.107 C  
BRANCH  10  11
HETATM   11  O   UNL     1      -8.590  10.158  67.377  1.00  0.00    -0.122 OA 
BRANCH  11  12
HETATM   12  C   UNL     1      -8.399   8.814  67.157  1.00  0.00    -0.103 A  
HETATM   13  C   UNL     1      -8.295   7.851  68.175  1.00  0.00    -0.124 A  
HETATM   14  C   UNL     1      -8.133   6.496  67.880  1.00  0.00    -0.116 A  
HETATM   15  C   UNL     1      -8.074   6.049  66.559  1.00  0.00    -0.109 A  
HETATM   16  C   UNL     1      -8.187   7.007  65.551  1.00  0.00    -0.135 A  
HETATM   17  C   UNL     1      -8.349   8.369  65.816  1.00  0.00    -0.150 A  
HETATM   18  C   UNL     1      -8.426   9.025  64.551  1.00  0.00    -0.191 A  
HETATM   19  C   UNL     1      -8.320   8.069  63.568  1.00  0.00     0.049 A  
HETATM   20  N   UNL     1      -8.177   6.854  64.182  1.00  0.00    -0.326 NA 
HETATM   21  H   UNL     1      -8.077   5.963  63.695  1.00  0.00     0.000 HD 
ENDBRANCH  11  12
ENDBRANCH  10  11
ENDBRANCH   7  10
ENDBRANCH   6   7
ENDBRANCH   4   6
ENDBRANCH   2   4
TORSDOF 6
ENDMDL
MODEL      317
REMARK 921   NORMALIZED FREE ENERGY PREDICTED BY IDOCK:   -2.51 KCAL/MOL
REMARK 922        TOTAL FREE ENERGY PREDICTED BY IDOCK:   -3.77 KCAL/MOL
REMARK 923 INTER-LIGAND FREE ENERGY PREDICTED BY IDOCK:   -3.16 KCAL/MOL
REMARK 924 INTRA-LIGAND FREE ENERGY PREDICTED BY IDOCK:   -0.61 KCAL/MOL
REMARK 927      BINDING AFFINITY PREDICTED BY RF-SCORE:    0.00 PKD
ROOT
HETATM    1  C   UNL     1     -12.119  10.062  70.228  1.00  0.00    -0.226 C  
HETATM    2  C   UNL     1     -12.293   9.668  71.696  1.00  0.00    -0.404 C  
HETATM    3  C   UNL     1     -13.779   9.444  71.992  1.00  0.00    -0.466 C  
ENDROOT
BRANCH   2   4
HETATM    4  N   UNL     1     -11.496   8.463  71.946  1.00  0.00    -0.295 NA 
HETATM    5  H   UNL     1     -11.638   7.777  71.204  1.00  0.00     0.000 HD 
BRANCH   4   6
HETATM    6  C   UNL     1     -10.068   8.735  72.133  1.00  0.00    -0.292 C  
BRANCH   6   7
HETATM    7  C   UNL     1      -9.305   7.455  72.530  1.00  0.00    -0.146 C  
HETATM    8  H   UNL     1      -8.429   6.776  74.147  1.00  0.00     0.000 HD 
HETATM    9  O   UNL     1      -8.899   7.564  73.903  1.00  0.00    -0.201 OA 
BRANCH   7  10
HETATM   10  C   UNL     1     -10.215   6.238  72.284  1.00  0.00    -0.187 C  
BRANCH  10  11
HETATM   11  O   UNL     1     -10.072   5.773  70.941  1.00  0.00    -0.183 OA 
BRANCH  11  12
HETATM   12  C   UNL     1      -8.785   5.512  70.532  1.00  0.00    -0.135 A  
HETATM   13  C   UNL     1      -7.986   4.475  71.041  1.00  0.00    -0.077 A  
HETATM   14  C   UNL     1      -6.696   4.245  70.557  1.00  0.00    -0.032 A  
HETATM   15  C   UNL     1      -6.157   5.037  69.542  1.00  0.00    -0.022 A  
HETATM   16  C   UNL     1      -6.958   6.060  69.032  1.00  0.00    -0.068 A  
HETATM   17  C   UNL     1      -8.250   6.314  69.497  1.00  0.00    -0.117 A  
HETATM   18  C   UNL     1      -8.744   7.421  68.744  1.00  0.00    -0.128 A  
HETATM   19  C   UNL     1      -7.768   7.801  67.854  1.00  0.00    -0.122 A  
HETATM   20  N   UNL     1      -6.694   6.973  68.034  1.00  0.00    -0.062 NA 
HETATM   21  H   UNL     1      -5.823   7.025  67.506  1.00  0.00     0.000 HD 
ENDBRANCH  11  12
ENDBRANCH  10  11
ENDBRANCH   7  10
ENDBRANCH   6   7
ENDBRANCH   4   6
ENDBRANCH   2   4
TORSDOF 6
ENDMDL
MODEL      318
REMARK 921   NORMALIZED FREE ENERGY PREDICTED BY IDOCK:   -2.43 KCAL/MOL
REMARK 922        TOTAL FREE ENERGY PREDICTED BY IDOCK:   -3.65 KCAL/MOL
REMARK 923 INTER-LIGAND FREE ENERGY PREDICTED BY IDOCK:   -3.09 KCAL/MOL
REMARK 924 INTRA-LIGAND FREE ENERGY PREDICTED BY IDOCK:   -0.56 KCAL/MOL
REMARK 927      BINDING AFFINITY PREDICTED BY RF-SCORE:    0.00 PKD
ROOT
HETATM    1  C   UNL     1      -8.090   4.786  64.291  1.00  0.00    -0.111 C  
HETATM    2  C   UNL     1      -8.336   5.516  65.614  1.00  0.00    -0.133 C  
HETATM    3  C   UNL     1      -9.785   6.010  65.662  1.00  0.00     0.310 C  
ENDROOT
BRANCH   2   4
HETATM    4  N   UNL     1      -8.033   4.592  66.711  1.00  0.00    -0.102 NA 
HETATM    5  H   UNL     1      -7.034   4.593  66.918  1.00  0.00     0.000 HD 
BRANCH   4   6
HETATM    6  C   UNL     1      -8.814   4.848  67.923  1.00  0.00    -0.104 C  
BRANCH   6   7
HETATM    7  C   UNL     1      -7.926   5.415  69.050  1.00  0.00    -0.094 C  
HETATM    8  H   UNL     1      -6.029   5.862  69.264  1.00  0.00     0.000 HD 
HETATM    9  O   UNL     1      -6.576   5.513  68.571  1.00  0.00    -0.048 OA 
BRANCH   7  10
HETATM   10  C   UNL     1      -8.491   6.778  69.489  1.00  0.00    -0.133 C  
BRANCH  10  11
HETATM   11  O   UNL     1      -9.773   6.998  68.899  1.00  0.00    -0.144 OA 
BRANCH  11  12
HETATM   12  C   UNL     1     -10.205   8.303  68.876  1.00  0.00    -0.210 A  
HETATM   13  C   UNL     1      -9.990   9.192  67.809  1.00  0.00    -0.236 A  
HETATM   14  C   UNL     1     -10.485  10.497  67.837  1.00  0.00    -0.247 A  
HETATM   15  C   UNL     1     -11.219  10.965  68.928  1.00  0.00    -0.327 A  
HETATM   16  C   UNL     1     -11.440  10.076  69.982  1.00  0.00    -0.248 A  
HETATM   17  C   UNL     1     -10.956   8.766  69.982  1.00  0.00    -0.216 A  
HETATM   18  C   UNL     1     -11.377   8.176  71.210  1.00  0.00    -0.300 A  
HETATM   19  C   UNL     1     -12.096   9.115  71.911  1.00  0.00    -0.378 A  
HETATM   20  N   UNL     1     -12.129  10.259  71.160  1.00  0.00    -0.371 NA 
HETATM   21  H   UNL     1     -12.598  11.123  71.435  1.00  0.00     0.000 HD 
ENDBRANCH  11  12
ENDBRANCH  10  11
ENDBRANCH   7  10
ENDBRANCH   6   7
ENDBRANCH   4   6
ENDBRANCH   2   4
TORSDOF 6
ENDMDL
MODEL      319
REMARK 921   NORMALIZED FREE ENERGY PREDICTED BY IDOCK:   -2.35 KCAL/MOL
REMARK 922        TOTAL FREE ENERGY PREDICTED BY IDOCK:   -3.55 KCAL/MOL
REMARK 923 INTER-LIGAND FREE ENERGY PREDICTED BY IDOCK:   -3.00 KCAL/MOL
REMARK 924 INTRA-LIGAND FREE ENERGY PREDICTED BY IDOCK:   -0.56 KCAL/MOL
REMARK 927      BINDING AFFINITY PREDICTED BY RF-SCORE:    0.00 PKD
ROOT
HETATM    1  C   UNL     1      -8.021  11.885  66.846  1.00  0.00    -0.132 C  
HETATM    2  C   UNL     1      -6.916  11.087  67.540  1.00  0.00    -0.086 C  
HETATM    3  C   UNL     1      -5.894  12.054  68.148  1.00  0.00    -0.053 C  
ENDROOT
BRANCH   2   4
HETATM    4  N   UNL     1      -7.536  10.233  68.558  1.00  0.00    -0.086 NA 
HETATM    5  H   UNL     1      -7.612   9.272  68.224  1.00  0.00     0.000 HD 
BRANCH   4   6
HETATM    6  C   UNL     1      -6.857  10.280  69.854  1.00  0.00    -0.134 C  
BRANCH   6   7
HETATM    7  C   UNL     1      -6.646   8.863  70.426  1.00  0.00    -0.045 C  
HETATM    8  H   UNL     1      -7.011   7.956  72.125  1.00  0.00     0.000 HD 
HETATM    9  O   UNL     1      -7.141   8.828  71.773  1.00  0.00    -0.142 OA 
BRANCH   7  10
HETATM   10  C   UNL     1      -7.362   7.850  69.514  1.00  0.00    -0.087 C  
BRANCH  10  11
HETATM   11  O   UNL     1      -8.748   7.771  69.850  1.00  0.00    -0.139 OA 
BRANCH  11  12
HETATM   12  C   UNL     1      -9.139   6.632  70.514  1.00  0.00    -0.152 A  
HETATM   13  C   UNL     1      -8.407   5.433  70.533  1.00  0.00    -0.111 A  
HETATM   14  C   UNL     1      -8.846   4.323  71.255  1.00  0.00    -0.150 A  
HETATM   15  C   UNL     1     -10.031   4.366  71.991  1.00  0.00    -0.252 A  
HETATM   16  C   UNL     1     -10.751   5.561  71.979  1.00  0.00    -0.234 A  
HETATM   17  C   UNL     1     -10.337   6.688  71.265  1.00  0.00    -0.230 A  
HETATM   18  C   UNL     1     -11.317   7.699  71.493  1.00  0.00    -0.286 A  
HETATM   19  C   UNL     1     -12.280   7.180  72.326  1.00  0.00    -0.143 A  
HETATM   20  N   UNL     1     -11.929   5.889  72.615  1.00  0.00    -0.532 NA 
HETATM   21  H   UNL     1     -12.463   5.260  73.215  1.00  0.00     0.000 HD 
ENDBRANCH  11  12
ENDBRANCH  10  11
ENDBRANCH   7  10
ENDBRANCH   6   7
ENDBRANCH   4   6
ENDBRANCH   2   4
TORSDOF 6
ENDMDL
MODEL      320
REMARK 921   NORMALIZED FREE ENERGY PREDICTED BY IDOCK:   -2.29 KCAL/MOL
REMARK 922        TOTAL FREE ENERGY PREDICTED BY IDOCK:   -3.47 KCAL/MOL
REMARK 923 INTER-LIGAND FREE ENERGY PREDICTED BY IDOCK:   -2.75 KCAL/MOL
REMARK 924 INTRA-LIGAND FREE ENERGY PREDICTED BY IDOCK:   -0.72 KCAL/MOL
REMARK 927      BINDING AFFINITY PREDICTED BY RF-SCORE:    0.00 PKD
ROOT
HETATM    1  C   UNL     1      -9.781   9.174  66.359  1.00  0.00    -0.330 C  
HETATM    2  C   UNL     1      -8.869   8.532  67.407  1.00  0.00    -0.134 C  
HETATM    3  C   UNL     1      -8.376   9.606  68.381  1.00  0.00    -0.117 C  
ENDROOT
BRANCH   2   4
HETATM    4  N   UNL     1      -9.625   7.477  68.089  1.00  0.00    -0.146 NA 
HETATM    5  H   UNL     1      -9.851   7.756  69.044  1.00  0.00     0.000 HD 
BRANCH   4   6
HETATM    6  C   UNL     1     -10.833   7.065  67.370  1.00  0.00    -0.300 C  
BRANCH   6   7
HETATM    7  C   UNL     1     -10.906   5.530  67.237  1.00  0.00    -0.043 C  
HETATM    8  H   UNL     1     -11.075   4.246  65.766  1.00  0.00     0.000 HD 
HETATM    9  O   UNL     1     -11.030   5.190  65.847  1.00  0.00    -0.170 OA 
BRANCH   7  10
HETATM   10  C   UNL     1      -9.649   4.916  67.879  1.00  0.00    -0.145 C  
BRANCH  10  11
HETATM   11  O   UNL     1      -9.931   4.484  69.211  1.00  0.00    -0.194 OA 
BRANCH  11  12
HETATM   12  C   UNL     1      -8.981   4.796  70.155  1.00  0.00    -0.099 A  
HETATM   13  C   UNL     1      -7.664   4.304  70.147  1.00  0.00    -0.052 A  
HETATM   14  C   UNL     1      -6.739   4.687  71.120  1.00  0.00    -0.031 A  
HETATM   15  C   UNL     1      -7.089   5.579  72.135  1.00  0.00    -0.086 A  
HETATM   16  C   UNL     1      -8.394   6.073  72.133  1.00  0.00    -0.110 A  
HETATM   17  C   UNL     1      -9.341   5.707  71.175  1.00  0.00    -0.180 A  
HETATM   18  C   UNL     1     -10.542   6.407  71.499  1.00  0.00    -0.273 A  
HETATM   19  C   UNL     1     -10.301   7.170  72.617  1.00  0.00    -0.215 A  
HETATM   20  N   UNL     1      -9.002   6.963  72.992  1.00  0.00    -0.126 NA 
HETATM   21  H   UNL     1      -8.549   7.404  73.793  1.00  0.00     0.000 HD 
ENDBRANCH  11  12
ENDBRANCH  10  11
ENDBRANCH   7  10
ENDBRANCH   6   7
ENDBRANCH   4   6
ENDBRANCH   2   4
TORSDOF 6
ENDMDL
MODEL      321
REMARK 921   NORMALIZED FREE ENERGY PREDICTED BY IDOCK:   -2.29 KCAL/MOL
REMARK 922        TOTAL FREE ENERGY PREDICTED BY IDOCK:   -3.47 KCAL/MOL
REMARK 923 INTER-LIGAND FREE ENERGY PREDICTED BY IDOCK:   -2.99 KCAL/MOL
REMARK 924 INTRA-LIGAND FREE ENERGY PREDICTED BY IDOCK:   -0.48 KCAL/MOL
REMARK 927      BINDING AFFINITY PREDICTED BY RF-SCORE:    0.00 PKD
ROOT
HETATM    1  C   UNL     1     -11.796   6.792  70.816  1.00  0.00    -0.446 C  
HETATM    2  C   UNL     1     -10.467   7.510  70.570  1.00  0.00    -0.219 C  
HETATM    3  C   UNL     1     -10.428   8.804  71.389  1.00  0.00    -0.354 C  
ENDROOT
BRANCH   2   4
HETATM    4  N   UNL     1      -9.379   6.597  70.934  1.00  0.00    -0.158 NA 
HETATM    5  H   UNL     1      -9.748   5.751  71.369  1.00  0.00     0.000 HD 
BRANCH   4   6
HETATM    6  C   UNL     1      -8.498   6.262  69.813  1.00  0.00    -0.126 C  
BRANCH   6   7
HETATM    7  C   UNL     1      -8.815   7.126  68.576  1.00  0.00    -0.125 C  
HETATM    8  H   UNL     1      -8.094   8.765  67.775  1.00  0.00     0.000 HD 
HETATM    9  O   UNL     1      -7.899   8.232  68.536  1.00  0.00    -0.116 OA 
BRANCH   7  10
HETATM   10  C   UNL     1      -8.721   6.245  67.317  1.00  0.00    -0.105 C  
BRANCH  10  11
HETATM   11  O   UNL     1      -9.611   5.132  67.422  1.00  0.00    -0.126 OA 
BRANCH  11  12
HETATM   12  C   UNL     1      -9.142   3.941  66.920  1.00  0.00    -0.151 A  
HETATM   13  C   UNL     1      -8.339   3.039  67.638  1.00  0.00    -0.093 A  
HETATM   14  C   UNL     1      -7.923   1.830  67.079  1.00  0.00    -0.067 A  
HETATM   15  C   UNL     1      -8.296   1.471  65.782  1.00  0.00    -0.089 A  
HETATM   16  C   UNL     1      -9.102   2.365  65.075  1.00  0.00    -0.129 A  
HETATM   17  C   UNL     1      -9.532   3.582  65.609  1.00  0.00    -0.142 A  
HETATM   18  C   UNL     1     -10.325   4.211  64.604  1.00  0.00    -0.193 A  
HETATM   19  C   UNL     1     -10.364   3.379  63.509  1.00  0.00    -0.227 A  
HETATM   20  N   UNL     1      -9.624   2.267  63.804  1.00  0.00    -0.120 NA 
HETATM   21  H   UNL     1      -9.479   1.479  63.173  1.00  0.00     0.000 HD 
ENDBRANCH  11  12
ENDBRANCH  10  11
ENDBRANCH   7  10
ENDBRANCH   6   7
ENDBRANCH   4   6
ENDBRANCH   2   4
TORSDOF 6
ENDMDL
MODEL      322
REMARK 921   NORMALIZED FREE ENERGY PREDICTED BY IDOCK:   -2.24 KCAL/MOL
REMARK 922        TOTAL FREE ENERGY PREDICTED BY IDOCK:   -3.41 KCAL/MOL
REMARK 923 INTER-LIGAND FREE ENERGY PREDICTED BY IDOCK:   -2.95 KCAL/MOL
REMARK 924 INTRA-LIGAND FREE ENERGY PREDICTED BY IDOCK:   -0.45 KCAL/MOL
REMARK 927      BINDING AFFINITY PREDICTED BY RF-SCORE:    0.00 PKD
ROOT
HETATM    1  C   UNL     1      -9.872   7.551  69.613  1.00  0.00    -0.180 C  
HETATM    2  C   UNL     1     -10.881   8.683  69.816  1.00  0.00    -0.183 C  
HETATM    3  C   UNL     1     -11.572   8.514  71.172  1.00  0.00    -0.325 C  
ENDROOT
BRANCH   2   4
HETATM    4  N   UNL     1     -10.165   9.959  69.720  1.00  0.00    -0.230 NA 
HETATM    5  H   UNL     1      -9.359   9.968  70.346  1.00  0.00     0.000 HD 
BRANCH   4   6
HETATM    6  C   UNL     1      -9.764  10.304  68.354  1.00  0.00    -0.156 C  
BRANCH   6   7
HETATM    7  C   UNL     1     -10.056  11.786  68.044  1.00  0.00    -0.192 C  
HETATM    8  H   UNL     1     -11.415  12.778  67.037  1.00  0.00     0.000 HD 
HETATM    9  O   UNL     1     -11.235  11.865  67.228  1.00  0.00    -0.277 OA 
BRANCH   7  10
HETATM   10  C   UNL     1     -10.211  12.549  69.371  1.00  0.00     0.589 C  
BRANCH  10  11
HETATM   11  O   UNL     1     -11.421  13.309  69.369  1.00  0.00    -0.267 OA 
BRANCH  11  12
HETATM   12  C   UNL     1     -11.549  14.232  70.381  1.00  0.00    -0.200 A  
HETATM   13  C   UNL     1     -10.896  15.476  70.407  1.00  0.00    -0.356 A  
HETATM   14  C   UNL     1     -11.097  16.382  71.450  1.00  0.00     0.200 A  
HETATM   15  C   UNL     1     -11.960  16.083  72.506  1.00  0.00    -0.649 A  
HETATM   16  C   UNL     1     -12.614  14.851  72.472  1.00  0.00    -0.357 A  
HETATM   17  C   UNL     1     -12.432  13.925  71.442  1.00  0.00    -0.424 A  
HETATM   18  C   UNL     1     -13.257  12.803  71.751  1.00  0.00    -0.471 A  
HETATM   19  C   UNL     1     -13.911  13.067  72.931  1.00  0.00     0.737 A  
HETATM   20  N   UNL     1     -13.518  14.306  73.358  1.00  0.00    -0.213 NA 
HETATM   21  H   UNL     1     -13.846  14.761  74.210  1.00  0.00     0.000 HD 
ENDBRANCH  11  12
ENDBRANCH  10  11
ENDBRANCH   7  10
ENDBRANCH   6   7
ENDBRANCH   4   6
ENDBRANCH   2   4
TORSDOF 6
ENDMDL
MODEL      323
REMARK 921   NORMALIZED FREE ENERGY PREDICTED BY IDOCK:   -2.17 KCAL/MOL
REMARK 922        TOTAL FREE ENERGY PREDICTED BY IDOCK:   -3.30 KCAL/MOL
REMARK 923 INTER-LIGAND FREE ENERGY PREDICTED BY IDOCK:   -2.80 KCAL/MOL
REMARK 924 INTRA-LIGAND FREE ENERGY PREDICTED BY IDOCK:   -0.50 KCAL/MOL
REMARK 927      BINDING AFFINITY PREDICTED BY RF-SCORE:    0.00 PKD
ROOT
HETATM    1  C   UNL     1      -6.350   7.293  73.380  1.00  0.00    -0.064 C  
HETATM    2  C   UNL     1      -7.768   6.720  73.420  1.00  0.00    -0.088 C  
HETATM    3  C   UNL     1      -8.632   7.563  74.364  1.00  0.00    -0.242 C  
ENDROOT
BRANCH   2   4
HETATM    4  N   UNL     1      -8.298   6.711  72.053  1.00  0.00    -0.107 NA 
HETATM    5  H   UNL     1      -7.911   5.930  71.522  1.00  0.00     0.000 HD 
BRANCH   4   6
HETATM    6  C   UNL     1      -9.761   6.704  71.993  1.00  0.00    -0.151 C  
BRANCH   6   7
HETATM    7  C   UNL     1     -10.325   5.294  72.258  1.00  0.00    -0.212 C  
HETATM    8  H   UNL     1     -12.046   4.543  72.822  1.00  0.00     0.000 HD 
HETATM    9  O   UNL     1     -11.699   5.411  72.659  1.00  0.00    -0.271 OA 
BRANCH   7  10
HETATM   10  C   UNL     1     -10.158   4.445  70.984  1.00  0.00    -0.125 C  
BRANCH  10  11
HETATM   11  O   UNL     1     -10.437   5.230  69.824  1.00  0.00    -0.291 OA 
BRANCH  11  12
HETATM   12  C   UNL     1      -9.550   5.094  68.782  1.00  0.00    -0.143 A  
HETATM   13  C   UNL     1      -8.818   3.925  68.511  1.00  0.00    -0.148 A  
HETATM   14  C   UNL     1      -7.957   3.843  67.415  1.00  0.00    -0.091 A  
HETATM   15  C   UNL     1      -7.797   4.921  66.544  1.00  0.00    -0.099 A  
HETATM   16  C   UNL     1      -8.533   6.077  66.810  1.00  0.00    -0.110 A  
HETATM   17  C   UNL     1      -9.400   6.188  67.899  1.00  0.00    -0.113 A  
HETATM   18  C   UNL     1      -9.964   7.497  67.840  1.00  0.00    -0.203 A  
HETATM   19  C   UNL     1      -9.444   8.136  66.738  1.00  0.00    -0.198 A  
HETATM   20  N   UNL     1      -8.582   7.270  66.123  1.00  0.00    -0.144 NA 
HETATM   21  H   UNL     1      -8.052   7.478  65.276  1.00  0.00     0.000 HD 
ENDBRANCH  11  12
ENDBRANCH  10  11
ENDBRANCH   7  10
ENDBRANCH   6   7
ENDBRANCH   4   6
ENDBRANCH   2   4
TORSDOF 6
ENDMDL
MODEL      324
REMARK 921   NORMALIZED FREE ENERGY PREDICTED BY IDOCK:   -1.88 KCAL/MOL
REMARK 922        TOTAL FREE ENERGY PREDICTED BY IDOCK:   -2.92 KCAL/MOL
REMARK 923 INTER-LIGAND FREE ENERGY PREDICTED BY IDOCK:   -2.62 KCAL/MOL
REMARK 924 INTRA-LIGAND FREE ENERGY PREDICTED BY IDOCK:   -0.30 KCAL/MOL
REMARK 927      BINDING AFFINITY PREDICTED BY RF-SCORE:    0.00 PKD
ROOT
HETATM    1  C   UNL     1     -10.534   6.281  66.890  1.00  0.00    -0.337 C  
HETATM    2  C   UNL     1     -10.056   7.509  67.667  1.00  0.00    -0.187 C  
HETATM    3  C   UNL     1     -11.259   8.210  68.305  1.00  0.00     0.557 C  
ENDROOT
BRANCH   2   4
HETATM    4  N   UNL     1      -9.082   7.067  68.670  1.00  0.00    -0.133 NA 
HETATM    5  H   UNL     1      -8.404   6.427  68.257  1.00  0.00     0.000 HD 
BRANCH   4   6
HETATM    6  C   UNL     1      -8.403   8.171  69.353  1.00  0.00    -0.123 C  
BRANCH   6   7
HETATM    7  C   UNL     1      -7.101   8.561  68.624  1.00  0.00    -0.072 C  
HETATM    8  H   UNL     1      -5.806   7.655  67.464  1.00  0.00     0.000 HD 
HETATM    9  O   UNL     1      -6.607   7.416  67.913  1.00  0.00    -0.050 OA 
BRANCH   7  10
HETATM   10  C   UNL     1      -7.392   9.749  67.690  1.00  0.00    -0.090 C  
BRANCH  10  11
HETATM   11  O   UNL     1      -8.757  10.152  67.808  1.00  0.00    -0.122 OA 
BRANCH  11  12
HETATM   12  C   UNL     1      -8.986  11.507  67.771  1.00  0.00    -0.160 A  
HETATM   13  C   UNL     1      -8.206  12.462  68.444  1.00  0.00    -0.144 A  
HETATM   14  C   UNL     1      -8.475  13.828  68.337  1.00  0.00    -0.154 A  
HETATM   15  C   UNL     1      -9.529  14.295  67.551  1.00  0.00    -0.209 A  
HETATM   16  C   UNL     1     -10.296  13.344  66.875  1.00  0.00    -0.257 A  
HETATM   17  C   UNL     1     -10.051  11.972  66.964  1.00  0.00    -0.221 A  
HETATM   18  C   UNL     1     -11.028  11.329  66.146  1.00  0.00    -0.252 A  
HETATM   19  C   UNL     1     -11.822  12.302  65.586  1.00  0.00    -0.360 A  
HETATM   20  N   UNL     1     -11.371  13.515  66.031  1.00  0.00    -0.308 NA 
HETATM   21  H   UNL     1     -11.774  14.416  65.774  1.00  0.00     0.000 HD 
ENDBRANCH  11  12
ENDBRANCH  10  11
ENDBRANCH   7  10
ENDBRANCH   6   7
ENDBRANCH   4   6
ENDBRANCH   2   4
TORSDOF 6
ENDMDL
MODEL      325
REMARK 921   NORMALIZED FREE ENERGY PREDICTED BY IDOCK:   -1.63 KCAL/MOL
REMARK 922        TOTAL FREE ENERGY PREDICTED BY IDOCK:   -2.58 KCAL/MOL
REMARK 923 INTER-LIGAND FREE ENERGY PREDICTED BY IDOCK:   -2.13 KCAL/MOL
REMARK 924 INTRA-LIGAND FREE ENERGY PREDICTED BY IDOCK:   -0.45 KCAL/MOL
REMARK 927      BINDING AFFINITY PREDICTED BY RF-SCORE:    0.00 PKD
ROOT
HETATM    1  C   UNL     1      -8.177   8.140  63.001  1.00  0.00    -0.103 C  
HETATM    2  C   UNL     1      -7.874   7.803  64.462  1.00  0.00    -0.138 C  
HETATM    3  C   UNL     1      -6.684   8.640  64.942  1.00  0.00    -0.068 C  
ENDROOT
BRANCH   2   4
HETATM    4  N   UNL     1      -9.081   8.062  65.253  1.00  0.00    -0.383 NA 
HETATM    5  H   UNL     1      -9.842   7.448  64.960  1.00  0.00     0.000 HD 
BRANCH   4   6
HETATM    6  C   UNL     1      -8.865   7.968  66.698  1.00  0.00    -0.145 C  
BRANCH   6   7
HETATM    7  C   UNL     1      -9.579   6.736  67.290  1.00  0.00    -0.137 C  
HETATM    8  H   UNL     1     -10.160   4.985  66.626  1.00  0.00     0.000 HD 
HETATM    9  O   UNL     1      -9.721   5.744  66.262  1.00  0.00    -0.157 OA 
BRANCH   7  10
HETATM   10  C   UNL     1      -8.765   6.221  68.491  1.00  0.00    -0.112 C  
BRANCH  10  11
HETATM   11  O   UNL     1      -7.463   6.809  68.499  1.00  0.00    -0.088 OA 
BRANCH  11  12
HETATM   12  C   UNL     1      -6.977   7.170  69.733  1.00  0.00    -0.054 A  
HETATM   13  C   UNL     1      -6.678   6.263  70.764  1.00  0.00    -0.061 A  
HETATM   14  C   UNL     1      -6.156   6.695  71.985  1.00  0.00    -0.038 A  
HETATM   15  C   UNL     1      -5.905   8.047  72.222  1.00  0.00    -0.042 A  
HETATM   16  C   UNL     1      -6.193   8.944  71.192  1.00  0.00    -0.057 A  
HETATM   17  C   UNL     1      -6.717   8.541  69.962  1.00  0.00    -0.042 A  
HETATM   18  C   UNL     1      -6.875   9.723  69.179  1.00  0.00    -0.054 A  
HETATM   19  C   UNL     1      -6.447  10.793  69.930  1.00  0.00    -0.135 A  
HETATM   20  N   UNL     1      -6.036  10.312  71.143  1.00  0.00    -0.319 NA 
HETATM   21  H   UNL     1      -5.667  10.885  71.902  1.00  0.00     0.000 HD 
ENDBRANCH  11  12
ENDBRANCH  10  11
ENDBRANCH   7  10
ENDBRANCH   6   7
ENDBRANCH   4   6
ENDBRANCH   2   4
TORSDOF 6
ENDMDL
MODEL      326
REMARK 921   NORMALIZED FREE ENERGY PREDICTED BY IDOCK:   -1.49 KCAL/MOL
REMARK 922        TOTAL FREE ENERGY PREDICTED BY IDOCK:   -2.39 KCAL/MOL
REMARK 923 INTER-LIGAND FREE ENERGY PREDICTED BY IDOCK:   -1.92 KCAL/MOL
REMARK 924 INTRA-LIGAND FREE ENERGY PREDICTED BY IDOCK:   -0.47 KCAL/MOL
REMARK 927      BINDING AFFINITY PREDICTED BY RF-SCORE:    0.00 PKD
ROOT
HETATM    1  C   UNL     1      -9.978   6.951  70.997  1.00  0.00    -0.199 C  
HETATM    2  C   UNL     1      -8.626   6.389  70.552  1.00  0.00    -0.143 C  
HETATM    3  C   UNL     1      -7.605   6.563  71.681  1.00  0.00    -0.094 C  
ENDROOT
BRANCH   2   4
HETATM    4  N   UNL     1      -8.811   4.981  70.191  1.00  0.00    -0.108 NA 
HETATM    5  H   UNL     1      -9.696   4.628  70.556  1.00  0.00     0.000 HD 
BRANCH   4   6
HETATM    6  C   UNL     1      -8.705   4.727  68.752  1.00  0.00    -0.093 C  
BRANCH   6   7
HETATM    7  C   UNL     1      -7.594   5.584  68.114  1.00  0.00    -0.081 C  
HETATM    8  H   UNL     1      -5.633   5.573  68.100  1.00  0.00     0.000 HD 
HETATM    9  O   UNL     1      -6.318   5.045  68.492  1.00  0.00    -0.033 OA 
BRANCH   7  10
HETATM   10  C   UNL     1      -7.793   5.599  66.588  1.00  0.00    -0.101 C  
BRANCH  10  11
HETATM   11  O   UNL     1      -8.693   4.562  66.194  1.00  0.00    -0.113 OA 
BRANCH  11  12
HETATM   12  C   UNL     1      -8.248   3.732  65.193  1.00  0.00    -0.097 A  
HETATM   13  C   UNL     1      -6.927   3.267  65.076  1.00  0.00    -0.057 A  
HETATM   14  C   UNL     1      -6.549   2.398  64.051  1.00  0.00    -0.030 A  
HETATM   15  C   UNL     1      -7.475   1.953  63.106  1.00  0.00    -0.052 A  
HETATM   16  C   UNL     1      -8.789   2.408  63.231  1.00  0.00    -0.085 A  
HETATM   17  C   UNL     1      -9.195   3.279  64.245  1.00  0.00    -0.130 A  
HETATM   18  C   UNL     1     -10.588   3.514  64.047  1.00  0.00    -0.245 A  
HETATM   19  C   UNL     1     -10.990   2.792  62.947  1.00  0.00    -0.172 A  
HETATM   20  N   UNL     1      -9.897   2.127  62.463  1.00  0.00    -0.088 NA 
HETATM   21  H   UNL     1      -9.902   1.512  61.649  1.00  0.00     0.000 HD 
ENDBRANCH  11  12
ENDBRANCH  10  11
ENDBRANCH   7  10
ENDBRANCH   6   7
ENDBRANCH   4   6
ENDBRANCH   2   4
TORSDOF 6
ENDMDL
MODEL      327
REMARK 921   NORMALIZED FREE ENERGY PREDICTED BY IDOCK:   -1.35 KCAL/MOL
REMARK 922        TOTAL FREE ENERGY PREDICTED BY IDOCK:   -2.21 KCAL/MOL
REMARK 923 INTER-LIGAND FREE ENERGY PREDICTED BY IDOCK:   -2.37 KCAL/MOL
REMARK 924 INTRA-LIGAND FREE ENERGY PREDICTED BY IDOCK:    0.16 KCAL/MOL
REMARK 927      BINDING AFFINITY PREDICTED BY RF-SCORE:    0.00 PKD
ROOT
HETATM    1  C   UNL     1     -10.189   5.740  66.494  1.00  0.00    -0.241 C  
HETATM    2  C   UNL     1      -9.898   6.188  67.928  1.00  0.00    -0.123 C  
HETATM    3  C   UNL     1     -11.219   6.392  68.676  1.00  0.00    -0.338 C  
ENDROOT
BRANCH   2   4
HETATM    4  N   UNL     1      -9.057   5.171  68.565  1.00  0.00    -0.109 NA 
HETATM    5  H   UNL     1      -9.589   4.317  68.734  1.00  0.00     0.000 HD 
BRANCH   4   6
HETATM    6  C   UNL     1      -7.829   4.878  67.822  1.00  0.00    -0.094 C  
BRANCH   6   7
HETATM    7  C   UNL     1      -6.680   5.811  68.252  1.00  0.00    -0.057 C  
HETATM    8  H   UNL     1      -6.129   7.650  67.854  1.00  0.00     0.000 HD 
HETATM    9  O   UNL     1      -6.837   7.076  67.589  1.00  0.00    -0.068 OA 
BRANCH   7  10
HETATM   10  C   UNL     1      -6.700   5.949  69.785  1.00  0.00    -0.052 C  
BRANCH  10  11
HETATM   11  O   UNL     1      -7.543   4.951  70.363  1.00  0.00    -0.057 OA 
BRANCH  11  12
HETATM   12  C   UNL     1      -7.712   5.026  71.726  1.00  0.00    -0.107 A  
HETATM   13  C   UNL     1      -7.054   4.200  72.653  1.00  0.00    -0.061 A  
HETATM   14  C   UNL     1      -7.246   4.352  74.027  1.00  0.00    -0.072 A  
HETATM   15  C   UNL     1      -8.098   5.336  74.531  1.00  0.00    -0.101 A  
HETATM   16  C   UNL     1      -8.741   6.161  73.607  1.00  0.00    -0.124 A  
HETATM   17  C   UNL     1      -8.570   6.033  72.227  1.00  0.00    -0.124 A  
HETATM   18  C   UNL     1      -9.379   7.038  71.619  1.00  0.00    -0.158 A  
HETATM   19  C   UNL     1     -10.005   7.744  72.620  1.00  0.00    -0.238 A  
HETATM   20  N   UNL     1      -9.613   7.208  73.816  1.00  0.00    -0.242 NA 
HETATM   21  H   UNL     1      -9.922   7.537  74.731  1.00  0.00     0.000 HD 
ENDBRANCH  11  12
ENDBRANCH  10  11
ENDBRANCH   7  10
ENDBRANCH   6   7
ENDBRANCH   4   6
ENDBRANCH   2   4
TORSDOF 6
ENDMDL
MODEL      328
REMARK 921   NORMALIZED FREE ENERGY PREDICTED BY IDOCK:   -1.33 KCAL/MOL
REMARK 922        TOTAL FREE ENERGY PREDICTED BY IDOCK:   -2.17 KCAL/MOL
REMARK 923 INTER-LIGAND FREE ENERGY PREDICTED BY IDOCK:   -1.72 KCAL/MOL
REMARK 924 INTRA-LIGAND FREE ENERGY PREDICTED BY IDOCK:   -0.46 KCAL/MOL
REMARK 927      BINDING AFFINITY PREDICTED BY RF-SCORE:    0.00 PKD
ROOT
HETATM    1  C   UNL     1      -9.623   7.011  71.209  1.00  0.00    -0.164 C  
HETATM    2  C   UNL     1      -8.149   6.615  71.321  1.00  0.00    -0.112 C  
HETATM    3  C   UNL     1      -7.703   6.718  72.783  1.00  0.00    -0.095 C  
ENDROOT
BRANCH   2   4
HETATM    4  N   UNL     1      -7.998   5.255  70.796  1.00  0.00    -0.095 NA 
HETATM    5  H   UNL     1      -8.890   4.761  70.812  1.00  0.00     0.000 HD 
BRANCH   4   6
HETATM    6  C   UNL     1      -7.403   5.207  69.458  1.00  0.00    -0.057 C  
BRANCH   6   7
HETATM    7  C   UNL     1      -6.436   6.387  69.235  1.00  0.00    -0.043 C  
HETATM    8  H   UNL     1      -4.594   6.821  69.748  1.00  0.00     0.000 HD 
HETATM    9  O   UNL     1      -5.190   6.094  69.886  1.00  0.00    -0.011 OA 
BRANCH   7  10
HETATM   10  C   UNL     1      -6.266   6.610  67.721  1.00  0.00    -0.035 C  
BRANCH  10  11
HETATM   11  O   UNL     1      -7.542   6.690  67.084  1.00  0.00    -0.092 OA 
BRANCH  11  12
HETATM   12  C   UNL     1      -7.677   5.969  65.921  1.00  0.00    -0.096 A  
HETATM   13  C   UNL     1      -6.649   5.778  64.982  1.00  0.00    -0.043 A  
HETATM   14  C   UNL     1      -6.844   5.006  63.836  1.00  0.00    -0.047 A  
HETATM   15  C   UNL     1      -8.070   4.388  63.584  1.00  0.00    -0.095 A  
HETATM   16  C   UNL     1      -9.085   4.571  64.524  1.00  0.00    -0.148 A  
HETATM   17  C   UNL     1      -8.920   5.339  65.678  1.00  0.00    -0.160 A  
HETATM   18  C   UNL     1     -10.160   5.292  66.382  1.00  0.00    -0.257 A  
HETATM   19  C   UNL     1     -11.030   4.509  65.660  1.00  0.00     0.173 A  
HETATM   20  N   UNL     1     -10.372   4.078  64.541  1.00  0.00    -0.337 NA 
HETATM   21  H   UNL     1     -10.776   3.477  63.822  1.00  0.00     0.000 HD 
ENDBRANCH  11  12
ENDBRANCH  10  11
ENDBRANCH   7  10
ENDBRANCH   6   7
ENDBRANCH   4   6
ENDBRANCH   2   4
TORSDOF 6
ENDMDL
MODEL      329
REMARK 921   NORMALIZED FREE ENERGY PREDICTED BY IDOCK:   -1.16 KCAL/MOL
REMARK 922        TOTAL FREE ENERGY PREDICTED BY IDOCK:   -1.95 KCAL/MOL
REMARK 923 INTER-LIGAND FREE ENERGY PREDICTED BY IDOCK:   -1.71 KCAL/MOL
REMARK 924 INTRA-LIGAND FREE ENERGY PREDICTED BY IDOCK:   -0.24 KCAL/MOL
REMARK 927      BINDING AFFINITY PREDICTED BY RF-SCORE:    0.00 PKD
ROOT
HETATM    1  C   UNL     1     -11.588   7.330  71.579  1.00  0.00    -0.306 C  
HETATM    2  C   UNL     1     -10.102   7.127  71.883  1.00  0.00    -0.182 C  
HETATM    3  C   UNL     1      -9.724   7.928  73.133  1.00  0.00    -0.353 C  
ENDROOT
BRANCH   2   4
HETATM    4  N   UNL     1      -9.862   5.691  72.058  1.00  0.00    -0.162 NA 
HETATM    5  H   UNL     1     -10.742   5.175  72.053  1.00  0.00     0.000 HD 
BRANCH   4   6
HETATM    6  C   UNL     1      -8.927   5.131  71.080  1.00  0.00    -0.138 C  
BRANCH   6   7
HETATM    7  C   UNL     1      -7.592   5.903  71.079  1.00  0.00    -0.096 C  
HETATM    8  H   UNL     1      -6.265   6.434  72.421  1.00  0.00     0.000 HD 
HETATM    9  O   UNL     1      -7.087   5.958  72.422  1.00  0.00    -0.081 OA 
BRANCH   7  10
HETATM   10  C   UNL     1      -6.616   5.204  70.116  1.00  0.00    -0.039 C  
BRANCH  10  11
HETATM   11  O   UNL     1      -7.088   5.302  68.771  1.00  0.00    -0.058 OA 
BRANCH  11  12
HETATM   12  C   UNL     1      -6.663   4.314  67.914  1.00  0.00    -0.051 A  
HETATM   13  C   UNL     1      -6.445   2.978  68.290  1.00  0.00    -0.036 A  
HETATM   14  C   UNL     1      -6.044   2.017  67.361  1.00  0.00    -0.020 A  
HETATM   15  C   UNL     1      -5.850   2.350  66.019  1.00  0.00    -0.022 A  
HETATM   16  C   UNL     1      -6.076   3.676  65.647  1.00  0.00    -0.027 A  
HETATM   17  C   UNL     1      -6.477   4.659  66.555  1.00  0.00    -0.041 A  
HETATM   18  C   UNL     1      -6.605   5.871  65.814  1.00  0.00    -0.047 A  
HETATM   19  C   UNL     1      -6.294   5.603  64.502  1.00  0.00    -0.033 A  
HETATM   20  N   UNL     1      -5.977   4.275  64.411  1.00  0.00    -0.014 NA 
HETATM   21  H   UNL     1      -5.707   3.798  63.551  1.00  0.00     0.000 HD 
ENDBRANCH  11  12
ENDBRANCH  10  11
ENDBRANCH   7  10
ENDBRANCH   6   7
ENDBRANCH   4   6
ENDBRANCH   2   4
TORSDOF 6
ENDMDL
MODEL      330
REMARK 921   NORMALIZED FREE ENERGY PREDICTED BY IDOCK:   -1.06 KCAL/MOL
REMARK 922        TOTAL FREE ENERGY PREDICTED BY IDOCK:   -1.81 KCAL/MOL
REMARK 923 INTER-LIGAND FREE ENERGY PREDICTED BY IDOCK:   -1.82 KCAL/MOL
REMARK 924 INTRA-LIGAND FREE ENERGY PREDICTED BY IDOCK:    0.01 KCAL/MOL
REMARK 927      BINDING AFFINITY PREDICTED BY RF-SCORE:    0.00 PKD
ROOT
HETATM    1  C   UNL     1     -10.533   6.240  66.876  1.00  0.00    -0.337 C  
HETATM    2  C   UNL     1      -9.915   6.893  68.115  1.00  0.00    -0.155 C  
HETATM    3  C   UNL     1     -10.886   7.934  68.681  1.00  0.00     0.025 C  
ENDROOT
BRANCH   2   4
HETATM    4  N   UNL     1      -9.614   5.838  69.087  1.00  0.00    -0.130 NA 
HETATM    5  H   UNL     1      -9.364   4.970  68.612  1.00  0.00     0.000 HD 
BRANCH   4   6
HETATM    6  C   UNL     1      -8.582   6.213  70.057  1.00  0.00    -0.136 C  
BRANCH   6   7
HETATM    7  C   UNL     1      -7.171   5.910  69.516  1.00  0.00    -0.070 C  
HETATM    8  H   UNL     1      -6.356   4.525  68.391  1.00  0.00     0.000 HD 
HETATM    9  O   UNL     1      -7.225   4.712  68.725  1.00  0.00    -0.052 OA 
BRANCH   7  10
HETATM   10  C   UNL     1      -6.679   7.123  68.706  1.00  0.00    -0.067 C  
BRANCH  10  11
HETATM   11  O   UNL     1      -7.585   8.218  68.850  1.00  0.00    -0.090 OA 
BRANCH  11  12
HETATM   12  C   UNL     1      -7.054   9.368  69.384  1.00  0.00    -0.054 A  
HETATM   13  C   UNL     1      -6.326   9.423  70.585  1.00  0.00    -0.075 A  
HETATM   14  C   UNL     1      -5.785  10.621  71.054  1.00  0.00    -0.031 A  
HETATM   15  C   UNL     1      -5.944  11.810  70.341  1.00  0.00    -0.123 A  
HETATM   16  C   UNL     1      -6.658  11.751  69.144  1.00  0.00    -0.102 A  
HETATM   17  C   UNL     1      -7.211  10.567  68.650  1.00  0.00    -0.087 A  
HETATM   18  C   UNL     1      -7.856  10.899  67.422  1.00  0.00    -0.113 A  
HETATM   19  C   UNL     1      -7.679  12.244  67.197  1.00  0.00    -0.134 A  
HETATM   20  N   UNL     1      -6.954  12.749  68.241  1.00  0.00    -0.087 NA 
HETATM   21  H   UNL     1      -6.673  13.725  68.338  1.00  0.00     0.000 HD 
ENDBRANCH  11  12
ENDBRANCH  10  11
ENDBRANCH   7  10
ENDBRANCH   6   7
ENDBRANCH   4   6
ENDBRANCH   2   4
TORSDOF 6
ENDMDL
