MODEL        1
REMARK 921   NORMALIZED FREE ENERGY PREDICTED BY IDOCK:   -7.37 KCAL/MOL
REMARK 922        TOTAL FREE ENERGY PREDICTED BY IDOCK:  -11.53 KCAL/MOL
REMARK 923 INTER-LIGAND FREE ENERGY PREDICTED BY IDOCK:  -10.39 KCAL/MOL
REMARK 924 INTRA-LIGAND FREE ENERGY PREDICTED BY IDOCK:   -1.14 KCAL/MOL
REMARK 927      BINDING AFFINITY PREDICTED BY RF-SCORE:    0.00 PKD
ROOT
HETATM    1  C   UNL     1     -13.122  15.784  73.285  1.00  0.00    -0.692 C  
HETATM    2  C   UNL     1     -13.503  15.446  71.851  1.00  0.00    -0.571 C  
ENDROOT
BRANCH   2   3
HETATM    3  C   UNL     1     -13.138  14.033  71.497  1.00  0.00    -0.436 A  
HETATM    4  C   UNL     1     -13.539  12.974  72.296  1.00  0.00    -0.547 A  
HETATM    5  N   UNL     1     -13.219  11.686  72.056  1.00  0.00    -0.457 NA 
HETATM    6  C   UNL     1     -12.467  11.400  70.962  1.00  0.00    -0.383 A  
HETATM    7  C   UNL     1     -12.012  12.398  70.109  1.00  0.00    -0.376 A  
HETATM    8  C   UNL     1     -12.354  13.726  70.383  1.00  0.00    -0.423 A  
BRANCH   6   9
HETATM    9  C   UNL     1     -12.112   9.943  70.730  1.00  0.00    -0.396 C  
BRANCH   9  10
HETATM   10  C   UNL     1     -10.628   9.730  71.026  1.00  0.00    -0.225 C  
BRANCH  10  11
HETATM   11  O   UNL     1      -9.923   9.020  70.000  1.00  0.00    -0.174 OA 
BRANCH  11  12
HETATM   12  C   UNL     1      -9.938   9.678  68.783  1.00  0.00    -0.173 A  
HETATM   13  C   UNL     1     -10.638   9.245  67.653  1.00  0.00    -0.324 A  
HETATM   14  C   UNL     1     -10.658  10.001  66.484  1.00  0.00    -0.165 A  
HETATM   15  C   UNL     1      -9.991  11.225  66.422  1.00  0.00    -0.252 A  
HETATM   16  C   UNL     1      -9.238  11.639  67.530  1.00  0.00    -0.172 A  
HETATM   17  C   UNL     1      -9.217  10.869  68.705  1.00  0.00    -0.187 A  
BRANCH  15  18
HETATM   18  C   UNL     1     -10.162  12.103  65.203  1.00  0.00    -0.308 C  
BRANCH  18  19
HETATM   19  C   UNL     1     -11.121  13.272  65.460  1.00  0.00    -0.281 C  
HETATM   20  S   UNL     1     -10.300  14.905  65.544  1.00  0.00    -0.394 SA 
HETATM   21  C   UNL     1     -11.434  15.632  64.445  1.00  0.00    -0.262 C  
HETATM   22  N   UNL     1     -12.180  14.677  63.846  1.00  0.00    -1.017 N  
HETATM   23  O   UNL     1     -11.550  16.833  64.276  1.00  0.00    -1.027 OA 
HETATM   24  C   UNL     1     -12.145  13.414  64.356  1.00  0.00    -0.416 C  
HETATM   25  H   UNL     1     -12.754  14.895  63.031  1.00  0.00     0.000 HD 
HETATM   26  O   UNL     1     -12.912  12.529  63.997  1.00  0.00    -0.733 OA 
ENDBRANCH  18  19
ENDBRANCH  15  18
ENDBRANCH  11  12
ENDBRANCH  10  11
ENDBRANCH   9  10
ENDBRANCH   6   9
ENDBRANCH   2   3
TORSDOF 7
ENDMDL
MODEL        2
REMARK 921   NORMALIZED FREE ENERGY PREDICTED BY IDOCK:   -6.80 KCAL/MOL
REMARK 922        TOTAL FREE ENERGY PREDICTED BY IDOCK:  -10.73 KCAL/MOL
REMARK 923 INTER-LIGAND FREE ENERGY PREDICTED BY IDOCK:   -9.56 KCAL/MOL
REMARK 924 INTRA-LIGAND FREE ENERGY PREDICTED BY IDOCK:   -1.17 KCAL/MOL
REMARK 927      BINDING AFFINITY PREDICTED BY RF-SCORE:    0.00 PKD
ROOT
HETATM    1  C   UNL     1     -12.948  15.785  72.874  1.00  0.00    -0.600 C  
HETATM    2  C   UNL     1     -13.146  15.344  71.431  1.00  0.00    -0.563 C  
ENDROOT
BRANCH   2   3
HETATM    3  C   UNL     1     -12.931  13.868  71.266  1.00  0.00    -0.414 A  
HETATM    4  C   UNL     1     -13.448  12.967  72.183  1.00  0.00    -0.542 A  
HETATM    5  N   UNL     1     -13.265  11.633  72.115  1.00  0.00    -0.409 NA 
HETATM    6  C   UNL     1     -12.538  11.132  71.082  1.00  0.00    -0.409 A  
HETATM    7  C   UNL     1     -11.973  11.961  70.121  1.00  0.00    -0.413 A  
HETATM    8  C   UNL     1     -12.175  13.340  70.217  1.00  0.00    -0.391 A  
BRANCH   6   9
HETATM    9  C   UNL     1     -12.338   9.629  71.044  1.00  0.00    -0.396 C  
BRANCH   9  10
HETATM   10  C   UNL     1     -10.945   9.290  71.572  1.00  0.00    -0.375 C  
BRANCH  10  11
HETATM   11  O   UNL     1     -10.186   8.431  70.712  1.00  0.00    -0.189 OA 
BRANCH  11  12
HETATM   12  C   UNL     1      -9.931   8.998  69.475  1.00  0.00    -0.191 A  
HETATM   13  C   UNL     1     -10.531   8.599  68.278  1.00  0.00    -0.234 A  
HETATM   14  C   UNL     1     -10.272   9.267  67.084  1.00  0.00    -0.324 A  
HETATM   15  C   UNL     1      -9.416  10.369  67.062  1.00  0.00    -0.189 A  
HETATM   16  C   UNL     1      -8.763  10.739  68.246  1.00  0.00    -0.136 A  
HETATM   17  C   UNL     1      -9.025  10.058  69.447  1.00  0.00    -0.205 A  
BRANCH  15  18
HETATM   18  C   UNL     1      -9.278  11.176  65.791  1.00  0.00    -0.234 C  
BRANCH  18  19
HETATM   19  C   UNL     1     -10.616  11.341  65.061  1.00  0.00    -0.289 C  
HETATM   20  S   UNL     1     -11.546  12.844  65.539  1.00  0.00    -0.379 SA 
HETATM   21  C   UNL     1     -11.823  13.307  63.886  1.00  0.00    -0.465 C  
HETATM   22  N   UNL     1     -11.048  12.569  63.060  1.00  0.00    -0.642 N  
HETATM   23  O   UNL     1     -12.628  14.152  63.539  1.00  0.00    -0.834 OA 
HETATM   24  C   UNL     1     -10.430  11.465  63.565  1.00  0.00    -0.417 C  
HETATM   25  H   UNL     1     -10.928  12.833  62.081  1.00  0.00     0.000 HD 
HETATM   26  O   UNL     1      -9.857  10.642  62.863  1.00  0.00    -0.319 OA 
ENDBRANCH  18  19
ENDBRANCH  15  18
ENDBRANCH  11  12
ENDBRANCH  10  11
ENDBRANCH   9  10
ENDBRANCH   6   9
ENDBRANCH   2   3
TORSDOF 7
ENDMDL
MODEL        3
REMARK 921   NORMALIZED FREE ENERGY PREDICTED BY IDOCK:   -6.80 KCAL/MOL
REMARK 922        TOTAL FREE ENERGY PREDICTED BY IDOCK:  -10.72 KCAL/MOL
REMARK 923 INTER-LIGAND FREE ENERGY PREDICTED BY IDOCK:   -9.65 KCAL/MOL
REMARK 924 INTRA-LIGAND FREE ENERGY PREDICTED BY IDOCK:   -1.07 KCAL/MOL
REMARK 927      BINDING AFFINITY PREDICTED BY RF-SCORE:    0.00 PKD
ROOT
HETATM    1  C   UNL     1     -12.322  16.070  73.773  1.00  0.00    -0.684 C  
HETATM    2  C   UNL     1     -13.353  15.771  72.694  1.00  0.00    -0.607 C  
ENDROOT
BRANCH   2   3
HETATM    3  C   UNL     1     -13.120  14.431  72.058  1.00  0.00    -0.444 A  
HETATM    4  C   UNL     1     -13.701  13.286  72.580  1.00  0.00    -0.508 A  
HETATM    5  N   UNL     1     -13.507  12.049  72.080  1.00  0.00    -0.393 NA 
HETATM    6  C   UNL     1     -12.703  11.909  70.994  1.00  0.00    -0.258 A  
HETATM    7  C   UNL     1     -12.071  12.999  70.410  1.00  0.00    -0.391 A  
HETATM    8  C   UNL     1     -12.285  14.271  70.950  1.00  0.00    -0.425 A  
BRANCH   6   9
HETATM    9  C   UNL     1     -12.494  10.501  70.468  1.00  0.00    -0.433 C  
BRANCH   9  10
HETATM   10  C   UNL     1     -11.227  10.462  69.615  1.00  0.00    -0.277 C  
BRANCH  10  11
HETATM   11  O   UNL     1     -11.473  10.458  68.203  1.00  0.00    -0.315 OA 
BRANCH  11  12
HETATM   12  C   UNL     1     -11.009  11.601  67.574  1.00  0.00    -0.259 A  
HETATM   13  C   UNL     1     -11.770  12.402  66.718  1.00  0.00    -0.430 A  
HETATM   14  C   UNL     1     -11.250  13.575  66.177  1.00  0.00    -0.306 A  
HETATM   15  C   UNL     1      -9.956  13.989  66.498  1.00  0.00    -0.289 A  
HETATM   16  C   UNL     1      -9.165  13.162  67.307  1.00  0.00    -0.221 A  
HETATM   17  C   UNL     1      -9.693  11.975  67.845  1.00  0.00    -0.194 A  
BRANCH  15  18
HETATM   18  C   UNL     1      -9.474  15.344  66.032  1.00  0.00    -0.381 C  
BRANCH  18  19
HETATM   19  C   UNL     1     -10.297  16.490  66.633  1.00  0.00    -0.298 C  
HETATM   20  S   UNL     1      -9.465  17.364  68.009  1.00  0.00    -0.290 SA 
HETATM   21  C   UNL     1      -9.790  18.931  67.329  1.00  0.00    -0.320 C  
HETATM   22  N   UNL     1     -10.220  18.805  66.054  1.00  0.00    -0.410 N  
HETATM   23  O   UNL     1      -9.673  19.978  67.939  1.00  0.00    -0.367 OA 
HETATM   24  C   UNL     1     -10.588  17.569  65.613  1.00  0.00    -0.140 C  
HETATM   25  H   UNL     1     -10.269  19.615  65.436  1.00  0.00     0.000 HD 
HETATM   26  O   UNL     1     -11.152  17.384  64.543  1.00  0.00    -1.008 OA 
ENDBRANCH  18  19
ENDBRANCH  15  18
ENDBRANCH  11  12
ENDBRANCH  10  11
ENDBRANCH   9  10
ENDBRANCH   6   9
ENDBRANCH   2   3
TORSDOF 7
ENDMDL
MODEL        4
REMARK 921   NORMALIZED FREE ENERGY PREDICTED BY IDOCK:   -6.75 KCAL/MOL
REMARK 922        TOTAL FREE ENERGY PREDICTED BY IDOCK:  -10.66 KCAL/MOL
REMARK 923 INTER-LIGAND FREE ENERGY PREDICTED BY IDOCK:   -9.68 KCAL/MOL
REMARK 924 INTRA-LIGAND FREE ENERGY PREDICTED BY IDOCK:   -0.98 KCAL/MOL
REMARK 927      BINDING AFFINITY PREDICTED BY RF-SCORE:    0.00 PKD
ROOT
HETATM    1  C   UNL     1      -9.991   2.513  72.104  1.00  0.00    -0.232 C  
HETATM    2  C   UNL     1      -9.249   3.763  71.653  1.00  0.00    -0.184 C  
ENDROOT
BRANCH   2   3
HETATM    3  C   UNL     1     -10.182   4.923  71.455  1.00  0.00    -0.257 A  
HETATM    4  C   UNL     1     -10.756   5.567  72.539  1.00  0.00    -0.240 A  
HETATM    5  N   UNL     1     -11.627   6.591  72.432  1.00  0.00    -0.274 NA 
HETATM    6  C   UNL     1     -11.959   7.030  71.191  1.00  0.00    -0.356 A  
HETATM    7  C   UNL     1     -11.440   6.439  70.046  1.00  0.00    -0.496 A  
HETATM    8  C   UNL     1     -10.543   5.375  70.184  1.00  0.00    -0.344 A  
BRANCH   6   9
HETATM    9  C   UNL     1     -12.953   8.173  71.106  1.00  0.00    -0.082 C  
BRANCH   9  10
HETATM   10  C   UNL     1     -12.335   9.428  71.719  1.00  0.00    -0.394 C  
BRANCH  10  11
HETATM   11  O   UNL     1     -11.021   9.731  71.233  1.00  0.00    -0.351 OA 
BRANCH  11  12
HETATM   12  C   UNL     1     -11.033  10.284  69.964  1.00  0.00    -0.311 A  
HETATM   13  C   UNL     1     -11.869  11.329  69.560  1.00  0.00    -0.427 A  
HETATM   14  C   UNL     1     -11.772  11.877  68.284  1.00  0.00    -0.385 A  
HETATM   15  C   UNL     1     -10.817  11.405  67.382  1.00  0.00    -0.301 A  
HETATM   16  C   UNL     1     -10.014  10.318  67.758  1.00  0.00    -0.203 A  
HETATM   17  C   UNL     1     -10.121   9.765  69.046  1.00  0.00    -0.195 A  
BRANCH  15  18
HETATM   18  C   UNL     1     -10.621  12.122  66.066  1.00  0.00    -0.292 C  
BRANCH  18  19
HETATM   19  C   UNL     1     -11.526  13.353  65.936  1.00  0.00    -0.321 C  
HETATM   20  S   UNL     1     -10.617  14.930  65.749  1.00  0.00    -0.355 SA 
HETATM   21  C   UNL     1     -11.576  15.425  64.385  1.00  0.00    -0.264 C  
HETATM   22  N   UNL     1     -12.311  14.385  63.931  1.00  0.00    -1.023 N  
HETATM   23  O   UNL     1     -11.597  16.558  63.939  1.00  0.00    -1.175 OA 
HETATM   24  C   UNL     1     -12.412  13.273  64.712  1.00  0.00    -0.383 C  
HETATM   25  H   UNL     1     -12.777  14.430  63.025  1.00  0.00     0.000 HD 
HETATM   26  O   UNL     1     -13.189  12.358  64.472  1.00  0.00    -0.834 OA 
ENDBRANCH  18  19
ENDBRANCH  15  18
ENDBRANCH  11  12
ENDBRANCH  10  11
ENDBRANCH   9  10
ENDBRANCH   6   9
ENDBRANCH   2   3
TORSDOF 7
ENDMDL
MODEL        5
REMARK 921   NORMALIZED FREE ENERGY PREDICTED BY IDOCK:   -6.71 KCAL/MOL
REMARK 922        TOTAL FREE ENERGY PREDICTED BY IDOCK:  -10.61 KCAL/MOL
REMARK 923 INTER-LIGAND FREE ENERGY PREDICTED BY IDOCK:   -9.81 KCAL/MOL
REMARK 924 INTRA-LIGAND FREE ENERGY PREDICTED BY IDOCK:   -0.79 KCAL/MOL
REMARK 927      BINDING AFFINITY PREDICTED BY RF-SCORE:    0.00 PKD
ROOT
HETATM    1  C   UNL     1      -9.484   3.718  68.180  1.00  0.00    -0.216 C  
HETATM    2  C   UNL     1      -9.231   3.742  69.680  1.00  0.00    -0.222 C  
ENDROOT
BRANCH   2   3
HETATM    3  C   UNL     1      -9.954   4.876  70.348  1.00  0.00    -0.316 A  
HETATM    4  C   UNL     1      -9.810   5.109  71.706  1.00  0.00    -0.174 A  
HETATM    5  N   UNL     1     -10.455   6.087  72.375  1.00  0.00    -0.195 NA 
HETATM    6  C   UNL     1     -11.290   6.903  71.681  1.00  0.00    -0.260 A  
HETATM    7  C   UNL     1     -11.503   6.738  70.318  1.00  0.00    -0.414 A  
HETATM    8  C   UNL     1     -10.826   5.714  69.649  1.00  0.00    -0.365 A  
BRANCH   6   9
HETATM    9  C   UNL     1     -12.011   7.981  72.467  1.00  0.00    -0.384 C  
BRANCH   9  10
HETATM   10  C   UNL     1     -12.734   8.916  71.499  1.00  0.00    -0.335 C  
BRANCH  10  11
HETATM   11  O   UNL     1     -12.301  10.281  71.570  1.00  0.00    -0.375 OA 
BRANCH  11  12
HETATM   12  C   UNL     1     -11.837  10.762  70.358  1.00  0.00    -0.358 A  
HETATM   13  C   UNL     1     -11.294   9.968  69.344  1.00  0.00    -0.192 A  
HETATM   14  C   UNL     1     -10.912  10.520  68.124  1.00  0.00    -0.330 A  
HETATM   15  C   UNL     1     -11.083  11.884  67.880  1.00  0.00    -0.297 A  
HETATM   16  C   UNL     1     -11.572  12.697  68.913  1.00  0.00    -0.363 A  
HETATM   17  C   UNL     1     -11.950  12.135  70.144  1.00  0.00    -0.394 A  
BRANCH  15  18
HETATM   18  C   UNL     1     -10.816  12.430  66.496  1.00  0.00    -0.284 C  
BRANCH  18  19
HETATM   19  C   UNL     1     -11.666  13.668  66.187  1.00  0.00    -0.364 C  
HETATM   20  S   UNL     1     -10.695  15.207  65.988  1.00  0.00    -0.339 SA 
HETATM   21  C   UNL     1     -11.494  15.624  64.500  1.00  0.00    -0.300 C  
HETATM   22  N   UNL     1     -12.208  14.571  64.044  1.00  0.00    -0.927 N  
HETATM   23  O   UNL     1     -11.434  16.722  63.976  1.00  0.00    -1.198 OA 
HETATM   24  C   UNL     1     -12.423  13.521  64.886  1.00  0.00    -0.384 C  
HETATM   25  H   UNL     1     -12.578  14.562  63.094  1.00  0.00     0.000 HD 
HETATM   26  O   UNL     1     -13.198  12.609  64.629  1.00  0.00    -0.828 OA 
ENDBRANCH  18  19
ENDBRANCH  15  18
ENDBRANCH  11  12
ENDBRANCH  10  11
ENDBRANCH   9  10
ENDBRANCH   6   9
ENDBRANCH   2   3
TORSDOF 7
ENDMDL
MODEL        6
REMARK 921   NORMALIZED FREE ENERGY PREDICTED BY IDOCK:   -6.61 KCAL/MOL
REMARK 922        TOTAL FREE ENERGY PREDICTED BY IDOCK:  -10.46 KCAL/MOL
REMARK 923 INTER-LIGAND FREE ENERGY PREDICTED BY IDOCK:   -9.73 KCAL/MOL
REMARK 924 INTRA-LIGAND FREE ENERGY PREDICTED BY IDOCK:   -0.73 KCAL/MOL
REMARK 927      BINDING AFFINITY PREDICTED BY RF-SCORE:    0.00 PKD
ROOT
HETATM    1  C   UNL     1      -9.362   2.058  70.502  1.00  0.00    -0.183 C  
HETATM    2  C   UNL     1      -9.398   3.364  69.722  1.00  0.00    -0.238 C  
ENDROOT
BRANCH   2   3
HETATM    3  C   UNL     1      -9.981   4.483  70.537  1.00  0.00    -0.278 A  
HETATM    4  C   UNL     1     -10.660   5.526  69.928  1.00  0.00    -0.317 A  
HETATM    5  N   UNL     1     -11.179   6.578  70.595  1.00  0.00    -0.305 NA 
HETATM    6  C   UNL     1     -11.039   6.620  71.945  1.00  0.00    -0.253 A  
HETATM    7  C   UNL     1     -10.365   5.623  72.639  1.00  0.00    -0.235 A  
HETATM    8  C   UNL     1      -9.833   4.546  71.924  1.00  0.00    -0.246 A  
BRANCH   6   9
HETATM    9  C   UNL     1     -11.620   7.825  72.662  1.00  0.00    -0.398 C  
BRANCH   9  10
HETATM   10  C   UNL     1     -12.261   8.761  71.639  1.00  0.00    -0.339 C  
BRANCH  10  11
HETATM   11  O   UNL     1     -11.720  10.089  71.642  1.00  0.00    -0.345 OA 
BRANCH  11  12
HETATM   12  C   UNL     1     -11.638  10.638  70.375  1.00  0.00    -0.351 A  
HETATM   13  C   UNL     1     -11.975  11.957  70.057  1.00  0.00    -0.409 A  
HETATM   14  C   UNL     1     -11.799  12.455  68.768  1.00  0.00    -0.358 A  
HETATM   15  C   UNL     1     -11.261  11.647  67.766  1.00  0.00    -0.333 A  
HETATM   16  C   UNL     1     -10.975  10.307  68.060  1.00  0.00    -0.345 A  
HETATM   17  C   UNL     1     -11.160   9.808  69.362  1.00  0.00    -0.205 A  
BRANCH  15  18
HETATM   18  C   UNL     1     -10.927  12.255  66.422  1.00  0.00    -0.326 C  
BRANCH  18  19
HETATM   19  C   UNL     1     -11.839  13.439  66.080  1.00  0.00    -0.383 C  
HETATM   20  S   UNL     1     -10.973  15.050  66.002  1.00  0.00    -0.328 SA 
HETATM   21  C   UNL     1     -11.680  15.458  64.466  1.00  0.00    -0.277 C  
HETATM   22  N   UNL     1     -12.277  14.372  63.925  1.00  0.00    -0.980 N  
HETATM   23  O   UNL     1     -11.661  16.574  63.980  1.00  0.00    -1.111 OA 
HETATM   24  C   UNL     1     -12.479  13.282  64.717  1.00  0.00    -0.383 C  
HETATM   25  H   UNL     1     -12.568  14.368  62.948  1.00  0.00     0.000 HD 
HETATM   26  O   UNL     1     -13.162  12.326  64.374  1.00  0.00    -0.806 OA 
ENDBRANCH  18  19
ENDBRANCH  15  18
ENDBRANCH  11  12
ENDBRANCH  10  11
ENDBRANCH   9  10
ENDBRANCH   6   9
ENDBRANCH   2   3
TORSDOF 7
ENDMDL
MODEL        7
REMARK 921   NORMALIZED FREE ENERGY PREDICTED BY IDOCK:   -6.51 KCAL/MOL
REMARK 922        TOTAL FREE ENERGY PREDICTED BY IDOCK:  -10.32 KCAL/MOL
REMARK 923 INTER-LIGAND FREE ENERGY PREDICTED BY IDOCK:   -9.95 KCAL/MOL
REMARK 924 INTRA-LIGAND FREE ENERGY PREDICTED BY IDOCK:   -0.37 KCAL/MOL
REMARK 927      BINDING AFFINITY PREDICTED BY RF-SCORE:    0.00 PKD
ROOT
HETATM    1  C   UNL     1     -10.311   6.207  71.733  1.00  0.00    -0.250 C  
HETATM    2  C   UNL     1     -11.551   6.559  70.924  1.00  0.00    -0.417 C  
ENDROOT
BRANCH   2   3
HETATM    3  C   UNL     1     -11.967   7.986  71.136  1.00  0.00    -0.297 A  
HETATM    4  C   UNL     1     -13.081   8.295  71.900  1.00  0.00    -0.344 A  
HETATM    5  N   UNL     1     -13.530   9.551  72.104  1.00  0.00    -0.446 NA 
HETATM    6  C   UNL     1     -12.850  10.580  71.536  1.00  0.00    -0.463 A  
HETATM    7  C   UNL     1     -11.728  10.364  70.747  1.00  0.00    -0.464 A  
HETATM    8  C   UNL     1     -11.286   9.053  70.548  1.00  0.00    -0.301 A  
BRANCH   6   9
HETATM    9  C   UNL     1     -13.392  11.978  71.772  1.00  0.00    -0.338 C  
BRANCH   9  10
HETATM   10  C   UNL     1     -12.323  13.005  71.400  1.00  0.00    -0.012 C  
BRANCH  10  11
HETATM   11  O   UNL     1     -12.835  14.168  70.737  1.00  0.00    -0.331 OA 
BRANCH  11  12
HETATM   12  C   UNL     1     -12.119  14.497  69.599  1.00  0.00    -0.323 A  
HETATM   13  C   UNL     1     -11.871  15.802  69.166  1.00  0.00    -0.367 A  
HETATM   14  C   UNL     1     -11.082  16.052  68.046  1.00  0.00    -0.334 A  
HETATM   15  C   UNL     1     -10.502  14.997  67.340  1.00  0.00    -0.257 A  
HETATM   16  C   UNL     1     -10.794  13.683  67.732  1.00  0.00    -0.266 A  
HETATM   17  C   UNL     1     -11.596  13.437  68.860  1.00  0.00    -0.356 A  
BRANCH  15  18
HETATM   18  C   UNL     1      -9.520  15.297  66.231  1.00  0.00    -0.341 C  
BRANCH  18  19
HETATM   19  C   UNL     1     -10.042  14.853  64.859  1.00  0.00    -0.165 C  
HETATM   20  S   UNL     1     -10.492  13.081  64.770  1.00  0.00    -0.364 SA 
HETATM   21  C   UNL     1     -12.035  13.417  64.042  1.00  0.00    -0.464 C  
HETATM   22  N   UNL     1     -12.311  14.738  64.125  1.00  0.00    -0.925 N  
HETATM   23  O   UNL     1     -12.737  12.576  63.509  1.00  0.00    -0.722 OA 
HETATM   24  C   UNL     1     -11.306  15.590  64.471  1.00  0.00    -0.314 C  
HETATM   25  H   UNL     1     -13.250  15.089  63.933  1.00  0.00     0.000 HD 
HETATM   26  O   UNL     1     -11.411  16.807  64.402  1.00  0.00    -1.089 OA 
ENDBRANCH  18  19
ENDBRANCH  15  18
ENDBRANCH  11  12
ENDBRANCH  10  11
ENDBRANCH   9  10
ENDBRANCH   6   9
ENDBRANCH   2   3
TORSDOF 7
ENDMDL
MODEL        8
REMARK 921   NORMALIZED FREE ENERGY PREDICTED BY IDOCK:   -6.44 KCAL/MOL
REMARK 922        TOTAL FREE ENERGY PREDICTED BY IDOCK:  -10.22 KCAL/MOL
REMARK 923 INTER-LIGAND FREE ENERGY PREDICTED BY IDOCK:   -9.45 KCAL/MOL
REMARK 924 INTRA-LIGAND FREE ENERGY PREDICTED BY IDOCK:   -0.77 KCAL/MOL
REMARK 927      BINDING AFFINITY PREDICTED BY RF-SCORE:    0.00 PKD
ROOT
HETATM    1  C   UNL     1      -9.584  20.730  67.230  1.00  0.00    -0.494 C  
HETATM    2  C   UNL     1     -10.339  19.688  68.041  1.00  0.00    -0.579 C  
ENDROOT
BRANCH   2   3
HETATM    3  C   UNL     1     -10.447  18.382  67.307  1.00  0.00    -0.434 A  
HETATM    4  C   UNL     1     -10.432  18.343  65.922  1.00  0.00    -0.321 A  
HETATM    5  N   UNL     1     -10.559  17.211  65.200  1.00  0.00    -0.682 NA 
HETATM    6  C   UNL     1     -10.701  16.033  65.862  1.00  0.00    -0.280 A  
HETATM    7  C   UNL     1     -10.736  15.978  67.250  1.00  0.00    -0.295 A  
HETATM    8  C   UNL     1     -10.607  17.166  67.975  1.00  0.00    -0.374 A  
BRANCH   6   9
HETATM    9  C   UNL     1     -10.857  14.782  65.019  1.00  0.00    -0.440 C  
BRANCH   9  10
HETATM   10  C   UNL     1     -12.042  13.968  65.535  1.00  0.00    -0.410 C  
BRANCH  10  11
HETATM   11  O   UNL     1     -11.803  12.556  65.589  1.00  0.00    -0.402 OA 
BRANCH  11  12
HETATM   12  C   UNL     1     -11.588  12.097  66.877  1.00  0.00    -0.341 A  
HETATM   13  C   UNL     1     -11.949  12.787  68.037  1.00  0.00    -0.315 A  
HETATM   14  C   UNL     1     -11.760  12.226  69.298  1.00  0.00    -0.388 A  
HETATM   15  C   UNL     1     -11.221  10.945  69.428  1.00  0.00    -0.335 A  
HETATM   16  C   UNL     1     -10.801  10.270  68.273  1.00  0.00    -0.300 A  
HETATM   17  C   UNL     1     -10.989  10.844  67.004  1.00  0.00    -0.310 A  
BRANCH  15  18
HETATM   18  C   UNL     1     -11.178  10.294  70.791  1.00  0.00    -0.373 C  
BRANCH  18  19
HETATM   19  C   UNL     1     -11.870   8.926  70.802  1.00  0.00    -0.194 C  
HETATM   20  S   UNL     1     -10.716   7.506  70.837  1.00  0.00    -0.239 SA 
HETATM   21  C   UNL     1     -11.561   6.735  72.146  1.00  0.00    -0.288 C  
HETATM   22  N   UNL     1     -12.447   7.594  72.698  1.00  0.00    -0.536 N  
HETATM   23  O   UNL     1     -11.392   5.576  72.481  1.00  0.00    -0.278 OA 
HETATM   24  C   UNL     1     -12.739   8.744  72.027  1.00  0.00    -0.387 C  
HETATM   25  H   UNL     1     -12.887   7.387  73.595  1.00  0.00     0.000 HD 
HETATM   26  O   UNL     1     -13.650   9.493  72.354  1.00  0.00    -0.452 OA 
ENDBRANCH  18  19
ENDBRANCH  15  18
ENDBRANCH  11  12
ENDBRANCH  10  11
ENDBRANCH   9  10
ENDBRANCH   6   9
ENDBRANCH   2   3
TORSDOF 7
ENDMDL
MODEL        9
REMARK 921   NORMALIZED FREE ENERGY PREDICTED BY IDOCK:   -6.24 KCAL/MOL
REMARK 922        TOTAL FREE ENERGY PREDICTED BY IDOCK:   -9.94 KCAL/MOL
REMARK 923 INTER-LIGAND FREE ENERGY PREDICTED BY IDOCK:   -9.11 KCAL/MOL
REMARK 924 INTRA-LIGAND FREE ENERGY PREDICTED BY IDOCK:   -0.83 KCAL/MOL
REMARK 927      BINDING AFFINITY PREDICTED BY RF-SCORE:    0.00 PKD
ROOT
HETATM    1  C   UNL     1      -9.844  11.404  63.083  1.00  0.00    -0.413 C  
HETATM    2  C   UNL     1     -11.260  11.715  63.545  1.00  0.00    -0.462 C  
ENDROOT
BRANCH   2   3
HETATM    3  C   UNL     1     -11.277  12.777  64.607  1.00  0.00    -0.356 A  
HETATM    4  C   UNL     1     -10.097  13.321  65.087  1.00  0.00    -0.231 A  
HETATM    5  N   UNL     1     -10.039  14.252  66.062  1.00  0.00    -0.305 NA 
HETATM    6  C   UNL     1     -11.203  14.694  66.604  1.00  0.00    -0.349 A  
HETATM    7  C   UNL     1     -12.433  14.197  66.192  1.00  0.00    -0.426 A  
HETATM    8  C   UNL     1     -12.466  13.230  65.183  1.00  0.00    -0.525 A  
BRANCH   6   9
HETATM    9  C   UNL     1     -11.100  15.728  67.709  1.00  0.00    -0.313 C  
BRANCH   9  10
HETATM   10  C   UNL     1     -10.953  15.020  69.054  1.00  0.00    -0.249 C  
BRANCH  10  11
HETATM   11  O   UNL     1     -12.168  14.941  69.810  1.00  0.00    -0.309 OA 
BRANCH  11  12
HETATM   12  C   UNL     1     -12.396  13.679  70.330  1.00  0.00    -0.345 A  
HETATM   13  C   UNL     1     -11.965  12.487  69.741  1.00  0.00    -0.359 A  
HETATM   14  C   UNL     1     -12.175  11.258  70.363  1.00  0.00    -0.453 A  
HETATM   15  C   UNL     1     -12.808  11.194  71.605  1.00  0.00    -0.524 A  
HETATM   16  C   UNL     1     -13.297  12.378  72.175  1.00  0.00    -0.508 A  
HETATM   17  C   UNL     1     -13.087  13.614  71.540  1.00  0.00    -0.431 A  
BRANCH  15  18
HETATM   18  C   UNL     1     -12.879   9.872  72.334  1.00  0.00    -0.220 C  
BRANCH  18  19
HETATM   19  C   UNL     1     -12.371   8.708  71.474  1.00  0.00    -0.324 C  
HETATM   20  S   UNL     1     -10.650   8.204  71.844  1.00  0.00    -0.283 SA 
HETATM   21  C   UNL     1     -11.072   6.520  71.949  1.00  0.00    -0.261 C  
HETATM   22  N   UNL     1     -12.415   6.378  71.994  1.00  0.00    -0.467 N  
HETATM   23  O   UNL     1     -10.261   5.611  71.948  1.00  0.00    -0.184 OA 
HETATM   24  C   UNL     1     -13.191   7.454  71.682  1.00  0.00    -0.362 C  
HETATM   25  H   UNL     1     -12.839   5.487  72.255  1.00  0.00     0.000 HD 
HETATM   26  O   UNL     1     -14.403   7.378  71.524  1.00  0.00    -0.448 OA 
ENDBRANCH  18  19
ENDBRANCH  15  18
ENDBRANCH  11  12
ENDBRANCH  10  11
ENDBRANCH   9  10
ENDBRANCH   6   9
ENDBRANCH   2   3
TORSDOF 7
ENDMDL
MODEL       10
REMARK 921   NORMALIZED FREE ENERGY PREDICTED BY IDOCK:   -6.22 KCAL/MOL
REMARK 922        TOTAL FREE ENERGY PREDICTED BY IDOCK:   -9.91 KCAL/MOL
REMARK 923 INTER-LIGAND FREE ENERGY PREDICTED BY IDOCK:   -8.87 KCAL/MOL
REMARK 924 INTRA-LIGAND FREE ENERGY PREDICTED BY IDOCK:   -1.04 KCAL/MOL
REMARK 927      BINDING AFFINITY PREDICTED BY RF-SCORE:    0.00 PKD
ROOT
HETATM    1  C   UNL     1     -12.748  15.898  73.552  1.00  0.00    -0.701 C  
HETATM    2  C   UNL     1     -13.815  15.339  72.622  1.00  0.00    -0.585 C  
ENDROOT
BRANCH   2   3
HETATM    3  C   UNL     1     -13.273  14.247  71.747  1.00  0.00    -0.444 A  
HETATM    4  C   UNL     1     -13.389  12.916  72.117  1.00  0.00    -0.515 A  
HETATM    5  N   UNL     1     -12.896  11.888  71.396  1.00  0.00    -0.364 NA 
HETATM    6  C   UNL     1     -12.254  12.165  70.231  1.00  0.00    -0.264 A  
HETATM    7  C   UNL     1     -12.083  13.469  69.786  1.00  0.00    -0.381 A  
HETATM    8  C   UNL     1     -12.599  14.517  70.554  1.00  0.00    -0.413 A  
BRANCH   6   9
HETATM    9  C   UNL     1     -11.698  10.986  69.453  1.00  0.00    -0.394 C  
BRANCH   9  10
HETATM   10  C   UNL     1     -11.750  11.297  67.959  1.00  0.00    -0.233 C  
BRANCH  10  11
HETATM   11  O   UNL     1     -10.466  11.318  67.321  1.00  0.00    -0.197 OA 
BRANCH  11  12
HETATM   12  C   UNL     1      -9.963  12.599  67.171  1.00  0.00    -0.217 A  
HETATM   13  C   UNL     1      -8.947  13.150  67.957  1.00  0.00    -0.195 A  
HETATM   14  C   UNL     1      -8.447  14.424  67.699  1.00  0.00    -0.191 A  
HETATM   15  C   UNL     1      -8.940  15.174  66.629  1.00  0.00    -0.319 A  
HETATM   16  C   UNL     1     -10.000  14.653  65.873  1.00  0.00    -0.352 A  
HETATM   17  C   UNL     1     -10.504  13.369  66.142  1.00  0.00    -0.295 A  
BRANCH  15  18
HETATM   18  C   UNL     1      -8.272  16.481  66.269  1.00  0.00    -0.360 C  
BRANCH  18  19
HETATM   19  C   UNL     1      -9.229  17.673  66.386  1.00  0.00    -0.244 C  
HETATM   20  S   UNL     1     -10.189  17.707  67.944  1.00  0.00    -0.375 SA 
HETATM   21  C   UNL     1      -9.803  19.375  68.251  1.00  0.00    -0.410 C  
HETATM   22  N   UNL     1      -8.815  19.783  67.423  1.00  0.00    -0.315 N  
HETATM   23  O   UNL     1     -10.374  20.069  69.073  1.00  0.00    -0.382 OA 
HETATM   24  C   UNL     1      -8.490  18.993  66.362  1.00  0.00    -0.306 C  
HETATM   25  H   UNL     1      -8.324  20.662  67.590  1.00  0.00     0.000 HD 
HETATM   26  O   UNL     1      -7.740  19.356  65.466  1.00  0.00    -0.423 OA 
ENDBRANCH  18  19
ENDBRANCH  15  18
ENDBRANCH  11  12
ENDBRANCH  10  11
ENDBRANCH   9  10
ENDBRANCH   6   9
ENDBRANCH   2   3
TORSDOF 7
ENDMDL
MODEL       11
REMARK 921   NORMALIZED FREE ENERGY PREDICTED BY IDOCK:   -6.19 KCAL/MOL
REMARK 922        TOTAL FREE ENERGY PREDICTED BY IDOCK:   -9.87 KCAL/MOL
REMARK 923 INTER-LIGAND FREE ENERGY PREDICTED BY IDOCK:   -8.91 KCAL/MOL
REMARK 924 INTRA-LIGAND FREE ENERGY PREDICTED BY IDOCK:   -0.96 KCAL/MOL
REMARK 927      BINDING AFFINITY PREDICTED BY RF-SCORE:    0.00 PKD
ROOT
HETATM    1  C   UNL     1     -12.738  15.890  73.811  1.00  0.00    -0.729 C  
HETATM    2  C   UNL     1     -13.679  15.496  72.682  1.00  0.00    -0.667 C  
ENDROOT
BRANCH   2   3
HETATM    3  C   UNL     1     -13.226  14.242  71.993  1.00  0.00    -0.470 A  
HETATM    4  C   UNL     1     -12.542  14.299  70.789  1.00  0.00    -0.356 A  
HETATM    5  N   UNL     1     -12.136  13.213  70.100  1.00  0.00    -0.345 NA 
HETATM    6  C   UNL     1     -12.403  11.985  70.615  1.00  0.00    -0.304 A  
HETATM    7  C   UNL     1     -13.092  11.830  71.811  1.00  0.00    -0.480 A  
HETATM    8  C   UNL     1     -13.505  12.972  72.503  1.00  0.00    -0.522 A  
BRANCH   6   9
HETATM    9  C   UNL     1     -11.947  10.784  69.807  1.00  0.00    -0.397 C  
BRANCH   9  10
HETATM   10  C   UNL     1     -10.541  11.041  69.268  1.00  0.00    -0.201 C  
BRANCH  10  11
HETATM   11  O   UNL     1     -10.448  11.011  67.838  1.00  0.00    -0.178 OA 
BRANCH  11  12
HETATM   12  C   UNL     1     -10.526  12.270  67.268  1.00  0.00    -0.218 A  
HETATM   13  C   UNL     1     -11.670  12.800  66.665  1.00  0.00    -0.459 A  
HETATM   14  C   UNL     1     -11.689  14.103  66.175  1.00  0.00    -0.402 A  
HETATM   15  C   UNL     1     -10.563  14.919  66.295  1.00  0.00    -0.309 A  
HETATM   16  C   UNL     1      -9.392  14.377  66.844  1.00  0.00    -0.269 A  
HETATM   17  C   UNL     1      -9.378  13.059  67.332  1.00  0.00    -0.209 A  
BRANCH  15  18
HETATM   18  C   UNL     1     -10.659  16.377  65.905  1.00  0.00    -0.294 C  
BRANCH  18  19
HETATM   19  C   UNL     1      -9.829  17.279  66.828  1.00  0.00    -0.294 C  
HETATM   20  S   UNL     1      -9.402  18.902  66.097  1.00  0.00    -0.078 SA 
HETATM   21  C   UNL     1      -9.925  19.775  67.506  1.00  0.00    -0.409 C  
HETATM   22  N   UNL     1     -10.622  18.958  68.328  1.00  0.00    -0.366 N  
HETATM   23  O   UNL     1      -9.663  20.945  67.722  1.00  0.00    -0.286 OA 
HETATM   24  C   UNL     1     -10.572  17.616  68.102  1.00  0.00    -0.356 C  
HETATM   25  H   UNL     1     -11.172  19.338  69.099  1.00  0.00     0.000 HD 
HETATM   26  O   UNL     1     -11.019  16.790  68.888  1.00  0.00    -0.314 OA 
ENDBRANCH  18  19
ENDBRANCH  15  18
ENDBRANCH  11  12
ENDBRANCH  10  11
ENDBRANCH   9  10
ENDBRANCH   6   9
ENDBRANCH   2   3
TORSDOF 7
ENDMDL
MODEL       12
REMARK 921   NORMALIZED FREE ENERGY PREDICTED BY IDOCK:   -6.19 KCAL/MOL
REMARK 922        TOTAL FREE ENERGY PREDICTED BY IDOCK:   -9.87 KCAL/MOL
REMARK 923 INTER-LIGAND FREE ENERGY PREDICTED BY IDOCK:   -8.54 KCAL/MOL
REMARK 924 INTRA-LIGAND FREE ENERGY PREDICTED BY IDOCK:   -1.33 KCAL/MOL
REMARK 927      BINDING AFFINITY PREDICTED BY RF-SCORE:    0.00 PKD
ROOT
HETATM    1  C   UNL     1     -10.795  19.321  65.622  1.00  0.00    -0.269 C  
HETATM    2  C   UNL     1     -10.133  20.406  66.459  1.00  0.00    -0.419 C  
ENDROOT
BRANCH   2   3
HETATM    3  C   UNL     1      -8.900  19.901  67.151  1.00  0.00    -0.407 A  
HETATM    4  C   UNL     1      -7.766  19.567  66.428  1.00  0.00    -0.296 A  
HETATM    5  N   UNL     1      -6.638  19.076  66.981  1.00  0.00    -0.196 NA 
HETATM    6  C   UNL     1      -6.600  18.905  68.328  1.00  0.00    -0.235 A  
HETATM    7  C   UNL     1      -7.693  19.204  69.131  1.00  0.00    -0.247 A  
HETATM    8  C   UNL     1      -8.852  19.707  68.533  1.00  0.00    -0.346 A  
BRANCH   6   9
HETATM    9  C   UNL     1      -5.322  18.336  68.915  1.00  0.00    -0.191 C  
BRANCH   9  10
HETATM   10  C   UNL     1      -5.252  16.839  68.621  1.00  0.00    -0.122 C  
BRANCH  10  11
HETATM   11  O   UNL     1      -6.100  16.038  69.454  1.00  0.00    -0.130 OA 
BRANCH  11  12
HETATM   12  C   UNL     1      -7.314  15.742  68.858  1.00  0.00    -0.162 A  
HETATM   13  C   UNL     1      -8.539  15.700  69.529  1.00  0.00    -0.191 A  
HETATM   14  C   UNL     1      -9.728  15.461  68.845  1.00  0.00    -0.220 A  
HETATM   15  C   UNL     1      -9.722  15.278  67.461  1.00  0.00    -0.204 A  
HETATM   16  C   UNL     1      -8.492  15.259  66.788  1.00  0.00    -0.290 A  
HETATM   17  C   UNL     1      -7.295  15.495  67.486  1.00  0.00    -0.216 A  
BRANCH  15  18
HETATM   18  C   UNL     1     -11.036  15.184  66.720  1.00  0.00    -0.307 C  
BRANCH  18  19
HETATM   19  C   UNL     1     -10.893  14.461  65.375  1.00  0.00    -0.344 C  
HETATM   20  S   UNL     1     -11.599  12.773  65.357  1.00  0.00    -0.379 SA 
HETATM   21  C   UNL     1     -12.473  13.057  63.881  1.00  0.00    -0.296 C  
HETATM   22  N   UNL     1     -12.471  14.376  63.585  1.00  0.00    -1.086 N  
HETATM   23  O   UNL     1     -12.978  12.178  63.205  1.00  0.00    -0.735 OA 
HETATM   24  C   UNL     1     -11.615  15.191  64.263  1.00  0.00    -0.184 C  
HETATM   25  H   UNL     1     -13.096  14.753  62.872  1.00  0.00     0.000 HD 
HETATM   26  O   UNL     1     -11.415  16.357  63.949  1.00  0.00    -1.063 OA 
ENDBRANCH  18  19
ENDBRANCH  15  18
ENDBRANCH  11  12
ENDBRANCH  10  11
ENDBRANCH   9  10
ENDBRANCH   6   9
ENDBRANCH   2   3
TORSDOF 7
ENDMDL
MODEL       13
REMARK 921   NORMALIZED FREE ENERGY PREDICTED BY IDOCK:   -6.18 KCAL/MOL
REMARK 922        TOTAL FREE ENERGY PREDICTED BY IDOCK:   -9.85 KCAL/MOL
REMARK 923 INTER-LIGAND FREE ENERGY PREDICTED BY IDOCK:   -9.33 KCAL/MOL
REMARK 924 INTRA-LIGAND FREE ENERGY PREDICTED BY IDOCK:   -0.52 KCAL/MOL
REMARK 927      BINDING AFFINITY PREDICTED BY RF-SCORE:    0.00 PKD
ROOT
HETATM    1  C   UNL     1      -6.026  20.963  66.161  1.00  0.00    -0.290 C  
HETATM    2  C   UNL     1      -7.267  20.993  67.041  1.00  0.00    -0.307 C  
ENDROOT
BRANCH   2   3
HETATM    3  C   UNL     1      -8.163  19.817  66.780  1.00  0.00    -0.344 A  
HETATM    4  C   UNL     1      -7.647  18.621  66.308  1.00  0.00    -0.263 A  
HETATM    5  N   UNL     1      -8.398  17.538  66.021  1.00  0.00    -0.531 NA 
HETATM    6  C   UNL     1      -9.740  17.613  66.211  1.00  0.00    -0.263 A  
HETATM    7  C   UNL     1     -10.346  18.775  66.672  1.00  0.00    -0.472 A  
HETATM    8  C   UNL     1      -9.546  19.885  66.958  1.00  0.00    -0.515 A  
BRANCH   6   9
HETATM    9  C   UNL     1     -10.556  16.382  65.863  1.00  0.00    -0.294 C  
BRANCH   9  10
HETATM   10  C   UNL     1     -10.822  15.575  67.132  1.00  0.00    -0.316 C  
BRANCH  10  11
HETATM   11  O   UNL     1     -11.642  14.417  66.928  1.00  0.00    -0.357 OA 
BRANCH  11  12
HETATM   12  C   UNL     1     -11.786  13.652  68.072  1.00  0.00    -0.352 A  
HETATM   13  C   UNL     1     -12.077  14.165  69.340  1.00  0.00    -0.372 A  
HETATM   14  C   UNL     1     -12.274  13.323  70.431  1.00  0.00    -0.404 A  
HETATM   15  C   UNL     1     -12.204  11.937  70.275  1.00  0.00    -0.353 A  
HETATM   16  C   UNL     1     -11.854  11.416  69.021  1.00  0.00    -0.415 A  
HETATM   17  C   UNL     1     -11.651  12.272  67.925  1.00  0.00    -0.416 A  
BRANCH  15  18
HETATM   18  C   UNL     1     -12.582  11.041  71.432  1.00  0.00    -0.498 C  
BRANCH  18  19
HETATM   19  C   UNL     1     -12.259   9.568  71.154  1.00  0.00    -0.338 C  
HETATM   20  S   UNL     1     -10.572   9.067  71.656  1.00  0.00    -0.354 SA 
HETATM   21  C   UNL     1     -11.145   7.658  72.501  1.00  0.00    -0.336 C  
HETATM   22  N   UNL     1     -12.488   7.715  72.642  1.00  0.00    -0.536 N  
HETATM   23  O   UNL     1     -10.429   6.747  72.873  1.00  0.00    -0.205 OA 
HETATM   24  C   UNL     1     -13.178   8.636  71.914  1.00  0.00    -0.375 C  
HETATM   25  H   UNL     1     -12.973   7.083  73.279  1.00  0.00     0.000 HD 
HETATM   26  O   UNL     1     -14.400   8.648  71.839  1.00  0.00    -0.423 OA 
ENDBRANCH  18  19
ENDBRANCH  15  18
ENDBRANCH  11  12
ENDBRANCH  10  11
ENDBRANCH   9  10
ENDBRANCH   6   9
ENDBRANCH   2   3
TORSDOF 7
ENDMDL
MODEL       14
REMARK 921   NORMALIZED FREE ENERGY PREDICTED BY IDOCK:   -6.13 KCAL/MOL
REMARK 922        TOTAL FREE ENERGY PREDICTED BY IDOCK:   -9.78 KCAL/MOL
REMARK 923 INTER-LIGAND FREE ENERGY PREDICTED BY IDOCK:   -9.43 KCAL/MOL
REMARK 924 INTRA-LIGAND FREE ENERGY PREDICTED BY IDOCK:   -0.35 KCAL/MOL
REMARK 927      BINDING AFFINITY PREDICTED BY RF-SCORE:    0.00 PKD
ROOT
HETATM    1  C   UNL     1     -10.018   3.380  72.547  1.00  0.00    -0.228 C  
HETATM    2  C   UNL     1      -9.406   4.625  71.922  1.00  0.00    -0.185 C  
ENDROOT
BRANCH   2   3
HETATM    3  C   UNL     1     -10.315   5.814  72.046  1.00  0.00    -0.254 A  
HETATM    4  C   UNL     1     -10.323   6.586  73.197  1.00  0.00    -0.231 A  
HETATM    5  N   UNL     1     -11.136   7.645  73.388  1.00  0.00    -0.290 NA 
HETATM    6  C   UNL     1     -11.996   7.987  72.394  1.00  0.00    -0.350 A  
HETATM    7  C   UNL     1     -12.065   7.265  71.210  1.00  0.00    -0.373 A  
HETATM    8  C   UNL     1     -11.214   6.169  71.038  1.00  0.00    -0.361 A  
BRANCH   6   9
HETATM    9  C   UNL     1     -12.908   9.173  72.649  1.00  0.00    -0.293 C  
BRANCH   9  10
HETATM   10  C   UNL     1     -12.791  10.160  71.489  1.00  0.00    -0.443 C  
BRANCH  10  11
HETATM   11  O   UNL     1     -13.022  11.526  71.857  1.00  0.00    -0.440 OA 
BRANCH  11  12
HETATM   12  C   UNL     1     -12.532  12.423  70.924  1.00  0.00    -0.274 A  
HETATM   13  C   UNL     1     -11.717  12.080  69.842  1.00  0.00    -0.374 A  
HETATM   14  C   UNL     1     -11.321  13.032  68.907  1.00  0.00    -0.333 A  
HETATM   15  C   UNL     1     -11.749  14.356  69.022  1.00  0.00    -0.345 A  
HETATM   16  C   UNL     1     -12.517  14.722  70.136  1.00  0.00    -0.359 A  
HETATM   17  C   UNL     1     -12.909  13.757  71.080  1.00  0.00    -0.376 A  
BRANCH  15  18
HETATM   18  C   UNL     1     -11.443  15.334  67.910  1.00  0.00    -0.325 C  
BRANCH  18  19
HETATM   19  C   UNL     1     -11.095  14.626  66.595  1.00  0.00    -0.334 C  
HETATM   20  S   UNL     1     -12.508  13.756  65.821  1.00  0.00    -0.471 SA 
HETATM   21  C   UNL     1     -12.204  14.465  64.262  1.00  0.00    -0.423 C  
HETATM   22  N   UNL     1     -11.315  15.476  64.375  1.00  0.00    -0.727 N  
HETATM   23  O   UNL     1     -12.704  14.071  63.223  1.00  0.00    -0.750 OA 
HETATM   24  C   UNL     1     -10.619  15.600  65.540  1.00  0.00    -0.404 C  
HETATM   25  H   UNL     1     -11.167  16.131  63.607  1.00  0.00     0.000 HD 
HETATM   26  O   UNL     1      -9.674  16.367  65.674  1.00  0.00    -0.492 OA 
ENDBRANCH  18  19
ENDBRANCH  15  18
ENDBRANCH  11  12
ENDBRANCH  10  11
ENDBRANCH   9  10
ENDBRANCH   6   9
ENDBRANCH   2   3
TORSDOF 7
ENDMDL
MODEL       15
REMARK 921   NORMALIZED FREE ENERGY PREDICTED BY IDOCK:   -6.11 KCAL/MOL
REMARK 922        TOTAL FREE ENERGY PREDICTED BY IDOCK:   -9.76 KCAL/MOL
REMARK 923 INTER-LIGAND FREE ENERGY PREDICTED BY IDOCK:   -8.56 KCAL/MOL
REMARK 924 INTRA-LIGAND FREE ENERGY PREDICTED BY IDOCK:   -1.20 KCAL/MOL
REMARK 927      BINDING AFFINITY PREDICTED BY RF-SCORE:    0.00 PKD
ROOT
HETATM    1  C   UNL     1     -12.320  15.692  74.162  1.00  0.00    -0.799 C  
HETATM    2  C   UNL     1     -12.990  14.654  73.274  1.00  0.00    -0.569 C  
ENDROOT
BRANCH   2   3
HETATM    3  C   UNL     1     -12.479  14.715  71.864  1.00  0.00    -0.412 A  
HETATM    4  C   UNL     1     -12.034  15.909  71.320  1.00  0.00    -0.442 A  
HETATM    5  N   UNL     1     -11.595  16.042  70.052  1.00  0.00    -0.331 NA 
HETATM    6  C   UNL     1     -11.576  14.942  69.256  1.00  0.00    -0.306 A  
HETATM    7  C   UNL     1     -12.012  13.704  69.713  1.00  0.00    -0.404 A  
HETATM    8  C   UNL     1     -12.467  13.595  71.030  1.00  0.00    -0.456 A  
BRANCH   6   9
HETATM    9  C   UNL     1     -11.091  15.130  67.830  1.00  0.00    -0.322 C  
BRANCH   9  10
HETATM   10  C   UNL     1     -11.668  14.024  66.949  1.00  0.00    -0.410 C  
BRANCH  10  11
HETATM   11  O   UNL     1     -10.683  13.140  66.398  1.00  0.00    -0.280 OA 
BRANCH  11  12
HETATM   12  C   UNL     1     -10.344  12.110  67.258  1.00  0.00    -0.212 A  
HETATM   13  C   UNL     1      -9.172  12.061  68.016  1.00  0.00    -0.192 A  
HETATM   14  C   UNL     1      -8.935  11.021  68.912  1.00  0.00    -0.123 A  
HETATM   15  C   UNL     1      -9.881  10.009  69.085  1.00  0.00    -0.213 A  
HETATM   16  C   UNL     1     -11.033  10.018  68.285  1.00  0.00    -0.278 A  
HETATM   17  C   UNL     1     -11.263  11.068  67.380  1.00  0.00    -0.355 A  
BRANCH  15  18
HETATM   18  C   UNL     1      -9.678   8.983  70.177  1.00  0.00    -0.213 C  
BRANCH  18  19
HETATM   19  C   UNL     1     -10.944   8.158  70.439  1.00  0.00    -0.247 C  
HETATM   20  S   UNL     1     -10.625   6.381  70.741  1.00  0.00    -0.251 SA 
HETATM   21  C   UNL     1     -11.620   6.353  72.168  1.00  0.00    -0.313 C  
HETATM   22  N   UNL     1     -11.925   7.615  72.547  1.00  0.00    -0.530 N  
HETATM   23  O   UNL     1     -12.004   5.335  72.713  1.00  0.00    -0.211 OA 
HETATM   24  C   UNL     1     -11.680   8.631  71.673  1.00  0.00    -0.313 C  
HETATM   25  H   UNL     1     -12.328   7.802  73.465  1.00  0.00     0.000 HD 
HETATM   26  O   UNL     1     -12.080   9.774  71.851  1.00  0.00    -0.375 OA 
ENDBRANCH  18  19
ENDBRANCH  15  18
ENDBRANCH  11  12
ENDBRANCH  10  11
ENDBRANCH   9  10
ENDBRANCH   6   9
ENDBRANCH   2   3
TORSDOF 7
ENDMDL
MODEL       16
REMARK 921   NORMALIZED FREE ENERGY PREDICTED BY IDOCK:   -6.07 KCAL/MOL
REMARK 922        TOTAL FREE ENERGY PREDICTED BY IDOCK:   -9.69 KCAL/MOL
REMARK 923 INTER-LIGAND FREE ENERGY PREDICTED BY IDOCK:   -8.74 KCAL/MOL
REMARK 924 INTRA-LIGAND FREE ENERGY PREDICTED BY IDOCK:   -0.96 KCAL/MOL
REMARK 927      BINDING AFFINITY PREDICTED BY RF-SCORE:    0.00 PKD
ROOT
HETATM    1  C   UNL     1     -13.062  11.413  71.986  1.00  0.00    -0.423 C  
HETATM    2  C   UNL     1     -13.362   9.935  72.191  1.00  0.00    -0.498 C  
ENDROOT
BRANCH   2   3
HETATM    3  C   UNL     1     -12.376   9.062  71.469  1.00  0.00    -0.397 A  
HETATM    4  C   UNL     1     -12.672   7.737  71.190  1.00  0.00    -0.176 A  
HETATM    5  N   UNL     1     -11.822   6.889  70.576  1.00  0.00    -0.352 NA 
HETATM    6  C   UNL     1     -10.604   7.355  70.198  1.00  0.00    -0.230 A  
HETATM    7  C   UNL     1     -10.217   8.667  70.445  1.00  0.00    -0.218 A  
HETATM    8  C   UNL     1     -11.116   9.524  71.087  1.00  0.00    -0.450 A  
BRANCH   6   9
HETATM    9  C   UNL     1      -9.667   6.370  69.525  1.00  0.00    -0.167 C  
BRANCH   9  10
HETATM   10  C   UNL     1      -9.781   6.517  68.009  1.00  0.00    -0.118 C  
BRANCH  10  11
HETATM   11  O   UNL     1      -8.694   7.230  67.406  1.00  0.00    -0.120 OA 
BRANCH  11  12
HETATM   12  C   UNL     1      -9.117   8.255  66.577  1.00  0.00    -0.178 A  
HETATM   13  C   UNL     1     -10.069   9.217  66.926  1.00  0.00    -0.324 A  
HETATM   14  C   UNL     1     -10.392  10.259  66.060  1.00  0.00    -0.248 A  
HETATM   15  C   UNL     1      -9.752  10.375  64.825  1.00  0.00    -0.383 A  
HETATM   16  C   UNL     1      -8.839   9.381  64.442  1.00  0.00    -0.225 A  
HETATM   17  C   UNL     1      -8.522   8.329  65.318  1.00  0.00    -0.179 A  
BRANCH  15  18
HETATM   18  C   UNL     1      -9.997  11.600  63.974  1.00  0.00    -0.328 C  
BRANCH  18  19
HETATM   19  C   UNL     1     -11.078  12.511  64.569  1.00  0.00    -0.317 C  
HETATM   20  S   UNL     1     -10.514  14.222  64.896  1.00  0.00    -0.381 SA 
HETATM   21  C   UNL     1     -11.891  14.924  64.100  1.00  0.00    -0.184 C  
HETATM   22  N   UNL     1     -12.558  13.977  63.403  1.00  0.00    -1.030 N  
HETATM   23  O   UNL     1     -12.213  16.095  64.196  1.00  0.00    -0.700 OA 
HETATM   24  C   UNL     1     -12.258  12.669  63.636  1.00  0.00    -0.536 C  
HETATM   25  H   UNL     1     -13.269  14.236  62.718  1.00  0.00     0.000 HD 
HETATM   26  O   UNL     1     -12.923  11.743  63.189  1.00  0.00    -0.576 OA 
ENDBRANCH  18  19
ENDBRANCH  15  18
ENDBRANCH  11  12
ENDBRANCH  10  11
ENDBRANCH   9  10
ENDBRANCH   6   9
ENDBRANCH   2   3
TORSDOF 7
ENDMDL
MODEL       17
REMARK 921   NORMALIZED FREE ENERGY PREDICTED BY IDOCK:   -6.03 KCAL/MOL
REMARK 922        TOTAL FREE ENERGY PREDICTED BY IDOCK:   -9.64 KCAL/MOL
REMARK 923 INTER-LIGAND FREE ENERGY PREDICTED BY IDOCK:   -8.67 KCAL/MOL
REMARK 924 INTRA-LIGAND FREE ENERGY PREDICTED BY IDOCK:   -0.97 KCAL/MOL
REMARK 927      BINDING AFFINITY PREDICTED BY RF-SCORE:    0.00 PKD
ROOT
HETATM    1  C   UNL     1     -13.946   9.130  72.211  1.00  0.00    -0.489 C  
HETATM    2  C   UNL     1     -12.642   9.652  71.625  1.00  0.00    -0.493 C  
ENDROOT
BRANCH   2   3
HETATM    3  C   UNL     1     -12.707  11.126  71.348  1.00  0.00    -0.524 A  
HETATM    4  C   UNL     1     -11.978  11.687  70.312  1.00  0.00    -0.358 A  
HETATM    5  N   UNL     1     -11.963  13.006  70.030  1.00  0.00    -0.338 NA 
HETATM    6  C   UNL     1     -12.713  13.840  70.796  1.00  0.00    -0.290 A  
HETATM    7  C   UNL     1     -13.468  13.367  71.862  1.00  0.00    -0.526 A  
HETATM    8  C   UNL     1     -13.463  11.997  72.136  1.00  0.00    -0.338 A  
BRANCH   6   9
HETATM    9  C   UNL     1     -12.661  15.319  70.461  1.00  0.00    -0.450 C  
BRANCH   9  10
HETATM   10  C   UNL     1     -11.418  15.604  69.619  1.00  0.00    -0.340 C  
BRANCH  10  11
HETATM   11  O   UNL     1     -11.694  15.858  68.236  1.00  0.00    -0.327 OA 
BRANCH  11  12
HETATM   12  C   UNL     1     -11.284  14.828  67.408  1.00  0.00    -0.339 A  
HETATM   13  C   UNL     1      -9.962  14.393  67.276  1.00  0.00    -0.247 A  
HETATM   14  C   UNL     1      -9.639  13.303  66.472  1.00  0.00    -0.267 A  
HETATM   15  C   UNL     1     -10.639  12.605  65.792  1.00  0.00    -0.296 A  
HETATM   16  C   UNL     1     -11.959  13.071  65.871  1.00  0.00    -0.491 A  
HETATM   17  C   UNL     1     -12.278  14.176  66.680  1.00  0.00    -0.450 A  
BRANCH  15  18
HETATM   18  C   UNL     1     -10.288  11.331  65.059  1.00  0.00    -0.359 C  
BRANCH  18  19
HETATM   19  C   UNL     1      -9.603  10.307  65.973  1.00  0.00    -0.206 C  
HETATM   20  S   UNL     1     -10.637   9.753  67.378  1.00  0.00    -0.248 SA 
HETATM   21  C   UNL     1     -10.318   8.072  67.066  1.00  0.00    -0.344 C  
HETATM   22  N   UNL     1      -9.734   7.926  65.856  1.00  0.00    -0.423 N  
HETATM   23  O   UNL     1     -10.561   7.173  67.851  1.00  0.00    -0.202 OA 
HETATM   24  C   UNL     1      -9.251   9.036  65.231  1.00  0.00    -0.140 C  
HETATM   25  H   UNL     1      -9.656   7.006  65.421  1.00  0.00     0.000 HD 
HETATM   26  O   UNL     1      -8.556   8.985  64.225  1.00  0.00    -0.189 OA 
ENDBRANCH  18  19
ENDBRANCH  15  18
ENDBRANCH  11  12
ENDBRANCH  10  11
ENDBRANCH   9  10
ENDBRANCH   6   9
ENDBRANCH   2   3
TORSDOF 7
ENDMDL
MODEL       18
REMARK 921   NORMALIZED FREE ENERGY PREDICTED BY IDOCK:   -5.96 KCAL/MOL
REMARK 922        TOTAL FREE ENERGY PREDICTED BY IDOCK:   -9.55 KCAL/MOL
REMARK 923 INTER-LIGAND FREE ENERGY PREDICTED BY IDOCK:   -8.93 KCAL/MOL
REMARK 924 INTRA-LIGAND FREE ENERGY PREDICTED BY IDOCK:   -0.61 KCAL/MOL
REMARK 927      BINDING AFFINITY PREDICTED BY RF-SCORE:    0.00 PKD
ROOT
HETATM    1  C   UNL     1     -11.038   5.447  73.225  1.00  0.00    -0.352 C  
HETATM    2  C   UNL     1     -10.584   6.827  73.680  1.00  0.00    -0.347 C  
ENDROOT
BRANCH   2   3
HETATM    3  C   UNL     1     -10.960   7.891  72.689  1.00  0.00    -0.440 A  
HETATM    4  C   UNL     1     -10.001   8.484  71.885  1.00  0.00    -0.294 A  
HETATM    5  N   UNL     1     -10.264   9.468  71.000  1.00  0.00    -0.292 NA 
HETATM    6  C   UNL     1     -11.545   9.902  70.878  1.00  0.00    -0.373 A  
HETATM    7  C   UNL     1     -12.570   9.372  71.650  1.00  0.00    -0.460 A  
HETATM    8  C   UNL     1     -12.270   8.357  72.563  1.00  0.00    -0.381 A  
BRANCH   6   9
HETATM    9  C   UNL     1     -11.802  11.020  69.885  1.00  0.00    -0.431 C  
BRANCH   9  10
HETATM   10  C   UNL     1     -11.155  10.669  68.547  1.00  0.00    -0.263 C  
BRANCH  10  11
HETATM   11  O   UNL     1     -11.874  11.150  67.404  1.00  0.00    -0.570 OA 
BRANCH  11  12
HETATM   12  C   UNL     1     -11.429  12.386  66.970  1.00  0.00    -0.358 A  
HETATM   13  C   UNL     1     -12.225  13.336  66.324  1.00  0.00    -0.440 A  
HETATM   14  C   UNL     1     -11.719  14.586  65.979  1.00  0.00    -0.347 A  
HETATM   15  C   UNL     1     -10.402  14.926  66.291  1.00  0.00    -0.302 A  
HETATM   16  C   UNL     1      -9.578  13.959  66.885  1.00  0.00    -0.271 A  
HETATM   17  C   UNL     1     -10.094  12.697  67.226  1.00  0.00    -0.215 A  
BRANCH  15  18
HETATM   18  C   UNL     1      -9.925  16.341  66.056  1.00  0.00    -0.370 C  
BRANCH  18  19
HETATM   19  C   UNL     1     -10.716  17.364  66.881  1.00  0.00    -0.125 C  
HETATM   20  S   UNL     1     -10.142  17.531  68.611  1.00  0.00    -0.374 SA 
HETATM   21  C   UNL     1     -10.085  19.266  68.519  1.00  0.00    -0.430 C  
HETATM   22  N   UNL     1     -10.202  19.669  67.234  1.00  0.00    -0.402 N  
HETATM   23  O   UNL     1      -9.988  19.999  69.487  1.00  0.00    -0.247 OA 
HETATM   24  C   UNL     1     -10.606  18.759  66.304  1.00  0.00    -0.369 C  
HETATM   25  H   UNL     1      -9.992  20.631  66.966  1.00  0.00     0.000 HD 
HETATM   26  O   UNL     1     -10.909  19.066  65.159  1.00  0.00    -0.478 OA 
ENDBRANCH  18  19
ENDBRANCH  15  18
ENDBRANCH  11  12
ENDBRANCH  10  11
ENDBRANCH   9  10
ENDBRANCH   6   9
ENDBRANCH   2   3
TORSDOF 7
ENDMDL
MODEL       19
REMARK 921   NORMALIZED FREE ENERGY PREDICTED BY IDOCK:   -5.95 KCAL/MOL
REMARK 922        TOTAL FREE ENERGY PREDICTED BY IDOCK:   -9.52 KCAL/MOL
REMARK 923 INTER-LIGAND FREE ENERGY PREDICTED BY IDOCK:   -8.81 KCAL/MOL
REMARK 924 INTRA-LIGAND FREE ENERGY PREDICTED BY IDOCK:   -0.71 KCAL/MOL
REMARK 927      BINDING AFFINITY PREDICTED BY RF-SCORE:    0.00 PKD
ROOT
HETATM    1  C   UNL     1      -5.404   7.440  74.427  1.00  0.00    -0.058 C  
HETATM    2  C   UNL     1      -5.907   7.771  73.029  1.00  0.00    -0.045 C  
ENDROOT
BRANCH   2   3
HETATM    3  C   UNL     1      -7.407   7.768  72.962  1.00  0.00    -0.119 A  
HETATM    4  C   UNL     1      -8.074   8.400  71.925  1.00  0.00    -0.145 A  
HETATM    5  N   UNL     1      -9.417   8.465  71.822  1.00  0.00    -0.208 NA 
HETATM    6  C   UNL     1     -10.169   7.869  72.783  1.00  0.00    -0.314 A  
HETATM    7  C   UNL     1      -9.587   7.220  73.864  1.00  0.00    -0.322 A  
HETATM    8  C   UNL     1      -8.192   7.171  73.950  1.00  0.00    -0.156 A  
BRANCH   6   9
HETATM    9  C   UNL     1     -11.676   7.974  72.644  1.00  0.00    -0.418 C  
BRANCH   9  10
HETATM   10  C   UNL     1     -12.020   8.521  71.260  1.00  0.00    -0.294 C  
BRANCH  10  11
HETATM   11  O   UNL     1     -12.222   9.939  71.224  1.00  0.00    -0.330 OA 
BRANCH  11  12
HETATM   12  C   UNL     1     -11.773  10.516  70.049  1.00  0.00    -0.312 A  
HETATM   13  C   UNL     1     -11.154   9.820  69.007  1.00  0.00    -0.143 A  
HETATM   14  C   UNL     1     -10.792  10.462  67.826  1.00  0.00    -0.351 A  
HETATM   15  C   UNL     1     -11.059  11.821  67.649  1.00  0.00    -0.312 A  
HETATM   16  C   UNL     1     -11.625  12.540  68.711  1.00  0.00    -0.366 A  
HETATM   17  C   UNL     1     -11.984  11.887  69.903  1.00  0.00    -0.398 A  
BRANCH  15  18
HETATM   18  C   UNL     1     -10.807  12.457  66.302  1.00  0.00    -0.299 C  
BRANCH  18  19
HETATM   19  C   UNL     1     -11.715  13.668  66.054  1.00  0.00    -0.358 C  
HETATM   20  S   UNL     1     -10.812  15.245  65.835  1.00  0.00    -0.336 SA 
HETATM   21  C   UNL     1     -11.695  15.654  64.394  1.00  0.00    -0.218 C  
HETATM   22  N   UNL     1     -12.392  14.582  63.954  1.00  0.00    -1.047 N  
HETATM   23  O   UNL     1     -11.700  16.761  63.887  1.00  0.00    -1.076 OA 
HETATM   24  C   UNL     1     -12.528  13.512  64.787  1.00  0.00    -0.355 C  
HETATM   25  H   UNL     1     -12.805  14.574  63.022  1.00  0.00     0.000 HD 
HETATM   26  O   UNL     1     -13.281  12.576  64.551  1.00  0.00    -0.832 OA 
ENDBRANCH  18  19
ENDBRANCH  15  18
ENDBRANCH  11  12
ENDBRANCH  10  11
ENDBRANCH   9  10
ENDBRANCH   6   9
ENDBRANCH   2   3
TORSDOF 7
ENDMDL
MODEL       20
REMARK 921   NORMALIZED FREE ENERGY PREDICTED BY IDOCK:   -5.95 KCAL/MOL
REMARK 922        TOTAL FREE ENERGY PREDICTED BY IDOCK:   -9.52 KCAL/MOL
REMARK 923 INTER-LIGAND FREE ENERGY PREDICTED BY IDOCK:   -8.82 KCAL/MOL
REMARK 924 INTRA-LIGAND FREE ENERGY PREDICTED BY IDOCK:   -0.70 KCAL/MOL
REMARK 927      BINDING AFFINITY PREDICTED BY RF-SCORE:    0.00 PKD
ROOT
HETATM    1  C   UNL     1     -10.178   4.746  73.895  1.00  0.00    -0.248 C  
HETATM    2  C   UNL     1     -11.365   5.143  73.029  1.00  0.00    -0.381 C  
ENDROOT
BRANCH   2   3
HETATM    3  C   UNL     1     -11.129   6.448  72.326  1.00  0.00    -0.302 A  
HETATM    4  C   UNL     1     -11.639   6.675  71.058  1.00  0.00    -0.346 A  
HETATM    5  N   UNL     1     -11.437   7.810  70.356  1.00  0.00    -0.213 NA 
HETATM    6  C   UNL     1     -10.698   8.798  70.924  1.00  0.00    -0.227 A  
HETATM    7  C   UNL     1     -10.139   8.655  72.188  1.00  0.00    -0.388 A  
HETATM    8  C   UNL     1     -10.360   7.467  72.892  1.00  0.00    -0.349 A  
BRANCH   6   9
HETATM    9  C   UNL     1     -10.478  10.053  70.101  1.00  0.00    -0.338 C  
BRANCH   9  10
HETATM   10  C   UNL     1     -11.807  10.786  69.928  1.00  0.00    -0.335 C  
BRANCH  10  11
HETATM   11  O   UNL     1     -12.157  11.048  68.563  1.00  0.00    -0.573 OA 
BRANCH  11  12
HETATM   12  C   UNL     1     -11.655  12.253  68.102  1.00  0.00    -0.339 A  
HETATM   13  C   UNL     1     -12.015  13.507  68.603  1.00  0.00    -0.378 A  
HETATM   14  C   UNL     1     -11.413  14.671  68.131  1.00  0.00    -0.346 A  
HETATM   15  C   UNL     1     -10.418  14.606  67.155  1.00  0.00    -0.268 A  
HETATM   16  C   UNL     1     -10.093  13.358  66.604  1.00  0.00    -0.275 A  
HETATM   17  C   UNL     1     -10.708  12.188  67.081  1.00  0.00    -0.267 A  
BRANCH  15  18
HETATM   18  C   UNL     1      -9.666  15.862  66.778  1.00  0.00    -0.252 C  
BRANCH  18  19
HETATM   19  C   UNL     1     -10.511  17.126  66.979  1.00  0.00    -0.282 C  
HETATM   20  S   UNL     1      -9.805  18.313  68.180  1.00  0.00    -0.361 SA 
HETATM   21  C   UNL     1     -10.002  19.661  67.100  1.00  0.00    -0.387 C  
HETATM   22  N   UNL     1     -10.297  19.222  65.856  1.00  0.00    -0.456 N  
HETATM   23  O   UNL     1      -9.918  20.828  67.440  1.00  0.00    -0.426 OA 
HETATM   24  C   UNL     1     -10.655  17.917  65.697  1.00  0.00    -0.109 C  
HETATM   25  H   UNL     1     -10.251  19.852  65.054  1.00  0.00     0.000 HD 
HETATM   26  O   UNL     1     -11.106  17.473  64.649  1.00  0.00    -0.978 OA 
ENDBRANCH  18  19
ENDBRANCH  15  18
ENDBRANCH  11  12
ENDBRANCH  10  11
ENDBRANCH   9  10
ENDBRANCH   6   9
ENDBRANCH   2   3
TORSDOF 7
ENDMDL
MODEL       21
REMARK 921   NORMALIZED FREE ENERGY PREDICTED BY IDOCK:   -5.94 KCAL/MOL
REMARK 922        TOTAL FREE ENERGY PREDICTED BY IDOCK:   -9.52 KCAL/MOL
REMARK 923 INTER-LIGAND FREE ENERGY PREDICTED BY IDOCK:   -8.94 KCAL/MOL
REMARK 924 INTRA-LIGAND FREE ENERGY PREDICTED BY IDOCK:   -0.58 KCAL/MOL
REMARK 927      BINDING AFFINITY PREDICTED BY RF-SCORE:    0.00 PKD
ROOT
HETATM    1  C   UNL     1     -11.461   7.827  72.342  1.00  0.00    -0.418 C  
HETATM    2  C   UNL     1     -11.632   8.315  70.911  1.00  0.00    -0.282 C  
ENDROOT
BRANCH   2   3
HETATM    3  C   UNL     1     -11.974   9.776  70.858  1.00  0.00    -0.413 A  
HETATM    4  C   UNL     1     -11.397  10.607  69.911  1.00  0.00    -0.313 A  
HETATM    5  N   UNL     1     -11.633  11.932  69.829  1.00  0.00    -0.300 NA 
HETATM    6  C   UNL     1     -12.493  12.492  70.718  1.00  0.00    -0.268 A  
HETATM    7  C   UNL     1     -13.110  11.738  71.708  1.00  0.00    -0.480 A  
HETATM    8  C   UNL     1     -12.845  10.367  71.775  1.00  0.00    -0.561 A  
BRANCH   6   9
HETATM    9  C   UNL     1     -12.723  13.988  70.607  1.00  0.00    -0.373 C  
BRANCH   9  10
HETATM   10  C   UNL     1     -11.793  14.717  71.576  1.00  0.00    -0.280 C  
BRANCH  10  11
HETATM   11  O   UNL     1     -11.455  16.050  71.173  1.00  0.00    -0.396 OA 
BRANCH  11  12
HETATM   12  C   UNL     1     -10.816  16.094  69.946  1.00  0.00    -0.355 A  
HETATM   13  C   UNL     1      -9.533  15.595  69.700  1.00  0.00    -0.243 A  
HETATM   14  C   UNL     1      -8.986  15.616  68.420  1.00  0.00    -0.185 A  
HETATM   15  C   UNL     1      -9.720  16.120  67.345  1.00  0.00    -0.233 A  
HETATM   16  C   UNL     1     -10.983  16.677  67.592  1.00  0.00    -0.193 A  
HETATM   17  C   UNL     1     -11.528  16.658  68.888  1.00  0.00    -0.023 A  
BRANCH  15  18
HETATM   18  C   UNL     1      -9.172  15.982  65.942  1.00  0.00    -0.321 C  
BRANCH  18  19
HETATM   19  C   UNL     1      -9.935  14.935  65.122  1.00  0.00    -0.242 C  
HETATM   20  S   UNL     1     -10.324  13.403  66.045  1.00  0.00    -0.302 SA 
HETATM   21  C   UNL     1     -11.992  13.424  65.555  1.00  0.00    -0.398 C  
HETATM   22  N   UNL     1     -12.298  14.616  64.997  1.00  0.00    -0.336 N  
HETATM   23  O   UNL     1     -12.751  12.479  65.674  1.00  0.00    -0.521 OA 
HETATM   24  C   UNL     1     -11.279  15.454  64.658  1.00  0.00    -0.364 C  
HETATM   25  H   UNL     1     -13.269  14.883  64.833  1.00  0.00     0.000 HD 
HETATM   26  O   UNL     1     -11.443  16.468  63.993  1.00  0.00    -1.137 OA 
ENDBRANCH  18  19
ENDBRANCH  15  18
ENDBRANCH  11  12
ENDBRANCH  10  11
ENDBRANCH   9  10
ENDBRANCH   6   9
ENDBRANCH   2   3
TORSDOF 7
ENDMDL
MODEL       22
REMARK 921   NORMALIZED FREE ENERGY PREDICTED BY IDOCK:   -5.93 KCAL/MOL
REMARK 922        TOTAL FREE ENERGY PREDICTED BY IDOCK:   -9.51 KCAL/MOL
REMARK 923 INTER-LIGAND FREE ENERGY PREDICTED BY IDOCK:   -8.53 KCAL/MOL
REMARK 924 INTRA-LIGAND FREE ENERGY PREDICTED BY IDOCK:   -0.97 KCAL/MOL
REMARK 927      BINDING AFFINITY PREDICTED BY RF-SCORE:    0.00 PKD
ROOT
HETATM    1  C   UNL     1     -12.509  15.923  73.851  1.00  0.00    -0.744 C  
HETATM    2  C   UNL     1     -13.006  14.794  72.960  1.00  0.00    -0.609 C  
ENDROOT
BRANCH   2   3
HETATM    3  C   UNL     1     -12.468  14.909  71.563  1.00  0.00    -0.397 A  
HETATM    4  C   UNL     1     -12.782  13.963  70.600  1.00  0.00    -0.281 A  
HETATM    5  N   UNL     1     -12.306  13.986  69.338  1.00  0.00    -0.287 NA 
HETATM    6  C   UNL     1     -11.476  14.999  68.979  1.00  0.00    -0.304 A  
HETATM    7  C   UNL     1     -11.099  15.986  69.880  1.00  0.00    -0.352 A  
HETATM    8  C   UNL     1     -11.602  15.937  71.184  1.00  0.00    -0.481 A  
BRANCH   6   9
HETATM    9  C   UNL     1     -10.947  14.986  67.557  1.00  0.00    -0.307 C  
BRANCH   9  10
HETATM   10  C   UNL     1     -11.458  13.739  66.838  1.00  0.00    -0.347 C  
BRANCH  10  11
HETATM   11  O   UNL     1     -10.423  12.843  66.412  1.00  0.00    -0.261 OA 
BRANCH  11  12
HETATM   12  C   UNL     1     -10.211  11.805  67.302  1.00  0.00    -0.203 A  
HETATM   13  C   UNL     1      -9.284  11.832  68.349  1.00  0.00    -0.175 A  
HETATM   14  C   UNL     1      -9.179  10.771  69.245  1.00  0.00    -0.068 A  
HETATM   15  C   UNL     1     -10.016   9.660  69.127  1.00  0.00    -0.189 A  
HETATM   16  C   UNL     1     -10.906   9.598  68.046  1.00  0.00    -0.250 A  
HETATM   17  C   UNL     1     -11.004  10.670  67.142  1.00  0.00    -0.312 A  
BRANCH  15  18
HETATM   18  C   UNL     1      -9.996   8.599  70.204  1.00  0.00    -0.193 C  
BRANCH  18  19
HETATM   19  C   UNL     1     -10.675   9.072  71.495  1.00  0.00    -0.351 C  
HETATM   20  S   UNL     1     -12.243   9.977  71.225  1.00  0.00    -0.427 SA 
HETATM   21  C   UNL     1     -13.099   9.027  72.403  1.00  0.00    -0.423 C  
HETATM   22  N   UNL     1     -12.365   7.948  72.754  1.00  0.00    -0.591 N  
HETATM   23  O   UNL     1     -14.188   9.325  72.861  1.00  0.00    -0.465 OA 
HETATM   24  C   UNL     1     -11.052   7.911  72.391  1.00  0.00    -0.333 C  
HETATM   25  H   UNL     1     -12.783   7.178  73.277  1.00  0.00     0.000 HD 
HETATM   26  O   UNL     1     -10.268   7.069  72.808  1.00  0.00    -0.181 OA 
ENDBRANCH  18  19
ENDBRANCH  15  18
ENDBRANCH  11  12
ENDBRANCH  10  11
ENDBRANCH   9  10
ENDBRANCH   6   9
ENDBRANCH   2   3
TORSDOF 7
ENDMDL
MODEL       23
REMARK 921   NORMALIZED FREE ENERGY PREDICTED BY IDOCK:   -5.93 KCAL/MOL
REMARK 922        TOTAL FREE ENERGY PREDICTED BY IDOCK:   -9.50 KCAL/MOL
REMARK 923 INTER-LIGAND FREE ENERGY PREDICTED BY IDOCK:   -8.45 KCAL/MOL
REMARK 924 INTRA-LIGAND FREE ENERGY PREDICTED BY IDOCK:   -1.05 KCAL/MOL
REMARK 927      BINDING AFFINITY PREDICTED BY RF-SCORE:    0.00 PKD
ROOT
HETATM    1  C   UNL     1     -10.189   4.630  66.205  1.00  0.00    -0.306 C  
HETATM    2  C   UNL     1      -9.272   4.712  67.416  1.00  0.00    -0.146 C  
ENDROOT
BRANCH   2   3
HETATM    3  C   UNL     1     -10.002   5.197  68.635  1.00  0.00    -0.227 A  
HETATM    4  C   UNL     1     -11.017   6.135  68.530  1.00  0.00    -0.320 A  
HETATM    5  N   UNL     1     -11.690   6.638  69.585  1.00  0.00    -0.251 NA 
HETATM    6  C   UNL     1     -11.366   6.198  70.828  1.00  0.00    -0.295 A  
HETATM    7  C   UNL     1     -10.356   5.266  71.030  1.00  0.00    -0.298 A  
HETATM    8  C   UNL     1      -9.670   4.764  69.921  1.00  0.00    -0.274 A  
BRANCH   6   9
HETATM    9  C   UNL     1     -12.132   6.796  71.993  1.00  0.00    -0.344 C  
BRANCH   9  10
HETATM   10  C   UNL     1     -12.650   8.179  71.602  1.00  0.00    -0.320 C  
BRANCH  10  11
HETATM   11  O   UNL     1     -11.808   9.260  72.021  1.00  0.00    -0.363 OA 
BRANCH  11  12
HETATM   12  C   UNL     1     -11.353  10.028  70.963  1.00  0.00    -0.357 A  
HETATM   13  C   UNL     1     -10.173   9.785  70.255  1.00  0.00    -0.346 A  
HETATM   14  C   UNL     1      -9.818  10.564  69.156  1.00  0.00    -0.233 A  
HETATM   15  C   UNL     1     -10.650  11.599  68.726  1.00  0.00    -0.241 A  
HETATM   16  C   UNL     1     -11.806  11.888  69.466  1.00  0.00    -0.395 A  
HETATM   17  C   UNL     1     -12.155  11.101  70.577  1.00  0.00    -0.474 A  
BRANCH  15  18
HETATM   18  C   UNL     1     -10.328  12.323  67.438  1.00  0.00    -0.219 C  
BRANCH  18  19
HETATM   19  C   UNL     1     -11.424  12.140  66.381  1.00  0.00    -0.370 C  
HETATM   20  S   UNL     1     -12.182  13.706  65.814  1.00  0.00    -0.482 SA 
HETATM   21  C   UNL     1     -12.002  13.291  64.135  1.00  0.00    -0.447 C  
HETATM   22  N   UNL     1     -11.190  12.217  64.006  1.00  0.00    -0.357 N  
HETATM   23  O   UNL     1     -12.562  13.872  63.223  1.00  0.00    -0.824 OA 
HETATM   24  C   UNL     1     -10.888  11.495  65.121  1.00  0.00    -0.265 C  
HETATM   25  H   UNL     1     -10.812  11.955  63.096  1.00  0.00     0.000 HD 
HETATM   26  O   UNL     1     -10.312  10.416  65.080  1.00  0.00    -0.295 OA 
ENDBRANCH  18  19
ENDBRANCH  15  18
ENDBRANCH  11  12
ENDBRANCH  10  11
ENDBRANCH   9  10
ENDBRANCH   6   9
ENDBRANCH   2   3
TORSDOF 7
ENDMDL
MODEL       24
REMARK 921   NORMALIZED FREE ENERGY PREDICTED BY IDOCK:   -5.91 KCAL/MOL
REMARK 922        TOTAL FREE ENERGY PREDICTED BY IDOCK:   -9.47 KCAL/MOL
REMARK 923 INTER-LIGAND FREE ENERGY PREDICTED BY IDOCK:   -8.84 KCAL/MOL
REMARK 924 INTRA-LIGAND FREE ENERGY PREDICTED BY IDOCK:   -0.63 KCAL/MOL
REMARK 927      BINDING AFFINITY PREDICTED BY RF-SCORE:    0.00 PKD
ROOT
HETATM    1  C   UNL     1     -13.072  15.884  73.377  1.00  0.00    -0.694 C  
HETATM    2  C   UNL     1     -11.800  16.274  72.638  1.00  0.00    -0.596 C  
ENDROOT
BRANCH   2   3
HETATM    3  C   UNL     1     -11.769  15.708  71.248  1.00  0.00    -0.478 A  
HETATM    4  C   UNL     1     -12.568  14.631  70.901  1.00  0.00    -0.342 A  
HETATM    5  N   UNL     1     -12.565  14.052  69.683  1.00  0.00    -0.155 NA 
HETATM    6  C   UNL     1     -11.739  14.556  68.730  1.00  0.00    -0.327 A  
HETATM    7  C   UNL     1     -10.895  15.628  68.991  1.00  0.00    -0.254 A  
HETATM    8  C   UNL     1     -10.914  16.207  70.263  1.00  0.00    -0.345 A  
BRANCH   6   9
HETATM    9  C   UNL     1     -11.749  13.871  67.376  1.00  0.00    -0.422 C  
BRANCH   9  10
HETATM   10  C   UNL     1     -11.007  12.540  67.476  1.00  0.00    -0.251 C  
BRANCH  10  11
HETATM   11  O   UNL     1     -11.859  11.412  67.718  1.00  0.00    -0.595 OA 
BRANCH  11  12
HETATM   12  C   UNL     1     -11.567  10.764  68.906  1.00  0.00    -0.291 A  
HETATM   13  C   UNL     1     -12.396  10.756  70.031  1.00  0.00    -0.371 A  
HETATM   14  C   UNL     1     -12.062  10.022  71.167  1.00  0.00    -0.475 A  
HETATM   15  C   UNL     1     -10.894   9.258  71.196  1.00  0.00    -0.407 A  
HETATM   16  C   UNL     1     -10.027   9.308  70.095  1.00  0.00    -0.251 A  
HETATM   17  C   UNL     1     -10.367  10.055  68.954  1.00  0.00    -0.217 A  
BRANCH  15  18
HETATM   18  C   UNL     1     -10.635   8.343  72.372  1.00  0.00    -0.405 C  
BRANCH  18  19
HETATM   19  C   UNL     1     -10.747   6.862  71.989  1.00  0.00    -0.216 C  
HETATM   20  S   UNL     1      -9.795   5.738  73.075  1.00  0.00    -0.170 SA 
HETATM   21  C   UNL     1     -11.145   4.665  73.299  1.00  0.00    -0.321 C  
HETATM   22  N   UNL     1     -12.280   5.243  72.845  1.00  0.00    -0.403 N  
HETATM   23  O   UNL     1     -11.058   3.544  73.767  1.00  0.00    -0.229 OA 
HETATM   24  C   UNL     1     -12.174   6.364  72.077  1.00  0.00    -0.269 C  
HETATM   25  H   UNL     1     -13.194   4.851  73.071  1.00  0.00     0.000 HD 
HETATM   26  O   UNL     1     -13.122   6.854  71.479  1.00  0.00    -0.359 OA 
ENDBRANCH  18  19
ENDBRANCH  15  18
ENDBRANCH  11  12
ENDBRANCH  10  11
ENDBRANCH   9  10
ENDBRANCH   6   9
ENDBRANCH   2   3
TORSDOF 7
ENDMDL
MODEL       25
REMARK 921   NORMALIZED FREE ENERGY PREDICTED BY IDOCK:   -5.88 KCAL/MOL
REMARK 922        TOTAL FREE ENERGY PREDICTED BY IDOCK:   -9.43 KCAL/MOL
REMARK 923 INTER-LIGAND FREE ENERGY PREDICTED BY IDOCK:   -8.40 KCAL/MOL
REMARK 924 INTRA-LIGAND FREE ENERGY PREDICTED BY IDOCK:   -1.03 KCAL/MOL
REMARK 927      BINDING AFFINITY PREDICTED BY RF-SCORE:    0.00 PKD
ROOT
HETATM    1  C   UNL     1      -8.340   3.511  64.993  1.00  0.00    -0.097 C  
HETATM    2  C   UNL     1      -9.802   3.864  65.224  1.00  0.00    -0.178 C  
ENDROOT
BRANCH   2   3
HETATM    3  C   UNL     1     -10.004   4.567  66.535  1.00  0.00    -0.263 A  
HETATM    4  C   UNL     1      -9.393   4.106  67.690  1.00  0.00    -0.170 A  
HETATM    5  N   UNL     1      -9.558   4.668  68.905  1.00  0.00    -0.154 NA 
HETATM    6  C   UNL     1     -10.364   5.756  69.010  1.00  0.00    -0.245 A  
HETATM    7  C   UNL     1     -11.025   6.281  67.908  1.00  0.00    -0.421 A  
HETATM    8  C   UNL     1     -10.841   5.678  66.660  1.00  0.00    -0.280 A  
BRANCH   6   9
HETATM    9  C   UNL     1     -10.540   6.353  70.394  1.00  0.00    -0.294 C  
BRANCH   9  10
HETATM   10  C   UNL     1     -11.206   7.722  70.274  1.00  0.00    -0.206 C  
BRANCH  10  11
HETATM   11  O   UNL     1     -10.293   8.825  70.352  1.00  0.00    -0.188 OA 
BRANCH  11  12
HETATM   12  C   UNL     1     -10.248   9.568  69.185  1.00  0.00    -0.201 A  
HETATM   13  C   UNL     1      -9.235   9.480  68.226  1.00  0.00    -0.132 A  
HETATM   14  C   UNL     1      -9.296  10.212  67.043  1.00  0.00    -0.178 A  
HETATM   15  C   UNL     1     -10.389  11.041  66.781  1.00  0.00    -0.284 A  
HETATM   16  C   UNL     1     -11.380  11.181  67.762  1.00  0.00    -0.364 A  
HETATM   17  C   UNL     1     -11.309  10.443  68.957  1.00  0.00    -0.279 A  
BRANCH  15  18
HETATM   18  C   UNL     1     -10.514  11.697  65.424  1.00  0.00    -0.324 C  
BRANCH  18  19
HETATM   19  C   UNL     1     -11.599  12.780  65.402  1.00  0.00    -0.358 C  
HETATM   20  S   UNL     1     -10.957  14.482  65.606  1.00  0.00    -0.339 SA 
HETATM   21  C   UNL     1     -11.857  15.081  64.243  1.00  0.00    -0.275 C  
HETATM   22  N   UNL     1     -12.359  14.049  63.528  1.00  0.00    -1.118 N  
HETATM   23  O   UNL     1     -12.028  16.262  64.003  1.00  0.00    -0.955 OA 
HETATM   24  C   UNL     1     -12.342  12.806  64.084  1.00  0.00    -0.407 C  
HETATM   25  H   UNL     1     -12.741  14.198  62.594  1.00  0.00     0.000 HD 
HETATM   26  O   UNL     1     -12.927  11.849  63.595  1.00  0.00    -0.692 OA 
ENDBRANCH  18  19
ENDBRANCH  15  18
ENDBRANCH  11  12
ENDBRANCH  10  11
ENDBRANCH   9  10
ENDBRANCH   6   9
ENDBRANCH   2   3
TORSDOF 7
ENDMDL
MODEL       26
REMARK 921   NORMALIZED FREE ENERGY PREDICTED BY IDOCK:   -5.84 KCAL/MOL
REMARK 922        TOTAL FREE ENERGY PREDICTED BY IDOCK:   -9.38 KCAL/MOL
REMARK 923 INTER-LIGAND FREE ENERGY PREDICTED BY IDOCK:   -8.95 KCAL/MOL
REMARK 924 INTRA-LIGAND FREE ENERGY PREDICTED BY IDOCK:   -0.43 KCAL/MOL
REMARK 927      BINDING AFFINITY PREDICTED BY RF-SCORE:    0.00 PKD
ROOT
HETATM    1  C   UNL     1     -11.006   5.125  72.589  1.00  0.00    -0.303 C  
HETATM    2  C   UNL     1     -10.860   5.868  71.269  1.00  0.00    -0.333 C  
ENDROOT
BRANCH   2   3
HETATM    3  C   UNL     1     -11.497   7.227  71.322  1.00  0.00    -0.304 A  
HETATM    4  C   UNL     1     -10.735   8.375  71.179  1.00  0.00    -0.230 A  
HETATM    5  N   UNL     1     -11.235   9.625  71.250  1.00  0.00    -0.370 NA 
HETATM    6  C   UNL     1     -12.568   9.777  71.465  1.00  0.00    -0.398 A  
HETATM    7  C   UNL     1     -13.408   8.683  71.630  1.00  0.00    -0.386 A  
HETATM    8  C   UNL     1     -12.863   7.397  71.557  1.00  0.00    -0.416 A  
BRANCH   6   9
HETATM    9  C   UNL     1     -13.095  11.197  71.555  1.00  0.00    -0.489 C  
BRANCH   9  10
HETATM   10  C   UNL     1     -12.378  12.069  70.527  1.00  0.00    -0.282 C  
BRANCH  10  11
HETATM   11  O   UNL     1     -12.504  13.477  70.765  1.00  0.00    -0.351 OA 
BRANCH  11  12
HETATM   12  C   UNL     1     -11.912  14.244  69.776  1.00  0.00    -0.339 A  
HETATM   13  C   UNL     1     -11.582  13.779  68.500  1.00  0.00    -0.373 A  
HETATM   14  C   UNL     1     -11.050  14.632  67.537  1.00  0.00    -0.319 A  
HETATM   15  C   UNL     1     -10.853  15.984  67.822  1.00  0.00    -0.324 A  
HETATM   16  C   UNL     1     -11.126  16.447  69.117  1.00  0.00    -0.303 A  
HETATM   17  C   UNL     1     -11.657  15.579  70.087  1.00  0.00    -0.355 A  
BRANCH  15  18
HETATM   18  C   UNL     1     -10.431  16.922  66.714  1.00  0.00    -0.260 C  
BRANCH  18  19
HETATM   19  C   UNL     1     -10.193  18.349  67.222  1.00  0.00    -0.374 C  
HETATM   20  S   UNL     1      -8.566  18.594  68.024  1.00  0.00    -0.307 SA 
HETATM   21  C   UNL     1      -8.224  20.026  67.098  1.00  0.00    -0.322 C  
HETATM   22  N   UNL     1      -9.109  20.145  66.082  1.00  0.00    -0.584 N  
HETATM   23  O   UNL     1      -7.335  20.814  67.361  1.00  0.00    -0.336 OA 
HETATM   24  C   UNL     1     -10.222  19.360  66.097  1.00  0.00    -0.484 C  
HETATM   25  H   UNL     1      -8.947  20.807  65.323  1.00  0.00     0.000 HD 
HETATM   26  O   UNL     1     -11.159  19.517  65.325  1.00  0.00    -0.406 OA 
ENDBRANCH  18  19
ENDBRANCH  15  18
ENDBRANCH  11  12
ENDBRANCH  10  11
ENDBRANCH   9  10
ENDBRANCH   6   9
ENDBRANCH   2   3
TORSDOF 7
ENDMDL
MODEL       27
REMARK 921   NORMALIZED FREE ENERGY PREDICTED BY IDOCK:   -5.80 KCAL/MOL
REMARK 922        TOTAL FREE ENERGY PREDICTED BY IDOCK:   -9.32 KCAL/MOL
REMARK 923 INTER-LIGAND FREE ENERGY PREDICTED BY IDOCK:   -8.59 KCAL/MOL
REMARK 924 INTRA-LIGAND FREE ENERGY PREDICTED BY IDOCK:   -0.72 KCAL/MOL
REMARK 927      BINDING AFFINITY PREDICTED BY RF-SCORE:    0.00 PKD
ROOT
HETATM    1  C   UNL     1     -10.802   3.966  74.131  1.00  0.00    -0.233 C  
HETATM    2  C   UNL     1     -10.862   5.412  73.661  1.00  0.00    -0.321 C  
ENDROOT
BRANCH   2   3
HETATM    3  C   UNL     1     -10.793   5.513  72.165  1.00  0.00    -0.293 A  
HETATM    4  C   UNL     1      -9.924   4.716  71.437  1.00  0.00    -0.197 A  
HETATM    5  N   UNL     1      -9.787   4.779  70.097  1.00  0.00    -0.220 NA 
HETATM    6  C   UNL     1     -10.550   5.668  69.410  1.00  0.00    -0.304 A  
HETATM    7  C   UNL     1     -11.442   6.514  70.057  1.00  0.00    -0.476 A  
HETATM    8  C   UNL     1     -11.562   6.432  71.447  1.00  0.00    -0.368 A  
BRANCH   6   9
HETATM    9  C   UNL     1     -10.359   5.724  67.906  1.00  0.00    -0.266 C  
BRANCH   9  10
HETATM   10  C   UNL     1      -9.076   6.488  67.586  1.00  0.00    -0.112 C  
BRANCH  10  11
HETATM   11  O   UNL     1      -9.003   7.787  68.189  1.00  0.00    -0.128 OA 
BRANCH  11  12
HETATM   12  C   UNL     1      -9.171   8.813  67.276  1.00  0.00    -0.139 A  
HETATM   13  C   UNL     1      -8.437   8.955  66.095  1.00  0.00    -0.133 A  
HETATM   14  C   UNL     1      -8.714   9.979  65.192  1.00  0.00    -0.183 A  
HETATM   15  C   UNL     1      -9.751  10.879  65.441  1.00  0.00    -0.287 A  
HETATM   16  C   UNL     1     -10.453  10.781  66.651  1.00  0.00    -0.302 A  
HETATM   17  C   UNL     1     -10.165   9.749  67.560  1.00  0.00    -0.271 A  
BRANCH  15  18
HETATM   18  C   UNL     1     -10.138  11.878  64.375  1.00  0.00    -0.310 C  
BRANCH  18  19
HETATM   19  C   UNL     1     -11.009  13.011  64.931  1.00  0.00    -0.307 C  
HETATM   20  S   UNL     1     -10.120  14.595  65.152  1.00  0.00    -0.241 SA 
HETATM   21  C   UNL     1     -11.355  15.506  64.335  1.00  0.00    -0.252 C  
HETATM   22  N   UNL     1     -12.208  14.670  63.702  1.00  0.00    -1.049 N  
HETATM   23  O   UNL     1     -11.444  16.720  64.367  1.00  0.00    -1.024 OA 
HETATM   24  C   UNL     1     -12.160  13.343  64.005  1.00  0.00    -0.449 C  
HETATM   25  H   UNL     1     -12.873  15.024  63.013  1.00  0.00     0.000 HD 
HETATM   26  O   UNL     1     -13.000  12.540  63.621  1.00  0.00    -0.730 OA 
ENDBRANCH  18  19
ENDBRANCH  15  18
ENDBRANCH  11  12
ENDBRANCH  10  11
ENDBRANCH   9  10
ENDBRANCH   6   9
ENDBRANCH   2   3
TORSDOF 7
ENDMDL
MODEL       28
REMARK 921   NORMALIZED FREE ENERGY PREDICTED BY IDOCK:   -5.78 KCAL/MOL
REMARK 922        TOTAL FREE ENERGY PREDICTED BY IDOCK:   -9.29 KCAL/MOL
REMARK 923 INTER-LIGAND FREE ENERGY PREDICTED BY IDOCK:   -7.98 KCAL/MOL
REMARK 924 INTRA-LIGAND FREE ENERGY PREDICTED BY IDOCK:   -1.31 KCAL/MOL
REMARK 927      BINDING AFFINITY PREDICTED BY RF-SCORE:    0.00 PKD
ROOT
HETATM    1  C   UNL     1     -12.108  14.738  69.467  1.00  0.00    -0.328 C  
HETATM    2  C   UNL     1     -11.679  15.538  68.246  1.00  0.00    -0.287 C  
ENDROOT
BRANCH   2   3
HETATM    3  C   UNL     1     -11.436  14.652  67.058  1.00  0.00    -0.379 A  
HETATM    4  C   UNL     1     -10.370  14.885  66.204  1.00  0.00    -0.301 A  
HETATM    5  N   UNL     1     -10.114  14.151  65.102  1.00  0.00    -0.357 NA 
HETATM    6  C   UNL     1     -10.940  13.114  64.809  1.00  0.00    -0.336 A  
HETATM    7  C   UNL     1     -12.039  12.812  65.604  1.00  0.00    -0.514 A  
HETATM    8  C   UNL     1     -12.285  13.591  66.738  1.00  0.00    -0.392 A  
BRANCH   6   9
HETATM    9  C   UNL     1     -10.633  12.319  63.554  1.00  0.00    -0.488 C  
BRANCH   9  10
HETATM   10  C   UNL     1     -10.148  10.924  63.944  1.00  0.00    -0.361 C  
BRANCH  10  11
HETATM   11  O   UNL     1      -9.004  10.922  64.808  1.00  0.00    -0.191 OA 
BRANCH  11  12
HETATM   12  C   UNL     1      -9.340  10.789  66.144  1.00  0.00    -0.183 A  
HETATM   13  C   UNL     1      -8.842  11.593  67.173  1.00  0.00    -0.172 A  
HETATM   14  C   UNL     1      -9.282  11.440  68.485  1.00  0.00    -0.174 A  
HETATM   15  C   UNL     1     -10.253  10.486  68.798  1.00  0.00    -0.205 A  
HETATM   16  C   UNL     1     -10.714   9.636  67.783  1.00  0.00    -0.316 A  
HETATM   17  C   UNL     1     -10.262   9.792  66.462  1.00  0.00    -0.289 A  
BRANCH  15  18
HETATM   18  C   UNL     1     -10.833  10.449  70.193  1.00  0.00    -0.333 C  
BRANCH  18  19
HETATM   19  C   UNL     1     -11.273   9.038  70.600  1.00  0.00    -0.270 C  
HETATM   20  S   UNL     1      -9.994   8.089  71.502  1.00  0.00    -0.185 SA 
HETATM   21  C   UNL     1     -11.098   7.625  72.763  1.00  0.00    -0.383 C  
HETATM   22  N   UNL     1     -12.237   8.348  72.673  1.00  0.00    -0.537 N  
HETATM   23  O   UNL     1     -10.876   6.749  73.578  1.00  0.00    -0.295 OA 
HETATM   24  C   UNL     1     -12.461   9.067  71.537  1.00  0.00    -0.331 C  
HETATM   25  H   UNL     1     -12.912   8.357  73.438  1.00  0.00     0.000 HD 
HETATM   26  O   UNL     1     -13.532   9.606  71.290  1.00  0.00    -0.376 OA 
ENDBRANCH  18  19
ENDBRANCH  15  18
ENDBRANCH  11  12
ENDBRANCH  10  11
ENDBRANCH   9  10
ENDBRANCH   6   9
ENDBRANCH   2   3
TORSDOF 7
ENDMDL
MODEL       29
REMARK 921   NORMALIZED FREE ENERGY PREDICTED BY IDOCK:   -5.76 KCAL/MOL
REMARK 922        TOTAL FREE ENERGY PREDICTED BY IDOCK:   -9.26 KCAL/MOL
REMARK 923 INTER-LIGAND FREE ENERGY PREDICTED BY IDOCK:   -8.74 KCAL/MOL
REMARK 924 INTRA-LIGAND FREE ENERGY PREDICTED BY IDOCK:   -0.53 KCAL/MOL
REMARK 927      BINDING AFFINITY PREDICTED BY RF-SCORE:    0.00 PKD
ROOT
HETATM    1  C   UNL     1     -10.282  19.852  68.760  1.00  0.00    -0.451 C  
HETATM    2  C   UNL     1      -9.936  19.484  67.325  1.00  0.00    -0.493 C  
ENDROOT
BRANCH   2   3
HETATM    3  C   UNL     1     -10.205  18.035  67.041  1.00  0.00    -0.367 A  
HETATM    4  C   UNL     1     -10.208  17.553  65.742  1.00  0.00    -0.173 A  
HETATM    5  N   UNL     1     -10.476  16.272  65.414  1.00  0.00    -0.551 NA 
HETATM    6  C   UNL     1     -10.751  15.393  66.412  1.00  0.00    -0.311 A  
HETATM    7  C   UNL     1     -10.779  15.789  67.743  1.00  0.00    -0.307 A  
HETATM    8  C   UNL     1     -10.503  17.123  68.056  1.00  0.00    -0.369 A  
BRANCH   6   9
HETATM    9  C   UNL     1     -11.063  13.965  66.007  1.00  0.00    -0.289 C  
BRANCH   9  10
HETATM   10  C   UNL     1     -11.686  13.227  67.190  1.00  0.00    -0.376 C  
BRANCH  10  11
HETATM   11  O   UNL     1     -11.934  11.836  66.948  1.00  0.00    -0.605 OA 
BRANCH  11  12
HETATM   12  C   UNL     1     -11.622  11.039  68.036  1.00  0.00    -0.249 A  
HETATM   13  C   UNL     1     -10.824   9.893  67.978  1.00  0.00    -0.294 A  
HETATM   14  C   UNL     1     -10.500   9.181  69.130  1.00  0.00    -0.230 A  
HETATM   15  C   UNL     1     -10.953   9.612  70.378  1.00  0.00    -0.356 A  
HETATM   16  C   UNL     1     -11.803  10.726  70.439  1.00  0.00    -0.450 A  
HETATM   17  C   UNL     1     -12.131  11.437  69.271  1.00  0.00    -0.356 A  
BRANCH  15  18
HETATM   18  C   UNL     1     -10.455   8.922  71.627  1.00  0.00    -0.408 C  
BRANCH  18  19
HETATM   19  C   UNL     1     -10.581   7.396  71.535  1.00  0.00    -0.206 C  
HETATM   20  S   UNL     1      -9.602   6.490  72.789  1.00  0.00    -0.149 SA 
HETATM   21  C   UNL     1     -10.948   5.488  73.246  1.00  0.00    -0.292 C  
HETATM   22  N   UNL     1     -12.093   5.979  72.720  1.00  0.00    -0.520 N  
HETATM   23  O   UNL     1     -10.850   4.476  73.915  1.00  0.00    -0.257 OA 
HETATM   24  C   UNL     1     -12.005   6.933  71.752  1.00  0.00    -0.333 C  
HETATM   25  H   UNL     1     -13.001   5.643  73.040  1.00  0.00     0.000 HD 
HETATM   26  O   UNL     1     -12.968   7.308  71.096  1.00  0.00    -0.346 OA 
ENDBRANCH  18  19
ENDBRANCH  15  18
ENDBRANCH  11  12
ENDBRANCH  10  11
ENDBRANCH   9  10
ENDBRANCH   6   9
ENDBRANCH   2   3
TORSDOF 7
ENDMDL
MODEL       30
REMARK 921   NORMALIZED FREE ENERGY PREDICTED BY IDOCK:   -5.74 KCAL/MOL
REMARK 922        TOTAL FREE ENERGY PREDICTED BY IDOCK:   -9.23 KCAL/MOL
REMARK 923 INTER-LIGAND FREE ENERGY PREDICTED BY IDOCK:   -8.93 KCAL/MOL
REMARK 924 INTRA-LIGAND FREE ENERGY PREDICTED BY IDOCK:   -0.31 KCAL/MOL
REMARK 927      BINDING AFFINITY PREDICTED BY RF-SCORE:    0.00 PKD
ROOT
HETATM    1  C   UNL     1      -8.521   4.950  72.741  1.00  0.00    -0.115 C  
HETATM    2  C   UNL     1      -9.754   4.786  71.864  1.00  0.00    -0.219 C  
ENDROOT
BRANCH   2   3
HETATM    3  C   UNL     1     -10.493   6.083  71.696  1.00  0.00    -0.276 A  
HETATM    4  C   UNL     1     -11.221   6.342  70.546  1.00  0.00    -0.354 A  
HETATM    5  N   UNL     1     -11.880   7.496  70.316  1.00  0.00    -0.038 NA 
HETATM    6  C   UNL     1     -11.839   8.465  71.267  1.00  0.00    -0.289 A  
HETATM    7  C   UNL     1     -11.127   8.296  72.448  1.00  0.00    -0.447 A  
HETATM    8  C   UNL     1     -10.449   7.092  72.660  1.00  0.00    -0.269 A  
BRANCH   6   9
HETATM    9  C   UNL     1     -12.577   9.756  70.969  1.00  0.00    -0.406 C  
BRANCH   9  10
HETATM   10  C   UNL     1     -11.637  10.722  70.251  1.00  0.00    -0.338 C  
BRANCH  10  11
HETATM   11  O   UNL     1     -12.160  12.049  70.106  1.00  0.00    -0.322 OA 
BRANCH  11  12
HETATM   12  C   UNL     1     -11.473  12.798  69.165  1.00  0.00    -0.306 A  
HETATM   13  C   UNL     1     -10.223  12.461  68.641  1.00  0.00    -0.169 A  
HETATM   14  C   UNL     1      -9.627  13.231  67.645  1.00  0.00    -0.213 A  
HETATM   15  C   UNL     1     -10.282  14.353  67.133  1.00  0.00    -0.257 A  
HETATM   16  C   UNL     1     -11.509  14.732  67.695  1.00  0.00    -0.363 A  
HETATM   17  C   UNL     1     -12.102  13.953  68.704  1.00  0.00    -0.337 A  
BRANCH  15  18
HETATM   18  C   UNL     1      -9.694  15.076  65.944  1.00  0.00    -0.376 C  
BRANCH  18  19
HETATM   19  C   UNL     1     -10.241  14.545  64.613  1.00  0.00    -0.013 C  
HETATM   20  S   UNL     1     -10.673  12.767  64.642  1.00  0.00    -0.359 SA 
HETATM   21  C   UNL     1     -12.236  13.043  63.932  1.00  0.00    -0.437 C  
HETATM   22  N   UNL     1     -12.525  14.363  63.941  1.00  0.00    -1.005 N  
HETATM   23  O   UNL     1     -12.940  12.165  63.466  1.00  0.00    -0.794 OA 
HETATM   24  C   UNL     1     -11.522  15.244  64.212  1.00  0.00    -0.153 C  
HETATM   25  H   UNL     1     -13.472  14.693  63.751  1.00  0.00     0.000 HD 
HETATM   26  O   UNL     1     -11.642  16.454  64.072  1.00  0.00    -1.071 OA 
ENDBRANCH  18  19
ENDBRANCH  15  18
ENDBRANCH  11  12
ENDBRANCH  10  11
ENDBRANCH   9  10
ENDBRANCH   6   9
ENDBRANCH   2   3
TORSDOF 7
ENDMDL
MODEL       31
REMARK 921   NORMALIZED FREE ENERGY PREDICTED BY IDOCK:   -5.69 KCAL/MOL
REMARK 922        TOTAL FREE ENERGY PREDICTED BY IDOCK:   -9.17 KCAL/MOL
REMARK 923 INTER-LIGAND FREE ENERGY PREDICTED BY IDOCK:   -8.04 KCAL/MOL
REMARK 924 INTRA-LIGAND FREE ENERGY PREDICTED BY IDOCK:   -1.12 KCAL/MOL
REMARK 927      BINDING AFFINITY PREDICTED BY RF-SCORE:    0.00 PKD
ROOT
HETATM    1  C   UNL     1     -13.165  10.753  71.890  1.00  0.00    -0.524 C  
HETATM    2  C   UNL     1     -13.317   9.337  72.426  1.00  0.00    -0.521 C  
ENDROOT
BRANCH   2   3
HETATM    3  C   UNL     1     -12.278   8.413  71.858  1.00  0.00    -0.395 A  
HETATM    4  C   UNL     1     -12.645   7.253  71.196  1.00  0.00    -0.323 A  
HETATM    5  N   UNL     1     -11.765   6.363  70.692  1.00  0.00    -0.360 NA 
HETATM    6  C   UNL     1     -10.438   6.617  70.830  1.00  0.00    -0.216 A  
HETATM    7  C   UNL     1      -9.978   7.750  71.488  1.00  0.00    -0.205 A  
HETATM    8  C   UNL     1     -10.910   8.654  72.005  1.00  0.00    -0.430 A  
BRANCH   6   9
HETATM    9  C   UNL     1      -9.477   5.587  70.266  1.00  0.00    -0.211 C  
BRANCH   9  10
HETATM   10  C   UNL     1      -8.715   6.197  69.091  1.00  0.00    -0.121 C  
BRANCH  10  11
HETATM   11  O   UNL     1      -9.531   6.478  67.946  1.00  0.00    -0.122 OA 
BRANCH  11  12
HETATM   12  C   UNL     1      -9.470   7.805  67.556  1.00  0.00    -0.141 A  
HETATM   13  C   UNL     1      -8.318   8.443  67.088  1.00  0.00    -0.122 A  
HETATM   14  C   UNL     1      -8.353   9.764  66.649  1.00  0.00    -0.124 A  
HETATM   15  C   UNL     1      -9.554  10.477  66.649  1.00  0.00    -0.210 A  
HETATM   16  C   UNL     1     -10.701   9.864  67.173  1.00  0.00    -0.276 A  
HETATM   17  C   UNL     1     -10.657   8.532  67.620  1.00  0.00    -0.268 A  
BRANCH  15  18
HETATM   18  C   UNL     1      -9.602  11.849  66.018  1.00  0.00    -0.251 C  
BRANCH  18  19
HETATM   19  C   UNL     1     -11.003  12.202  65.504  1.00  0.00    -0.301 C  
HETATM   20  S   UNL     1     -11.527  13.914  65.884  1.00  0.00    -0.335 SA 
HETATM   21  C   UNL     1     -12.031  14.218  64.247  1.00  0.00    -0.425 C  
HETATM   22  N   UNL     1     -11.582  13.237  63.432  1.00  0.00    -0.682 N  
HETATM   23  O   UNL     1     -12.718  15.165  63.908  1.00  0.00    -0.759 OA 
HETATM   24  C   UNL     1     -11.093  12.098  63.997  1.00  0.00    -0.386 C  
HETATM   25  H   UNL     1     -11.609  13.347  62.418  1.00  0.00     0.000 HD 
HETATM   26  O   UNL     1     -10.830  11.093  63.350  1.00  0.00    -0.335 OA 
ENDBRANCH  18  19
ENDBRANCH  15  18
ENDBRANCH  11  12
ENDBRANCH  10  11
ENDBRANCH   9  10
ENDBRANCH   6   9
ENDBRANCH   2   3
TORSDOF 7
ENDMDL
MODEL       32
REMARK 921   NORMALIZED FREE ENERGY PREDICTED BY IDOCK:   -5.69 KCAL/MOL
REMARK 922        TOTAL FREE ENERGY PREDICTED BY IDOCK:   -9.16 KCAL/MOL
REMARK 923 INTER-LIGAND FREE ENERGY PREDICTED BY IDOCK:   -8.38 KCAL/MOL
REMARK 924 INTRA-LIGAND FREE ENERGY PREDICTED BY IDOCK:   -0.79 KCAL/MOL
REMARK 927      BINDING AFFINITY PREDICTED BY RF-SCORE:    0.00 PKD
ROOT
HETATM    1  C   UNL     1     -14.408   8.523  71.823  1.00  0.00    -0.522 C  
HETATM    2  C   UNL     1     -13.599   7.259  71.569  1.00  0.00    -0.442 C  
ENDROOT
BRANCH   2   3
HETATM    3  C   UNL     1     -12.145   7.563  71.354  1.00  0.00    -0.354 A  
HETATM    4  C   UNL     1     -11.399   6.850  70.429  1.00  0.00    -0.328 A  
HETATM    5  N   UNL     1     -10.083   7.047  70.210  1.00  0.00    -0.187 NA 
HETATM    6  C   UNL     1      -9.445   8.008  70.927  1.00  0.00    -0.161 A  
HETATM    7  C   UNL     1     -10.110   8.766  71.882  1.00  0.00    -0.409 A  
HETATM    8  C   UNL     1     -11.473   8.538  72.094  1.00  0.00    -0.446 A  
BRANCH   6   9
HETATM    9  C   UNL     1      -7.962   8.193  70.666  1.00  0.00    -0.096 C  
BRANCH   9  10
HETATM   10  C   UNL     1      -7.670   9.674  70.432  1.00  0.00    -0.160 C  
BRANCH  10  11
HETATM   11  O   UNL     1      -6.928   9.942  69.235  1.00  0.00    -0.053 OA 
BRANCH  11  12
HETATM   12  C   UNL     1      -7.725  10.403  68.201  1.00  0.00    -0.092 A  
HETATM   13  C   UNL     1      -7.287  10.606  66.890  1.00  0.00    -0.114 A  
HETATM   14  C   UNL     1      -8.168  11.007  65.889  1.00  0.00    -0.100 A  
HETATM   15  C   UNL     1      -9.521  11.198  66.174  1.00  0.00    -0.229 A  
HETATM   16  C   UNL     1      -9.958  11.055  67.499  1.00  0.00    -0.199 A  
HETATM   17  C   UNL     1      -9.062  10.655  68.505  1.00  0.00    -0.159 A  
BRANCH  15  18
HETATM   18  C   UNL     1     -10.486  11.473  65.043  1.00  0.00    -0.344 C  
BRANCH  18  19
HETATM   19  C   UNL     1     -11.349  12.713  65.306  1.00  0.00    -0.315 C  
HETATM   20  S   UNL     1     -10.410  14.284  65.320  1.00  0.00    -0.403 SA 
HETATM   21  C   UNL     1     -11.530  15.067  64.244  1.00  0.00    -0.128 C  
HETATM   22  N   UNL     1     -12.364  14.155  63.696  1.00  0.00    -1.092 N  
HETATM   23  O   UNL     1     -11.566  16.269  64.051  1.00  0.00    -0.953 OA 
HETATM   24  C   UNL     1     -12.401  12.904  64.235  1.00  0.00    -0.385 C  
HETATM   25  H   UNL     1     -12.952  14.396  62.898  1.00  0.00     0.000 HD 
HETATM   26  O   UNL     1     -13.242  12.070  63.927  1.00  0.00    -0.705 OA 
ENDBRANCH  18  19
ENDBRANCH  15  18
ENDBRANCH  11  12
ENDBRANCH  10  11
ENDBRANCH   9  10
ENDBRANCH   6   9
ENDBRANCH   2   3
TORSDOF 7
ENDMDL
MODEL       33
REMARK 921   NORMALIZED FREE ENERGY PREDICTED BY IDOCK:   -5.67 KCAL/MOL
REMARK 922        TOTAL FREE ENERGY PREDICTED BY IDOCK:   -9.14 KCAL/MOL
REMARK 923 INTER-LIGAND FREE ENERGY PREDICTED BY IDOCK:   -8.59 KCAL/MOL
REMARK 924 INTRA-LIGAND FREE ENERGY PREDICTED BY IDOCK:   -0.55 KCAL/MOL
REMARK 927      BINDING AFFINITY PREDICTED BY RF-SCORE:    0.00 PKD
ROOT
HETATM    1  C   UNL     1     -10.139   6.265  74.372  1.00  0.00    -0.355 C  
HETATM    2  C   UNL     1      -9.291   7.160  73.480  1.00  0.00    -0.231 C  
ENDROOT
BRANCH   2   3
HETATM    3  C   UNL     1     -10.139   8.017  72.585  1.00  0.00    -0.370 A  
HETATM    4  C   UNL     1      -9.560   8.833  71.626  1.00  0.00    -0.293 A  
HETATM    5  N   UNL     1     -10.259   9.652  70.813  1.00  0.00    -0.290 NA 
HETATM    6  C   UNL     1     -11.612   9.678  70.929  1.00  0.00    -0.344 A  
HETATM    7  C   UNL     1     -12.277   8.901  71.868  1.00  0.00    -0.445 A  
HETATM    8  C   UNL     1     -11.530   8.064  72.702  1.00  0.00    -0.465 A  
BRANCH   6   9
HETATM    9  C   UNL     1     -12.365  10.622  70.010  1.00  0.00    -0.341 C  
BRANCH   9  10
HETATM   10  C   UNL     1     -11.544  10.858  68.743  1.00  0.00    -0.309 C  
BRANCH  10  11
HETATM   11  O   UNL     1     -12.209  11.656  67.756  1.00  0.00    -0.560 OA 
BRANCH  11  12
HETATM   12  C   UNL     1     -11.694  12.937  67.665  1.00  0.00    -0.370 A  
HETATM   13  C   UNL     1     -10.898  13.401  66.614  1.00  0.00    -0.285 A  
HETATM   14  C   UNL     1     -10.474  14.727  66.562  1.00  0.00    -0.291 A  
HETATM   15  C   UNL     1     -10.856  15.631  67.555  1.00  0.00    -0.316 A  
HETATM   16  C   UNL     1     -11.604  15.160  68.643  1.00  0.00    -0.358 A  
HETATM   17  C   UNL     1     -12.024  13.820  68.693  1.00  0.00    -0.401 A  
BRANCH  15  18
HETATM   18  C   UNL     1     -10.522  17.096  67.392  1.00  0.00    -0.334 C  
BRANCH  18  19
HETATM   19  C   UNL     1      -9.630  17.617  68.525  1.00  0.00    -0.315 C  
HETATM   20  S   UNL     1      -7.934  16.927  68.515  1.00  0.00    -0.252 SA 
HETATM   21  C   UNL     1      -7.199  18.495  68.675  1.00  0.00    -0.287 C  
HETATM   22  N   UNL     1      -8.118  19.464  68.463  1.00  0.00    -0.353 N  
HETATM   23  O   UNL     1      -6.032  18.676  68.971  1.00  0.00    -0.213 OA 
HETATM   24  C   UNL     1      -9.435  19.115  68.445  1.00  0.00    -0.369 C  
HETATM   25  H   UNL     1      -7.832  20.433  68.320  1.00  0.00     0.000 HD 
HETATM   26  O   UNL     1     -10.342  19.937  68.437  1.00  0.00    -0.450 OA 
ENDBRANCH  18  19
ENDBRANCH  15  18
ENDBRANCH  11  12
ENDBRANCH  10  11
ENDBRANCH   9  10
ENDBRANCH   6   9
ENDBRANCH   2   3
TORSDOF 7
ENDMDL
MODEL       34
REMARK 921   NORMALIZED FREE ENERGY PREDICTED BY IDOCK:   -5.64 KCAL/MOL
REMARK 922        TOTAL FREE ENERGY PREDICTED BY IDOCK:   -9.09 KCAL/MOL
REMARK 923 INTER-LIGAND FREE ENERGY PREDICTED BY IDOCK:   -7.86 KCAL/MOL
REMARK 924 INTRA-LIGAND FREE ENERGY PREDICTED BY IDOCK:   -1.23 KCAL/MOL
REMARK 927      BINDING AFFINITY PREDICTED BY RF-SCORE:    0.00 PKD
ROOT
HETATM    1  C   UNL     1     -13.456  12.813  72.203  1.00  0.00    -0.591 C  
HETATM    2  C   UNL     1     -12.734  12.197  71.014  1.00  0.00    -0.322 C  
ENDROOT
BRANCH   2   3
HETATM    3  C   UNL     1     -12.513  10.724  71.199  1.00  0.00    -0.519 A  
HETATM    4  C   UNL     1     -13.490   9.925  71.772  1.00  0.00    -0.353 A  
HETATM    5  N   UNL     1     -13.345   8.603  71.998  1.00  0.00    -0.368 NA 
HETATM    6  C   UNL     1     -12.179   8.010  71.638  1.00  0.00    -0.307 A  
HETATM    7  C   UNL     1     -11.140   8.733  71.065  1.00  0.00    -0.328 A  
HETATM    8  C   UNL     1     -11.314  10.103  70.845  1.00  0.00    -0.420 A  
BRANCH   6   9
HETATM    9  C   UNL     1     -12.043   6.525  71.921  1.00  0.00    -0.388 C  
BRANCH   9  10
HETATM   10  C   UNL     1     -10.688   6.034  71.415  1.00  0.00    -0.259 C  
BRANCH  10  11
HETATM   11  O   UNL     1     -10.754   5.305  70.182  1.00  0.00    -0.276 OA 
BRANCH  11  12
HETATM   12  C   UNL     1     -10.337   6.052  69.094  1.00  0.00    -0.229 A  
HETATM   13  C   UNL     1     -11.139   6.370  67.994  1.00  0.00    -0.365 A  
HETATM   14  C   UNL     1     -10.666   7.185  66.969  1.00  0.00    -0.420 A  
HETATM   15  C   UNL     1      -9.379   7.721  67.029  1.00  0.00    -0.196 A  
HETATM   16  C   UNL     1      -8.547   7.360  68.098  1.00  0.00    -0.123 A  
HETATM   17  C   UNL     1      -9.028   6.532  69.127  1.00  0.00    -0.130 A  
BRANCH  15  18
HETATM   18  C   UNL     1      -8.947   8.732  65.991  1.00  0.00    -0.235 C  
BRANCH  18  19
HETATM   19  C   UNL     1     -10.031   9.781  65.717  1.00  0.00    -0.279 C  
HETATM   20  S   UNL     1     -10.327  10.927  67.113  1.00  0.00    -0.232 SA 
HETATM   21  C   UNL     1     -10.234  12.334  66.095  1.00  0.00    -0.239 C  
HETATM   22  N   UNL     1      -9.740  11.999  64.882  1.00  0.00    -0.423 N  
HETATM   23  O   UNL     1     -10.599  13.447  66.431  1.00  0.00    -0.280 OA 
HETATM   24  C   UNL     1      -9.665  10.679  64.555  1.00  0.00    -0.309 C  
HETATM   25  H   UNL     1      -9.430  12.718  64.228  1.00  0.00     0.000 HD 
HETATM   26  O   UNL     1      -9.401  10.286  63.427  1.00  0.00    -0.264 OA 
ENDBRANCH  18  19
ENDBRANCH  15  18
ENDBRANCH  11  12
ENDBRANCH  10  11
ENDBRANCH   9  10
ENDBRANCH   6   9
ENDBRANCH   2   3
TORSDOF 7
ENDMDL
MODEL       35
REMARK 921   NORMALIZED FREE ENERGY PREDICTED BY IDOCK:   -5.64 KCAL/MOL
REMARK 922        TOTAL FREE ENERGY PREDICTED BY IDOCK:   -9.09 KCAL/MOL
REMARK 923 INTER-LIGAND FREE ENERGY PREDICTED BY IDOCK:   -8.10 KCAL/MOL
REMARK 924 INTRA-LIGAND FREE ENERGY PREDICTED BY IDOCK:   -0.98 KCAL/MOL
REMARK 927      BINDING AFFINITY PREDICTED BY RF-SCORE:    0.00 PKD
ROOT
HETATM    1  C   UNL     1     -11.008   3.729  73.389  1.00  0.00    -0.317 C  
HETATM    2  C   UNL     1      -9.813   4.369  72.698  1.00  0.00    -0.205 C  
ENDROOT
BRANCH   2   3
HETATM    3  C   UNL     1     -10.151   4.819  71.306  1.00  0.00    -0.258 A  
HETATM    4  C   UNL     1      -9.545   4.237  70.204  1.00  0.00    -0.198 A  
HETATM    5  N   UNL     1      -9.775   4.615  68.930  1.00  0.00    -0.170 NA 
HETATM    6  C   UNL     1     -10.661   5.620  68.704  1.00  0.00    -0.198 A  
HETATM    7  C   UNL     1     -11.309   6.268  69.748  1.00  0.00    -0.506 A  
HETATM    8  C   UNL     1     -11.048   5.860  71.060  1.00  0.00    -0.315 A  
BRANCH   6   9
HETATM    9  C   UNL     1     -10.885   6.031  67.261  1.00  0.00    -0.403 C  
BRANCH   9  10
HETATM   10  C   UNL     1      -9.590   6.607  66.692  1.00  0.00    -0.163 C  
BRANCH  10  11
HETATM   11  O   UNL     1      -9.036   7.678  67.466  1.00  0.00    -0.125 OA 
BRANCH  11  12
HETATM   12  C   UNL     1      -9.757   8.854  67.348  1.00  0.00    -0.176 A  
HETATM   13  C   UNL     1     -10.375   9.517  68.411  1.00  0.00    -0.237 A  
HETATM   14  C   UNL     1     -11.025  10.734  68.222  1.00  0.00    -0.307 A  
HETATM   15  C   UNL     1     -11.055  11.331  66.960  1.00  0.00    -0.356 A  
HETATM   16  C   UNL     1     -10.489  10.644  65.876  1.00  0.00    -0.243 A  
HETATM   17  C   UNL     1      -9.839   9.413  66.073  1.00  0.00    -0.366 A  
BRANCH  15  18
HETATM   18  C   UNL     1     -11.621  12.724  66.811  1.00  0.00    -0.431 C  
BRANCH  18  19
HETATM   19  C   UNL     1     -11.004  13.477  65.626  1.00  0.00    -0.289 C  
HETATM   20  S   UNL     1     -12.213  14.429  64.636  1.00  0.00    -0.430 SA 
HETATM   21  C   UNL     1     -11.238  15.869  64.663  1.00  0.00    -0.351 C  
HETATM   22  N   UNL     1     -10.243  15.740  65.569  1.00  0.00    -0.368 N  
HETATM   23  O   UNL     1     -11.419  16.831  63.938  1.00  0.00    -1.116 OA 
HETATM   24  C   UNL     1      -9.987  14.502  66.079  1.00  0.00    -0.322 C  
HETATM   25  H   UNL     1      -9.697  16.549  65.864  1.00  0.00     0.000 HD 
HETATM   26  O   UNL     1      -9.003  14.254  66.764  1.00  0.00    -0.251 OA 
ENDBRANCH  18  19
ENDBRANCH  15  18
ENDBRANCH  11  12
ENDBRANCH  10  11
ENDBRANCH   9  10
ENDBRANCH   6   9
ENDBRANCH   2   3
TORSDOF 7
ENDMDL
MODEL       36
REMARK 921   NORMALIZED FREE ENERGY PREDICTED BY IDOCK:   -5.61 KCAL/MOL
REMARK 922        TOTAL FREE ENERGY PREDICTED BY IDOCK:   -9.05 KCAL/MOL
REMARK 923 INTER-LIGAND FREE ENERGY PREDICTED BY IDOCK:   -8.35 KCAL/MOL
REMARK 924 INTRA-LIGAND FREE ENERGY PREDICTED BY IDOCK:   -0.71 KCAL/MOL
REMARK 927      BINDING AFFINITY PREDICTED BY RF-SCORE:    0.00 PKD
ROOT
HETATM    1  C   UNL     1      -5.542  10.272  67.995  1.00  0.00    -0.037 C  
HETATM    2  C   UNL     1      -5.601   8.915  68.680  1.00  0.00    -0.041 C  
ENDROOT
BRANCH   2   3
HETATM    3  C   UNL     1      -6.805   8.793  69.569  1.00  0.00    -0.048 A  
HETATM    4  C   UNL     1      -6.848   9.428  70.799  1.00  0.00    -0.109 A  
HETATM    5  N   UNL     1      -7.882   9.334  71.661  1.00  0.00    -0.285 NA 
HETATM    6  C   UNL     1      -8.953   8.579  71.304  1.00  0.00    -0.192 A  
HETATM    7  C   UNL     1      -8.994   7.898  70.094  1.00  0.00    -0.151 A  
HETATM    8  C   UNL     1      -7.907   8.009  69.221  1.00  0.00    -0.114 A  
BRANCH   6   9
HETATM    9  C   UNL     1     -10.091   8.482  72.303  1.00  0.00    -0.386 C  
BRANCH   9  10
HETATM   10  C   UNL     1     -11.423   8.627  71.569  1.00  0.00    -0.295 C  
BRANCH  10  11
HETATM   11  O   UNL     1     -11.933   9.967  71.542  1.00  0.00    -0.379 OA 
BRANCH  11  12
HETATM   12  C   UNL     1     -11.800  10.568  70.303  1.00  0.00    -0.331 A  
HETATM   13  C   UNL     1     -11.940  11.938  70.065  1.00  0.00    -0.409 A  
HETATM   14  C   UNL     1     -11.723  12.475  68.799  1.00  0.00    -0.371 A  
HETATM   15  C   UNL     1     -11.339  11.653  67.738  1.00  0.00    -0.356 A  
HETATM   16  C   UNL     1     -11.254  10.270  67.953  1.00  0.00    -0.290 A  
HETATM   17  C   UNL     1     -11.480   9.733  69.233  1.00  0.00     0.023 A  
BRANCH  15  18
HETATM   18  C   UNL     1     -10.951  12.278  66.417  1.00  0.00    -0.326 C  
BRANCH  18  19
HETATM   19  C   UNL     1     -11.793  13.517  66.093  1.00  0.00    -0.389 C  
HETATM   20  S   UNL     1     -10.813  15.044  65.855  1.00  0.00    -0.347 SA 
HETATM   21  C   UNL     1     -11.622  15.439  64.367  1.00  0.00    -0.264 C  
HETATM   22  N   UNL     1     -12.349  14.383  63.938  1.00  0.00    -1.023 N  
HETATM   23  O   UNL     1     -11.559  16.526  63.822  1.00  0.00    -1.109 OA 
HETATM   24  C   UNL     1     -12.565  13.351  64.801  1.00  0.00    -0.314 C  
HETATM   25  H   UNL     1     -12.728  14.359  62.991  1.00  0.00     0.000 HD 
HETATM   26  O   UNL     1     -13.349  12.441  64.570  1.00  0.00    -0.800 OA 
ENDBRANCH  18  19
ENDBRANCH  15  18
ENDBRANCH  11  12
ENDBRANCH  10  11
ENDBRANCH   9  10
ENDBRANCH   6   9
ENDBRANCH   2   3
TORSDOF 7
ENDMDL
MODEL       37
REMARK 921   NORMALIZED FREE ENERGY PREDICTED BY IDOCK:   -5.61 KCAL/MOL
REMARK 922        TOTAL FREE ENERGY PREDICTED BY IDOCK:   -9.05 KCAL/MOL
REMARK 923 INTER-LIGAND FREE ENERGY PREDICTED BY IDOCK:   -8.74 KCAL/MOL
REMARK 924 INTRA-LIGAND FREE ENERGY PREDICTED BY IDOCK:   -0.31 KCAL/MOL
REMARK 927      BINDING AFFINITY PREDICTED BY RF-SCORE:    0.00 PKD
ROOT
HETATM    1  C   UNL     1     -12.462  15.407  74.427  1.00  0.00    -0.717 C  
HETATM    2  C   UNL     1     -13.305  15.914  73.266  1.00  0.00    -0.660 C  
ENDROOT
BRANCH   2   3
HETATM    3  C   UNL     1     -12.764  15.455  71.943  1.00  0.00    -0.462 A  
HETATM    4  C   UNL     1     -13.300  14.350  71.301  1.00  0.00    -0.343 A  
HETATM    5  N   UNL     1     -12.841  13.864  70.129  1.00  0.00    -0.122 NA 
HETATM    6  C   UNL     1     -11.796  14.495  69.533  1.00  0.00    -0.329 A  
HETATM    7  C   UNL     1     -11.190  15.604  70.109  1.00  0.00    -0.346 A  
HETATM    8  C   UNL     1     -11.682  16.085  71.325  1.00  0.00    -0.516 A  
BRANCH   6   9
HETATM    9  C   UNL     1     -11.295  13.912  68.224  1.00  0.00    -0.325 C  
BRANCH   9  10
HETATM   10  C   UNL     1     -11.735  12.453  68.118  1.00  0.00    -0.353 C  
BRANCH  10  11
HETATM   11  O   UNL     1     -10.677  11.506  68.315  1.00  0.00    -0.192 OA 
BRANCH  11  12
HETATM   12  C   UNL     1     -10.868  10.713  69.433  1.00  0.00    -0.246 A  
HETATM   13  C   UNL     1     -12.090  10.550  70.093  1.00  0.00    -0.380 A  
HETATM   14  C   UNL     1     -12.216   9.679  71.172  1.00  0.00    -0.437 A  
HETATM   15  C   UNL     1     -11.121   8.931  71.608  1.00  0.00    -0.420 A  
HETATM   16  C   UNL     1      -9.878   9.133  70.991  1.00  0.00    -0.366 A  
HETATM   17  C   UNL     1      -9.756  10.018  69.906  1.00  0.00    -0.245 A  
BRANCH  15  18
HETATM   18  C   UNL     1     -11.320   7.875  72.671  1.00  0.00    -0.468 C  
BRANCH  18  19
HETATM   19  C   UNL     1     -11.563   6.486  72.069  1.00  0.00    -0.311 C  
HETATM   20  S   UNL     1     -10.975   6.307  70.345  1.00  0.00    -0.349 SA 
HETATM   21  C   UNL     1     -10.139   4.821  70.689  1.00  0.00    -0.218 C  
HETATM   22  N   UNL     1     -10.062   4.629  72.025  1.00  0.00    -0.191 N  
HETATM   23  O   UNL     1      -9.721   4.058  69.837  1.00  0.00    -0.203 OA 
HETATM   24  C   UNL     1     -10.834   5.404  72.837  1.00  0.00    -0.270 C  
HETATM   25  H   UNL     1      -9.440   3.921  72.417  1.00  0.00     0.000 HD 
HETATM   26  O   UNL     1     -10.966   5.190  74.035  1.00  0.00    -0.270 OA 
ENDBRANCH  18  19
ENDBRANCH  15  18
ENDBRANCH  11  12
ENDBRANCH  10  11
ENDBRANCH   9  10
ENDBRANCH   6   9
ENDBRANCH   2   3
TORSDOF 7
ENDMDL
MODEL       38
REMARK 921   NORMALIZED FREE ENERGY PREDICTED BY IDOCK:   -5.60 KCAL/MOL
REMARK 922        TOTAL FREE ENERGY PREDICTED BY IDOCK:   -9.03 KCAL/MOL
REMARK 923 INTER-LIGAND FREE ENERGY PREDICTED BY IDOCK:   -8.64 KCAL/MOL
REMARK 924 INTRA-LIGAND FREE ENERGY PREDICTED BY IDOCK:   -0.39 KCAL/MOL
REMARK 927      BINDING AFFINITY PREDICTED BY RF-SCORE:    0.00 PKD
ROOT
HETATM    1  C   UNL     1     -11.381   9.311  71.656  1.00  0.00    -0.467 C  
HETATM    2  C   UNL     1     -12.779   9.911  71.680  1.00  0.00    -0.527 C  
ENDROOT
BRANCH   2   3
HETATM    3  C   UNL     1     -12.759  11.378  71.362  1.00  0.00    -0.489 A  
HETATM    4  C   UNL     1     -12.083  11.855  70.250  1.00  0.00    -0.325 A  
HETATM    5  N   UNL     1     -11.997  13.161  69.924  1.00  0.00    -0.330 NA 
HETATM    6  C   UNL     1     -12.615  14.069  70.724  1.00  0.00    -0.360 A  
HETATM    7  C   UNL     1     -13.307  13.683  71.864  1.00  0.00    -0.510 A  
HETATM    8  C   UNL     1     -13.378  12.324  72.182  1.00  0.00    -0.473 A  
BRANCH   6   9
HETATM    9  C   UNL     1     -12.484  15.531  70.337  1.00  0.00    -0.443 C  
BRANCH   9  10
HETATM   10  C   UNL     1     -11.236  15.717  69.475  1.00  0.00    -0.313 C  
BRANCH  10  11
HETATM   11  O   UNL     1     -11.488  16.336  68.207  1.00  0.00    -0.333 OA 
BRANCH  11  12
HETATM   12  C   UNL     1     -10.714  17.464  67.997  1.00  0.00    -0.359 A  
HETATM   13  C   UNL     1     -10.214  18.285  69.012  1.00  0.00    -0.217 A  
HETATM   14  C   UNL     1      -9.385  19.365  68.722  1.00  0.00    -0.444 A  
HETATM   15  C   UNL     1      -9.018  19.641  67.403  1.00  0.00    -0.383 A  
HETATM   16  C   UNL     1      -9.563  18.860  66.374  1.00  0.00    -0.377 A  
HETATM   17  C   UNL     1     -10.404  17.774  66.674  1.00  0.00    -0.345 A  
BRANCH  15  18
HETATM   18  C   UNL     1      -7.990  20.714  67.128  1.00  0.00    -0.323 C  
BRANCH  18  19
HETATM   19  C   UNL     1      -6.625  20.126  66.750  1.00  0.00    -0.215 C  
HETATM   20  S   UNL     1      -6.198  18.591  67.652  1.00  0.00    -0.184 SA 
HETATM   21  C   UNL     1      -5.752  17.753  66.195  1.00  0.00    -0.211 C  
HETATM   22  N   UNL     1      -6.158  18.452  65.112  1.00  0.00    -0.230 N  
HETATM   23  O   UNL     1      -5.132  16.705  66.172  1.00  0.00    -0.235 OA 
HETATM   24  C   UNL     1      -6.564  19.741  65.287  1.00  0.00    -0.287 C  
HETATM   25  H   UNL     1      -6.162  18.025  64.185  1.00  0.00     0.000 HD 
HETATM   26  O   UNL     1      -6.780  20.504  64.356  1.00  0.00    -0.260 OA 
ENDBRANCH  18  19
ENDBRANCH  15  18
ENDBRANCH  11  12
ENDBRANCH  10  11
ENDBRANCH   9  10
ENDBRANCH   6   9
ENDBRANCH   2   3
TORSDOF 7
ENDMDL
MODEL       39
REMARK 921   NORMALIZED FREE ENERGY PREDICTED BY IDOCK:   -5.57 KCAL/MOL
REMARK 922        TOTAL FREE ENERGY PREDICTED BY IDOCK:   -8.99 KCAL/MOL
REMARK 923 INTER-LIGAND FREE ENERGY PREDICTED BY IDOCK:   -8.37 KCAL/MOL
REMARK 924 INTRA-LIGAND FREE ENERGY PREDICTED BY IDOCK:   -0.62 KCAL/MOL
REMARK 927      BINDING AFFINITY PREDICTED BY RF-SCORE:    0.00 PKD
ROOT
HETATM    1  C   UNL     1     -14.357   8.263  71.533  1.00  0.00    -0.525 C  
HETATM    2  C   UNL     1     -13.421   9.116  72.376  1.00  0.00    -0.535 C  
ENDROOT
BRANCH   2   3
HETATM    3  C   UNL     1     -12.880  10.282  71.599  1.00  0.00    -0.568 A  
HETATM    4  C   UNL     1     -13.257  11.579  71.909  1.00  0.00    -0.374 A  
HETATM    5  N   UNL     1     -12.837  12.667  71.232  1.00  0.00    -0.319 NA 
HETATM    6  C   UNL     1     -11.986  12.491  70.189  1.00  0.00    -0.301 A  
HETATM    7  C   UNL     1     -11.562  11.227  69.801  1.00  0.00    -0.408 A  
HETATM    8  C   UNL     1     -12.015  10.115  70.516  1.00  0.00    -0.400 A  
BRANCH   6   9
HETATM    9  C   UNL     1     -11.546  13.735  69.440  1.00  0.00    -0.365 C  
BRANCH   9  10
HETATM   10  C   UNL     1     -11.989  13.632  67.982  1.00  0.00    -0.350 C  
BRANCH  10  11
HETATM   11  O   UNL     1     -10.918  13.390  67.060  1.00  0.00    -0.280 OA 
BRANCH  11  12
HETATM   12  C   UNL     1     -10.076  14.479  66.918  1.00  0.00    -0.257 A  
HETATM   13  C   UNL     1      -8.727  14.493  67.284  1.00  0.00    -0.225 A  
HETATM   14  C   UNL     1      -7.927  15.608  67.046  1.00  0.00    -0.268 A  
HETATM   15  C   UNL     1      -8.456  16.735  66.415  1.00  0.00    -0.338 A  
HETATM   16  C   UNL     1      -9.822  16.753  66.098  1.00  0.00    -0.330 A  
HETATM   17  C   UNL     1     -10.625  15.626  66.346  1.00  0.00    -0.308 A  
BRANCH  15  18
HETATM   18  C   UNL     1      -7.533  17.866  66.020  1.00  0.00    -0.279 C  
BRANCH  18  19
HETATM   19  C   UNL     1      -7.739  19.112  66.889  1.00  0.00    -0.238 C  
HETATM   20  S   UNL     1      -7.760  18.772  68.687  1.00  0.00    -0.316 SA 
HETATM   21  C   UNL     1      -6.628  20.046  69.033  1.00  0.00    -0.311 C  
HETATM   22  N   UNL     1      -6.065  20.491  67.887  1.00  0.00    -0.243 N  
HETATM   23  O   UNL     1      -6.411  20.484  70.148  1.00  0.00    -0.389 OA 
HETATM   24  C   UNL     1      -6.625  20.120  66.702  1.00  0.00    -0.216 C  
HETATM   25  H   UNL     1      -5.240  21.091  67.909  1.00  0.00     0.000 HD 
HETATM   26  O   UNL     1      -6.299  20.608  65.628  1.00  0.00    -0.224 OA 
ENDBRANCH  18  19
ENDBRANCH  15  18
ENDBRANCH  11  12
ENDBRANCH  10  11
ENDBRANCH   9  10
ENDBRANCH   6   9
ENDBRANCH   2   3
TORSDOF 7
ENDMDL
MODEL       40
REMARK 921   NORMALIZED FREE ENERGY PREDICTED BY IDOCK:   -5.55 KCAL/MOL
REMARK 922        TOTAL FREE ENERGY PREDICTED BY IDOCK:   -8.96 KCAL/MOL
REMARK 923 INTER-LIGAND FREE ENERGY PREDICTED BY IDOCK:   -8.06 KCAL/MOL
REMARK 924 INTRA-LIGAND FREE ENERGY PREDICTED BY IDOCK:   -0.90 KCAL/MOL
REMARK 927      BINDING AFFINITY PREDICTED BY RF-SCORE:    0.00 PKD
ROOT
HETATM    1  C   UNL     1     -11.634   7.355  71.820  1.00  0.00    -0.305 C  
HETATM    2  C   UNL     1     -11.427   8.861  71.885  1.00  0.00    -0.442 C  
ENDROOT
BRANCH   2   3
HETATM    3  C   UNL     1     -11.353   9.472  70.515  1.00  0.00    -0.343 A  
HETATM    4  C   UNL     1     -10.659   8.844  69.494  1.00  0.00    -0.228 A  
HETATM    5  N   UNL     1     -10.524   9.352  68.252  1.00  0.00    -0.213 NA 
HETATM    6  C   UNL     1     -11.108  10.546  67.975  1.00  0.00    -0.300 A  
HETATM    7  C   UNL     1     -11.816  11.252  68.940  1.00  0.00    -0.413 A  
HETATM    8  C   UNL     1     -11.937  10.705  70.221  1.00  0.00    -0.425 A  
BRANCH   6   9
HETATM    9  C   UNL     1     -10.923  11.096  66.573  1.00  0.00    -0.270 C  
BRANCH   9  10
HETATM   10  C   UNL     1      -9.719  12.037  66.553  1.00  0.00    -0.216 C  
BRANCH  10  11
HETATM   11  O   UNL     1     -10.035  13.383  66.175  1.00  0.00    -0.284 OA 
BRANCH  11  12
HETATM   12  C   UNL     1     -10.311  14.195  67.261  1.00  0.00    -0.267 A  
HETATM   13  C   UNL     1     -11.405  15.061  67.348  1.00  0.00    -0.338 A  
HETATM   14  C   UNL     1     -11.651  15.796  68.505  1.00  0.00    -0.367 A  
HETATM   15  C   UNL     1     -10.815  15.667  69.616  1.00  0.00    -0.287 A  
HETATM   16  C   UNL     1      -9.682  14.847  69.516  1.00  0.00    -0.046 A  
HETATM   17  C   UNL     1      -9.436  14.112  68.343  1.00  0.00    -0.214 A  
BRANCH  15  18
HETATM   18  C   UNL     1     -11.194  16.347  70.912  1.00  0.00    -0.167 C  
BRANCH  18  19
HETATM   19  C   UNL     1     -12.560  15.883  71.432  1.00  0.00    -0.381 C  
HETATM   20  S   UNL     1     -13.094  14.259  70.778  1.00  0.00    -0.173 SA 
HETATM   21  C   UNL     1     -13.498  13.655  72.358  1.00  0.00    -0.584 C  
HETATM   22  N   UNL     1     -13.009  14.480  73.311  1.00  0.00    -0.499 N  
HETATM   23  O   UNL     1     -14.158  12.652  72.558  1.00  0.00    -0.370 OA 
HETATM   24  C   UNL     1     -12.561  15.711  72.935  1.00  0.00    -0.446 C  
HETATM   25  H   UNL     1     -12.974  14.188  74.288  1.00  0.00     0.000 HD 
HETATM   26  O   UNL     1     -12.267  16.587  73.738  1.00  0.00    -0.486 OA 
ENDBRANCH  18  19
ENDBRANCH  15  18
ENDBRANCH  11  12
ENDBRANCH  10  11
ENDBRANCH   9  10
ENDBRANCH   6   9
ENDBRANCH   2   3
TORSDOF 7
ENDMDL
MODEL       41
REMARK 921   NORMALIZED FREE ENERGY PREDICTED BY IDOCK:   -5.51 KCAL/MOL
REMARK 922        TOTAL FREE ENERGY PREDICTED BY IDOCK:   -8.90 KCAL/MOL
REMARK 923 INTER-LIGAND FREE ENERGY PREDICTED BY IDOCK:   -7.95 KCAL/MOL
REMARK 924 INTRA-LIGAND FREE ENERGY PREDICTED BY IDOCK:   -0.95 KCAL/MOL
REMARK 927      BINDING AFFINITY PREDICTED BY RF-SCORE:    0.00 PKD
ROOT
HETATM    1  C   UNL     1     -13.199  10.685  71.842  1.00  0.00    -0.528 C  
HETATM    2  C   UNL     1     -13.350   9.258  72.348  1.00  0.00    -0.521 C  
ENDROOT
BRANCH   2   3
HETATM    3  C   UNL     1     -12.275   8.360  71.808  1.00  0.00    -0.377 A  
HETATM    4  C   UNL     1     -12.588   7.132  71.247  1.00  0.00    -0.380 A  
HETATM    5  N   UNL     1     -11.671   6.263  70.775  1.00  0.00    -0.297 NA 
HETATM    6  C   UNL     1     -10.359   6.608  70.842  1.00  0.00    -0.208 A  
HETATM    7  C   UNL     1      -9.951   7.814  71.398  1.00  0.00    -0.207 A  
HETATM    8  C   UNL     1     -10.921   8.695  71.883  1.00  0.00    -0.412 A  
BRANCH   6   9
HETATM    9  C   UNL     1      -9.353   5.601  70.318  1.00  0.00    -0.186 C  
BRANCH   9  10
HETATM   10  C   UNL     1      -8.680   6.162  69.067  1.00  0.00    -0.124 C  
BRANCH  10  11
HETATM   11  O   UNL     1      -9.490   6.094  67.886  1.00  0.00    -0.117 OA 
BRANCH  11  12
HETATM   12  C   UNL     1      -9.812   7.343  67.383  1.00  0.00    -0.169 A  
HETATM   13  C   UNL     1     -10.647   8.265  68.020  1.00  0.00    -0.188 A  
HETATM   14  C   UNL     1     -10.867   9.530  67.481  1.00  0.00    -0.239 A  
HETATM   15  C   UNL     1     -10.238   9.912  66.295  1.00  0.00    -0.282 A  
HETATM   16  C   UNL     1      -9.447   8.973  65.618  1.00  0.00    -0.273 A  
HETATM   17  C   UNL     1      -9.233   7.696  66.165  1.00  0.00    -0.168 A  
BRANCH  15  18
HETATM   18  C   UNL     1     -10.362  11.341  65.816  1.00  0.00    -0.310 C  
BRANCH  18  19
HETATM   19  C   UNL     1     -11.352  12.151  66.662  1.00  0.00    -0.350 C  
HETATM   20  S   UNL     1     -10.558  13.279  67.865  1.00  0.00    -0.243 SA 
HETATM   21  C   UNL     1     -11.536  14.632  67.378  1.00  0.00    -0.369 C  
HETATM   22  N   UNL     1     -12.189  14.346  66.230  1.00  0.00    -0.389 N  
HETATM   23  O   UNL     1     -11.633  15.668  68.012  1.00  0.00    -0.332 OA 
HETATM   24  C   UNL     1     -12.218  13.051  65.806  1.00  0.00    -0.453 C  
HETATM   25  H   UNL     1     -12.648  15.081  65.692  1.00  0.00     0.000 HD 
HETATM   26  O   UNL     1     -12.924  12.667  64.884  1.00  0.00    -0.830 OA 
ENDBRANCH  18  19
ENDBRANCH  15  18
ENDBRANCH  11  12
ENDBRANCH  10  11
ENDBRANCH   9  10
ENDBRANCH   6   9
ENDBRANCH   2   3
TORSDOF 7
ENDMDL
MODEL       42
REMARK 921   NORMALIZED FREE ENERGY PREDICTED BY IDOCK:   -5.50 KCAL/MOL
REMARK 922        TOTAL FREE ENERGY PREDICTED BY IDOCK:   -8.89 KCAL/MOL
REMARK 923 INTER-LIGAND FREE ENERGY PREDICTED BY IDOCK:   -7.86 KCAL/MOL
REMARK 924 INTRA-LIGAND FREE ENERGY PREDICTED BY IDOCK:   -1.03 KCAL/MOL
REMARK 927      BINDING AFFINITY PREDICTED BY RF-SCORE:    0.00 PKD
ROOT
HETATM    1  C   UNL     1      -8.952   8.343  66.204  1.00  0.00    -0.218 C  
HETATM    2  C   UNL     1      -8.966   6.968  66.856  1.00  0.00    -0.135 C  
ENDROOT
BRANCH   2   3
HETATM    3  C   UNL     1      -9.686   6.985  68.173  1.00  0.00    -0.139 A  
HETATM    4  C   UNL     1     -10.924   6.379  68.314  1.00  0.00    -0.312 A  
HETATM    5  N   UNL     1     -11.640   6.385  69.457  1.00  0.00    -0.355 NA 
HETATM    6  C   UNL     1     -11.119   7.013  70.543  1.00  0.00    -0.280 A  
HETATM    7  C   UNL     1      -9.888   7.655  70.492  1.00  0.00    -0.183 A  
HETATM    8  C   UNL     1      -9.169   7.638  69.294  1.00  0.00    -0.145 A  
BRANCH   6   9
HETATM    9  C   UNL     1     -11.958   7.015  71.807  1.00  0.00    -0.361 C  
BRANCH   9  10
HETATM   10  C   UNL     1     -11.993   8.427  72.390  1.00  0.00    -0.384 C  
BRANCH  10  11
HETATM   11  O   UNL     1     -13.122   9.205  71.970  1.00  0.00    -0.363 OA 
BRANCH  11  12
HETATM   12  C   UNL     1     -12.759  10.410  71.395  1.00  0.00    -0.446 A  
HETATM   13  C   UNL     1     -11.966  10.539  70.252  1.00  0.00    -0.411 A  
HETATM   14  C   UNL     1     -11.701  11.787  69.694  1.00  0.00    -0.413 A  
HETATM   15  C   UNL     1     -12.243  12.943  70.260  1.00  0.00    -0.362 A  
HETATM   16  C   UNL     1     -12.990  12.829  71.441  1.00  0.00    -0.359 A  
HETATM   17  C   UNL     1     -13.249  11.566  72.002  1.00  0.00    -0.443 A  
BRANCH  15  18
HETATM   18  C   UNL     1     -12.079  14.265  69.546  1.00  0.00    -0.376 C  
BRANCH  18  19
HETATM   19  C   UNL     1     -11.079  14.178  68.386  1.00  0.00    -0.252 C  
HETATM   20  S   UNL     1     -11.839  14.361  66.732  1.00  0.00    -0.387 SA 
HETATM   21  C   UNL     1     -10.668  15.542  66.225  1.00  0.00    -0.307 C  
HETATM   22  N   UNL     1      -9.953  15.974  67.289  1.00  0.00    -0.238 N  
HETATM   23  O   UNL     1     -10.505  15.893  65.071  1.00  0.00    -0.518 OA 
HETATM   24  C   UNL     1     -10.039  15.275  68.455  1.00  0.00    -0.220 C  
HETATM   25  H   UNL     1      -9.363  16.803  67.220  1.00  0.00     0.000 HD 
HETATM   26  O   UNL     1      -9.303  15.480  69.411  1.00  0.00    -0.254 OA 
ENDBRANCH  18  19
ENDBRANCH  15  18
ENDBRANCH  11  12
ENDBRANCH  10  11
ENDBRANCH   9  10
ENDBRANCH   6   9
ENDBRANCH   2   3
TORSDOF 7
ENDMDL
MODEL       43
REMARK 921   NORMALIZED FREE ENERGY PREDICTED BY IDOCK:   -5.50 KCAL/MOL
REMARK 922        TOTAL FREE ENERGY PREDICTED BY IDOCK:   -8.89 KCAL/MOL
REMARK 923 INTER-LIGAND FREE ENERGY PREDICTED BY IDOCK:   -8.23 KCAL/MOL
REMARK 924 INTRA-LIGAND FREE ENERGY PREDICTED BY IDOCK:   -0.66 KCAL/MOL
REMARK 927      BINDING AFFINITY PREDICTED BY RF-SCORE:    0.00 PKD
ROOT
HETATM    1  C   UNL     1     -10.282   4.891  66.816  1.00  0.00    -0.274 C  
HETATM    2  C   UNL     1      -9.652   4.572  68.164  1.00  0.00    -0.203 C  
ENDROOT
BRANCH   2   3
HETATM    3  C   UNL     1     -10.260   5.387  69.269  1.00  0.00    -0.315 A  
HETATM    4  C   UNL     1     -10.780   6.647  69.020  1.00  0.00    -0.259 A  
HETATM    5  N   UNL     1     -11.309   7.445  69.970  1.00  0.00    -0.184 NA 
HETATM    6  C   UNL     1     -11.346   6.989  71.249  1.00  0.00    -0.274 A  
HETATM    7  C   UNL     1     -10.840   5.742  71.593  1.00  0.00    -0.316 A  
HETATM    8  C   UNL     1     -10.293   4.937  70.590  1.00  0.00    -0.233 A  
BRANCH   6   9
HETATM    9  C   UNL     1     -11.933   7.919  72.295  1.00  0.00    -0.387 C  
BRANCH   9  10
HETATM   10  C   UNL     1     -13.005   8.795  71.650  1.00  0.00    -0.349 C  
BRANCH  10  11
HETATM   11  O   UNL     1     -13.357   9.951  72.420  1.00  0.00    -0.392 OA 
BRANCH  11  12
HETATM   12  C   UNL     1     -13.075  11.138  71.767  1.00  0.00    -0.431 A  
HETATM   13  C   UNL     1     -13.520  12.398  72.178  1.00  0.00    -0.481 A  
HETATM   14  C   UNL     1     -13.135  13.554  71.505  1.00  0.00    -0.427 A  
HETATM   15  C   UNL     1     -12.274  13.480  70.409  1.00  0.00    -0.426 A  
HETATM   16  C   UNL     1     -11.870  12.217  69.953  1.00  0.00    -0.383 A  
HETATM   17  C   UNL     1     -12.267  11.053  70.634  1.00  0.00    -0.481 A  
BRANCH  15  18
HETATM   18  C   UNL     1     -11.741  14.755  69.797  1.00  0.00    -0.354 C  
BRANCH  18  19
HETATM   19  C   UNL     1     -10.857  14.486  68.573  1.00  0.00    -0.249 C  
HETATM   20  S   UNL     1     -11.748  14.567  66.977  1.00  0.00    -0.372 SA 
HETATM   21  C   UNL     1     -10.552  15.607  66.260  1.00  0.00    -0.307 C  
HETATM   22  N   UNL     1      -9.718  16.083  67.212  1.00  0.00    -0.230 N  
HETATM   23  O   UNL     1     -10.470  15.834  65.066  1.00  0.00    -0.462 OA 
HETATM   24  C   UNL     1      -9.746  15.505  68.446  1.00  0.00    -0.203 C  
HETATM   25  H   UNL     1      -9.084  16.856  67.012  1.00  0.00     0.000 HD 
HETATM   26  O   UNL     1      -8.916  15.745  69.313  1.00  0.00    -0.243 OA 
ENDBRANCH  18  19
ENDBRANCH  15  18
ENDBRANCH  11  12
ENDBRANCH  10  11
ENDBRANCH   9  10
ENDBRANCH   6   9
ENDBRANCH   2   3
TORSDOF 7
ENDMDL
MODEL       44
REMARK 921   NORMALIZED FREE ENERGY PREDICTED BY IDOCK:   -5.49 KCAL/MOL
REMARK 922        TOTAL FREE ENERGY PREDICTED BY IDOCK:   -8.88 KCAL/MOL
REMARK 923 INTER-LIGAND FREE ENERGY PREDICTED BY IDOCK:   -8.11 KCAL/MOL
REMARK 924 INTRA-LIGAND FREE ENERGY PREDICTED BY IDOCK:   -0.77 KCAL/MOL
REMARK 927      BINDING AFFINITY PREDICTED BY RF-SCORE:    0.00 PKD
ROOT
HETATM    1  C   UNL     1      -9.769   4.055  70.096  1.00  0.00    -0.265 C  
HETATM    2  C   UNL     1     -10.013   5.006  68.934  1.00  0.00    -0.236 C  
ENDROOT
BRANCH   2   3
HETATM    3  C   UNL     1     -10.283   6.405  69.407  1.00  0.00    -0.230 A  
HETATM    4  C   UNL     1     -11.284   6.663  70.330  1.00  0.00    -0.353 A  
HETATM    5  N   UNL     1     -11.601   7.897  70.772  1.00  0.00    -0.276 NA 
HETATM    6  C   UNL     1     -10.896   8.956  70.296  1.00  0.00    -0.239 A  
HETATM    7  C   UNL     1      -9.881   8.793  69.361  1.00  0.00    -0.186 A  
HETATM    8  C   UNL     1      -9.575   7.504  68.916  1.00  0.00    -0.149 A  
BRANCH   6   9
HETATM    9  C   UNL     1     -11.290  10.331  70.802  1.00  0.00    -0.421 C  
BRANCH   9  10
HETATM   10  C   UNL     1     -12.395  10.900  69.914  1.00  0.00    -0.285 C  
BRANCH  10  11
HETATM   11  O   UNL     1     -12.051  10.973  68.525  1.00  0.00    -0.573 OA 
BRANCH  11  12
HETATM   12  C   UNL     1     -11.345  12.120  68.206  1.00  0.00    -0.289 A  
HETATM   13  C   UNL     1     -10.126  12.139  67.522  1.00  0.00    -0.204 A  
HETATM   14  C   UNL     1      -9.512  13.341  67.178  1.00  0.00    -0.240 A  
HETATM   15  C   UNL     1     -10.115  14.559  67.495  1.00  0.00    -0.228 A  
HETATM   16  C   UNL     1     -11.306  14.550  68.234  1.00  0.00    -0.319 A  
HETATM   17  C   UNL     1     -11.919  13.334  68.583  1.00  0.00    -0.345 A  
BRANCH  15  18
HETATM   18  C   UNL     1      -9.514  15.843  66.970  1.00  0.00    -0.234 C  
BRANCH  18  19
HETATM   19  C   UNL     1     -10.457  17.039  67.146  1.00  0.00    -0.291 C  
HETATM   20  S   UNL     1      -9.874  18.277  68.361  1.00  0.00    -0.385 SA 
HETATM   21  C   UNL     1     -10.146  19.606  67.272  1.00  0.00    -0.409 C  
HETATM   22  N   UNL     1     -10.374  19.144  66.022  1.00  0.00    -0.468 N  
HETATM   23  O   UNL     1     -10.159  20.775  67.611  1.00  0.00    -0.330 OA 
HETATM   24  C   UNL     1     -10.628  17.815  65.858  1.00  0.00    -0.205 C  
HETATM   25  H   UNL     1     -10.356  19.775  65.220  1.00  0.00     0.000 HD 
HETATM   26  O   UNL     1     -11.017  17.337  64.801  1.00  0.00    -0.950 OA 
ENDBRANCH  18  19
ENDBRANCH  15  18
ENDBRANCH  11  12
ENDBRANCH  10  11
ENDBRANCH   9  10
ENDBRANCH   6   9
ENDBRANCH   2   3
TORSDOF 7
ENDMDL
MODEL       45
REMARK 921   NORMALIZED FREE ENERGY PREDICTED BY IDOCK:   -5.45 KCAL/MOL
REMARK 922        TOTAL FREE ENERGY PREDICTED BY IDOCK:   -8.82 KCAL/MOL
REMARK 923 INTER-LIGAND FREE ENERGY PREDICTED BY IDOCK:   -7.80 KCAL/MOL
REMARK 924 INTRA-LIGAND FREE ENERGY PREDICTED BY IDOCK:   -1.03 KCAL/MOL
REMARK 927      BINDING AFFINITY PREDICTED BY RF-SCORE:    0.00 PKD
ROOT
HETATM    1  C   UNL     1     -14.216   8.293  71.685  1.00  0.00    -0.530 C  
HETATM    2  C   UNL     1     -13.400   9.534  71.356  1.00  0.00    -0.435 C  
ENDROOT
BRANCH   2   3
HETATM    3  C   UNL     1     -11.924   9.261  71.417  1.00  0.00    -0.424 A  
HETATM    4  C   UNL     1     -11.062   9.803  70.477  1.00  0.00    -0.321 A  
HETATM    5  N   UNL     1      -9.734   9.573  70.452  1.00  0.00    -0.259 NA 
HETATM    6  C   UNL     1      -9.199   8.769  71.408  1.00  0.00    -0.255 A  
HETATM    7  C   UNL     1      -9.988   8.174  72.384  1.00  0.00    -0.345 A  
HETATM    8  C   UNL     1     -11.363   8.426  72.385  1.00  0.00    -0.448 A  
BRANCH   6   9
HETATM    9  C   UNL     1      -7.704   8.518  71.341  1.00  0.00    -0.131 C  
BRANCH   9  10
HETATM   10  C   UNL     1      -7.394   7.626  70.140  1.00  0.00    -0.076 C  
BRANCH  10  11
HETATM   11  O   UNL     1      -6.728   8.302  69.065  1.00  0.00    -0.047 OA 
BRANCH  11  12
HETATM   12  C   UNL     1      -7.599   8.723  68.075  1.00  0.00    -0.097 A  
HETATM   13  C   UNL     1      -8.703   7.993  67.624  1.00  0.00    -0.126 A  
HETATM   14  C   UNL     1      -9.571   8.517  66.670  1.00  0.00    -0.292 A  
HETATM   15  C   UNL     1      -9.366   9.798  66.155  1.00  0.00    -0.243 A  
HETATM   16  C   UNL     1      -8.229  10.512  66.556  1.00  0.00    -0.133 A  
HETATM   17  C   UNL     1      -7.353   9.976  67.516  1.00  0.00    -0.090 A  
BRANCH  15  18
HETATM   18  C   UNL     1     -10.410  10.408  65.246  1.00  0.00    -0.267 C  
BRANCH  18  19
HETATM   19  C   UNL     1     -10.507  11.929  65.414  1.00  0.00    -0.270 C  
HETATM   20  S   UNL     1     -10.765  12.837  63.846  1.00  0.00    -0.359 SA 
HETATM   21  C   UNL     1     -12.081  13.769  64.498  1.00  0.00    -0.428 C  
HETATM   22  N   UNL     1     -12.479  13.247  65.680  1.00  0.00    -0.463 N  
HETATM   23  O   UNL     1     -12.541  14.765  63.970  1.00  0.00    -0.822 OA 
HETATM   24  C   UNL     1     -11.678  12.326  66.285  1.00  0.00    -0.366 C  
HETATM   25  H   UNL     1     -13.359  13.536  66.109  1.00  0.00     0.000 HD 
HETATM   26  O   UNL     1     -11.863  11.931  67.429  1.00  0.00    -0.571 OA 
ENDBRANCH  18  19
ENDBRANCH  15  18
ENDBRANCH  11  12
ENDBRANCH  10  11
ENDBRANCH   9  10
ENDBRANCH   6   9
ENDBRANCH   2   3
TORSDOF 7
ENDMDL
MODEL       46
REMARK 921   NORMALIZED FREE ENERGY PREDICTED BY IDOCK:   -5.45 KCAL/MOL
REMARK 922        TOTAL FREE ENERGY PREDICTED BY IDOCK:   -8.82 KCAL/MOL
REMARK 923 INTER-LIGAND FREE ENERGY PREDICTED BY IDOCK:   -8.24 KCAL/MOL
REMARK 924 INTRA-LIGAND FREE ENERGY PREDICTED BY IDOCK:   -0.58 KCAL/MOL
REMARK 927      BINDING AFFINITY PREDICTED BY RF-SCORE:    0.00 PKD
ROOT
HETATM    1  C   UNL     1     -12.318  15.555  74.297  1.00  0.00    -0.815 C  
HETATM    2  C   UNL     1     -12.746  14.478  73.311  1.00  0.00    -0.483 C  
ENDROOT
BRANCH   2   3
HETATM    3  C   UNL     1     -12.370  14.834  71.902  1.00  0.00    -0.417 A  
HETATM    4  C   UNL     1     -12.758  14.032  70.840  1.00  0.00    -0.350 A  
HETATM    5  N   UNL     1     -12.427  14.274  69.554  1.00  0.00    -0.228 NA 
HETATM    6  C   UNL     1     -11.677  15.370  69.275  1.00  0.00    -0.349 A  
HETATM    7  C   UNL     1     -11.235  16.225  70.277  1.00  0.00    -0.343 A  
HETATM    8  C   UNL     1     -11.588  15.950  71.601  1.00  0.00    -0.541 A  
BRANCH   6   9
HETATM    9  C   UNL     1     -11.309  15.603  67.821  1.00  0.00    -0.261 C  
BRANCH   9  10
HETATM   10  C   UNL     1     -11.711  14.382  66.996  1.00  0.00    -0.399 C  
BRANCH  10  11
HETATM   11  O   UNL     1     -10.619  13.748  66.318  1.00  0.00    -0.283 OA 
BRANCH  11  12
HETATM   12  C   UNL     1     -10.515  12.400  66.610  1.00  0.00    -0.229 A  
HETATM   13  C   UNL     1     -11.176  11.761  67.663  1.00  0.00    -0.345 A  
HETATM   14  C   UNL     1     -11.073  10.385  67.850  1.00  0.00    -0.363 A  
HETATM   15  C   UNL     1     -10.318   9.607  66.971  1.00  0.00    -0.315 A  
HETATM   16  C   UNL     1      -9.603  10.246  65.948  1.00  0.00    -0.263 A  
HETATM   17  C   UNL     1      -9.707  11.636  65.768  1.00  0.00    -0.262 A  
BRANCH  15  18
HETATM   18  C   UNL     1     -10.354   8.101  67.096  1.00  0.00    -0.391 C  
BRANCH  18  19
HETATM   19  C   UNL     1      -9.586   7.603  68.327  1.00  0.00    -0.153 C  
HETATM   20  S   UNL     1      -8.466   8.850  69.062  1.00  0.00    -0.135 SA 
HETATM   21  C   UNL     1      -9.068   8.575  70.670  1.00  0.00    -0.160 C  
HETATM   22  N   UNL     1     -10.198   7.835  70.623  1.00  0.00    -0.198 N  
HETATM   23  O   UNL     1      -8.519   8.970  71.682  1.00  0.00    -0.339 OA 
HETATM   24  C   UNL     1     -10.520   7.215  69.453  1.00  0.00    -0.222 C  
HETATM   25  H   UNL     1     -10.797   7.743  71.444  1.00  0.00     0.000 HD 
HETATM   26  O   UNL     1     -11.418   6.389  69.362  1.00  0.00    -0.401 OA 
ENDBRANCH  18  19
ENDBRANCH  15  18
ENDBRANCH  11  12
ENDBRANCH  10  11
ENDBRANCH   9  10
ENDBRANCH   6   9
ENDBRANCH   2   3
TORSDOF 7
ENDMDL
MODEL       47
REMARK 921   NORMALIZED FREE ENERGY PREDICTED BY IDOCK:   -5.43 KCAL/MOL
REMARK 922        TOTAL FREE ENERGY PREDICTED BY IDOCK:   -8.80 KCAL/MOL
REMARK 923 INTER-LIGAND FREE ENERGY PREDICTED BY IDOCK:   -8.03 KCAL/MOL
REMARK 924 INTRA-LIGAND FREE ENERGY PREDICTED BY IDOCK:   -0.77 KCAL/MOL
REMARK 927      BINDING AFFINITY PREDICTED BY RF-SCORE:    0.00 PKD
ROOT
HETATM    1  C   UNL     1     -10.555  17.779  67.870  1.00  0.00    -0.389 C  
HETATM    2  C   UNL     1     -10.672  16.305  68.228  1.00  0.00    -0.322 C  
ENDROOT
BRANCH   2   3
HETATM    3  C   UNL     1     -11.046  15.471  67.036  1.00  0.00    -0.238 A  
HETATM    4  C   UNL     1     -10.364  15.599  65.837  1.00  0.00    -0.350 A  
HETATM    5  N   UNL     1     -10.668  14.907  64.720  1.00  0.00    -0.390 NA 
HETATM    6  C   UNL     1     -11.699  14.024  64.767  1.00  0.00    -0.394 A  
HETATM    7  C   UNL     1     -12.446  13.837  65.923  1.00  0.00    -0.512 A  
HETATM    8  C   UNL     1     -12.112  14.570  67.066  1.00  0.00    -0.303 A  
BRANCH   6   9
HETATM    9  C   UNL     1     -12.025  13.275  63.488  1.00  0.00    -0.537 C  
BRANCH   9  10
HETATM   10  C   UNL     1     -11.654  11.802  63.656  1.00  0.00    -0.424 C  
BRANCH  10  11
HETATM   11  O   UNL     1     -10.299  11.583  64.068  1.00  0.00    -0.288 OA 
BRANCH  11  12
HETATM   12  C   UNL     1     -10.203  10.798  65.204  1.00  0.00    -0.298 A  
HETATM   13  C   UNL     1     -10.781  11.112  66.437  1.00  0.00    -0.303 A  
HETATM   14  C   UNL     1     -10.697  10.236  67.516  1.00  0.00    -0.348 A  
HETATM   15  C   UNL     1     -10.046   9.009  67.381  1.00  0.00    -0.291 A  
HETATM   16  C   UNL     1      -9.412   8.712  66.166  1.00  0.00    -0.308 A  
HETATM   17  C   UNL     1      -9.496   9.603  65.082  1.00  0.00    -0.332 A  
BRANCH  15  18
HETATM   18  C   UNL     1     -10.109   8.007  68.512  1.00  0.00    -0.218 C  
BRANCH  18  19
HETATM   19  C   UNL     1     -10.550   8.651  69.832  1.00  0.00    -0.224 C  
HETATM   20  S   UNL     1     -11.643   7.591  70.848  1.00  0.00    -0.274 SA 
HETATM   21  C   UNL     1     -10.704   7.851  72.289  1.00  0.00    -0.283 C  
HETATM   22  N   UNL     1      -9.525   8.435  71.978  1.00  0.00    -0.241 N  
HETATM   23  O   UNL     1     -11.084   7.572  73.412  1.00  0.00    -0.344 OA 
HETATM   24  C   UNL     1      -9.372   8.959  70.730  1.00  0.00    -0.230 C  
HETATM   25  H   UNL     1      -8.768   8.481  72.660  1.00  0.00     0.000 HD 
HETATM   26  O   UNL     1      -8.417   9.657  70.413  1.00  0.00    -0.191 OA 
ENDBRANCH  18  19
ENDBRANCH  15  18
ENDBRANCH  11  12
ENDBRANCH  10  11
ENDBRANCH   9  10
ENDBRANCH   6   9
ENDBRANCH   2   3
TORSDOF 7
ENDMDL
MODEL       48
REMARK 921   NORMALIZED FREE ENERGY PREDICTED BY IDOCK:   -5.42 KCAL/MOL
REMARK 922        TOTAL FREE ENERGY PREDICTED BY IDOCK:   -8.78 KCAL/MOL
REMARK 923 INTER-LIGAND FREE ENERGY PREDICTED BY IDOCK:   -7.68 KCAL/MOL
REMARK 924 INTRA-LIGAND FREE ENERGY PREDICTED BY IDOCK:   -1.10 KCAL/MOL
REMARK 927      BINDING AFFINITY PREDICTED BY RF-SCORE:    0.00 PKD
ROOT
HETATM    1  C   UNL     1     -13.269  15.484  71.254  1.00  0.00    -0.588 C  
HETATM    2  C   UNL     1     -11.807  15.827  71.005  1.00  0.00    -0.460 C  
ENDROOT
BRANCH   2   3
HETATM    3  C   UNL     1     -11.431  15.647  69.563  1.00  0.00    -0.349 A  
HETATM    4  C   UNL     1     -12.234  14.911  68.706  1.00  0.00    -0.087 A  
HETATM    5  N   UNL     1     -11.940  14.681  67.409  1.00  0.00    -0.350 NA 
HETATM    6  C   UNL     1     -10.794  15.207  66.904  1.00  0.00    -0.317 A  
HETATM    7  C   UNL     1      -9.924  15.950  67.691  1.00  0.00    -0.237 A  
HETATM    8  C   UNL     1     -10.250  16.170  69.033  1.00  0.00    -0.250 A  
BRANCH   6   9
HETATM    9  C   UNL     1     -10.486  14.916  65.447  1.00  0.00    -0.406 C  
BRANCH   9  10
HETATM   10  C   UNL     1     -10.928  13.493  65.110  1.00  0.00    -0.320 C  
BRANCH  10  11
HETATM   11  O   UNL     1      -9.921  12.498  65.335  1.00  0.00    -0.265 OA 
BRANCH  11  12
HETATM   12  C   UNL     1     -10.027  11.899  66.578  1.00  0.00    -0.202 A  
HETATM   13  C   UNL     1     -11.158  11.221  67.040  1.00  0.00    -0.356 A  
HETATM   14  C   UNL     1     -11.162  10.584  68.279  1.00  0.00    -0.354 A  
HETATM   15  C   UNL     1     -10.020  10.594  69.081  1.00  0.00    -0.228 A  
HETATM   16  C   UNL     1      -8.901  11.322  68.653  1.00  0.00    -0.141 A  
HETATM   17  C   UNL     1      -8.906  11.967  67.404  1.00  0.00    -0.171 A  
BRANCH  15  18
HETATM   18  C   UNL     1      -9.993   9.762  70.343  1.00  0.00    -0.294 C  
BRANCH  18  19
HETATM   19  C   UNL     1     -11.186   8.801  70.429  1.00  0.00    -0.223 C  
HETATM   20  S   UNL     1     -10.715   7.047  70.654  1.00  0.00    -0.239 SA 
HETATM   21  C   UNL     1     -11.828   6.824  71.972  1.00  0.00    -0.314 C  
HETATM   22  N   UNL     1     -12.295   8.021  72.394  1.00  0.00    -0.524 N  
HETATM   23  O   UNL     1     -12.155   5.738  72.415  1.00  0.00    -0.249 OA 
HETATM   24  C   UNL     1     -12.077   9.115  71.612  1.00  0.00    -0.362 C  
HETATM   25  H   UNL     1     -12.798   8.104  73.278  1.00  0.00     0.000 HD 
HETATM   26  O   UNL     1     -12.606  10.198  71.818  1.00  0.00    -0.395 OA 
ENDBRANCH  18  19
ENDBRANCH  15  18
ENDBRANCH  11  12
ENDBRANCH  10  11
ENDBRANCH   9  10
ENDBRANCH   6   9
ENDBRANCH   2   3
TORSDOF 7
ENDMDL
MODEL       49
REMARK 921   NORMALIZED FREE ENERGY PREDICTED BY IDOCK:   -5.42 KCAL/MOL
REMARK 922        TOTAL FREE ENERGY PREDICTED BY IDOCK:   -8.78 KCAL/MOL
REMARK 923 INTER-LIGAND FREE ENERGY PREDICTED BY IDOCK:   -8.14 KCAL/MOL
REMARK 924 INTRA-LIGAND FREE ENERGY PREDICTED BY IDOCK:   -0.64 KCAL/MOL
REMARK 927      BINDING AFFINITY PREDICTED BY RF-SCORE:    0.00 PKD
ROOT
HETATM    1  C   UNL     1      -8.135   5.596  71.660  1.00  0.00    -0.118 C  
HETATM    2  C   UNL     1      -9.589   5.154  71.595  1.00  0.00    -0.204 C  
ENDROOT
BRANCH   2   3
HETATM    3  C   UNL     1     -10.530   6.310  71.776  1.00  0.00    -0.249 A  
HETATM    4  C   UNL     1     -11.903   6.117  71.763  1.00  0.00    -0.219 A  
HETATM    5  N   UNL     1     -12.804   7.113  71.885  1.00  0.00    -0.298 NA 
HETATM    6  C   UNL     1     -12.347   8.383  72.040  1.00  0.00    -0.361 A  
HETATM    7  C   UNL     1     -10.988   8.671  72.056  1.00  0.00    -0.432 A  
HETATM    8  C   UNL     1     -10.075   7.622  71.922  1.00  0.00    -0.218 A  
BRANCH   6   9
HETATM    9  C   UNL     1     -13.388   9.481  72.159  1.00  0.00    -0.545 C  
BRANCH   9  10
HETATM   10  C   UNL     1     -12.933  10.699  71.358  1.00  0.00    -0.443 C  
BRANCH  10  11
HETATM   11  O   UNL     1     -13.125  11.949  72.033  1.00  0.00    -0.457 OA 
BRANCH  11  12
HETATM   12  C   UNL     1     -12.805  13.040  71.244  1.00  0.00    -0.281 A  
HETATM   13  C   UNL     1     -13.100  14.368  71.566  1.00  0.00    -0.411 A  
HETATM   14  C   UNL     1     -12.683  15.417  70.752  1.00  0.00    -0.516 A  
HETATM   15  C   UNL     1     -11.939  15.164  69.598  1.00  0.00    -0.359 A  
HETATM   16  C   UNL     1     -11.689  13.833  69.236  1.00  0.00    -0.376 A  
HETATM   17  C   UNL     1     -12.118  12.777  70.060  1.00  0.00    -0.355 A  
BRANCH  15  18
HETATM   18  C   UNL     1     -11.358  16.323  68.821  1.00  0.00    -0.329 C  
BRANCH  18  19
HETATM   19  C   UNL     1     -10.222  15.884  67.888  1.00  0.00    -0.251 C  
HETATM   20  S   UNL     1     -10.105  16.861  66.345  1.00  0.00    -0.333 SA 
HETATM   21  C   UNL     1      -8.396  17.119  66.532  1.00  0.00    -0.274 C  
HETATM   22  N   UNL     1      -8.004  16.760  67.775  1.00  0.00    -0.175 N  
HETATM   23  O   UNL     1      -7.666  17.533  65.649  1.00  0.00    -0.495 OA 
HETATM   24  C   UNL     1      -8.866  16.036  68.542  1.00  0.00    -0.199 C  
HETATM   25  H   UNL     1      -7.085  17.024  68.130  1.00  0.00     0.000 HD 
HETATM   26  O   UNL     1      -8.541  15.518  69.602  1.00  0.00    -0.246 OA 
ENDBRANCH  18  19
ENDBRANCH  15  18
ENDBRANCH  11  12
ENDBRANCH  10  11
ENDBRANCH   9  10
ENDBRANCH   6   9
ENDBRANCH   2   3
TORSDOF 7
ENDMDL
MODEL       50
REMARK 921   NORMALIZED FREE ENERGY PREDICTED BY IDOCK:   -5.42 KCAL/MOL
REMARK 922        TOTAL FREE ENERGY PREDICTED BY IDOCK:   -8.77 KCAL/MOL
REMARK 923 INTER-LIGAND FREE ENERGY PREDICTED BY IDOCK:   -8.14 KCAL/MOL
REMARK 924 INTRA-LIGAND FREE ENERGY PREDICTED BY IDOCK:   -0.63 KCAL/MOL
REMARK 927      BINDING AFFINITY PREDICTED BY RF-SCORE:    0.00 PKD
ROOT
HETATM    1  C   UNL     1     -11.959  12.609  63.638  1.00  0.00    -0.615 C  
HETATM    2  C   UNL     1     -11.553  13.741  64.570  1.00  0.00    -0.413 C  
ENDROOT
BRANCH   2   3
HETATM    3  C   UNL     1     -11.671  13.342  66.013  1.00  0.00    -0.398 A  
HETATM    4  C   UNL     1     -12.002  14.275  66.983  1.00  0.00    -0.433 A  
HETATM    5  N   UNL     1     -12.092  13.993  68.299  1.00  0.00    -0.334 NA 
HETATM    6  C   UNL     1     -11.854  12.719  68.705  1.00  0.00    -0.307 A  
HETATM    7  C   UNL     1     -11.507  11.721  67.804  1.00  0.00    -0.381 A  
HETATM    8  C   UNL     1     -11.416  12.040  66.447  1.00  0.00    -0.417 A  
BRANCH   6   9
HETATM    9  C   UNL     1     -11.948  12.441  70.194  1.00  0.00    -0.376 C  
BRANCH   9  10
HETATM   10  C   UNL     1     -12.520  11.041  70.412  1.00  0.00    -0.313 C  
BRANCH  10  11
HETATM   11  O   UNL     1     -11.886  10.308  71.468  1.00  0.00    -0.336 OA 
BRANCH  11  12
HETATM   12  C   UNL     1     -11.505   9.034  71.084  1.00  0.00    -0.308 A  
HETATM   13  C   UNL     1     -12.285   7.887  71.252  1.00  0.00    -0.314 A  
HETATM   14  C   UNL     1     -11.859   6.649  70.776  1.00  0.00    -0.441 A  
HETATM   15  C   UNL     1     -10.645   6.533  70.098  1.00  0.00    -0.277 A  
HETATM   16  C   UNL     1      -9.829   7.667  69.977  1.00  0.00    -0.180 A  
HETATM   17  C   UNL     1     -10.262   8.912  70.465  1.00  0.00    -0.247 A  
BRANCH  15  18
HETATM   18  C   UNL     1     -10.281   5.217  69.449  1.00  0.00    -0.321 C  
BRANCH  18  19
HETATM   19  C   UNL     1      -9.664   5.409  68.058  1.00  0.00    -0.136 C  
HETATM   20  S   UNL     1      -8.905   3.894  67.364  1.00  0.00    -0.133 SA 
HETATM   21  C   UNL     1      -9.720   4.077  65.839  1.00  0.00    -0.188 C  
HETATM   22  N   UNL     1     -10.689   5.014  65.938  1.00  0.00    -0.633 N  
HETATM   23  O   UNL     1      -9.424   3.465  64.828  1.00  0.00    -0.145 OA 
HETATM   24  C   UNL     1     -10.699   5.822  67.035  1.00  0.00    -0.289 C  
HETATM   25  H   UNL     1     -11.396   5.114  65.209  1.00  0.00     0.000 HD 
HETATM   26  O   UNL     1     -11.421   6.806  67.131  1.00  0.00    -0.210 OA 
ENDBRANCH  18  19
ENDBRANCH  15  18
ENDBRANCH  11  12
ENDBRANCH  10  11
ENDBRANCH   9  10
ENDBRANCH   6   9
ENDBRANCH   2   3
TORSDOF 7
ENDMDL
MODEL       51
REMARK 921   NORMALIZED FREE ENERGY PREDICTED BY IDOCK:   -5.41 KCAL/MOL
REMARK 922        TOTAL FREE ENERGY PREDICTED BY IDOCK:   -8.77 KCAL/MOL
REMARK 923 INTER-LIGAND FREE ENERGY PREDICTED BY IDOCK:   -7.62 KCAL/MOL
REMARK 924 INTRA-LIGAND FREE ENERGY PREDICTED BY IDOCK:   -1.15 KCAL/MOL
REMARK 927      BINDING AFFINITY PREDICTED BY RF-SCORE:    0.00 PKD
ROOT
HETATM    1  C   UNL     1     -13.072  10.905  71.621  1.00  0.00    -0.538 C  
HETATM    2  C   UNL     1     -13.312   9.517  72.197  1.00  0.00    -0.545 C  
ENDROOT
BRANCH   2   3
HETATM    3  C   UNL     1     -12.247   8.547  71.775  1.00  0.00    -0.388 A  
HETATM    4  C   UNL     1     -10.904   8.870  71.894  1.00  0.00    -0.363 A  
HETATM    5  N   UNL     1      -9.898   8.061  71.504  1.00  0.00    -0.165 NA 
HETATM    6  C   UNL     1     -10.210   6.852  70.969  1.00  0.00    -0.197 A  
HETATM    7  C   UNL     1     -11.529   6.449  70.802  1.00  0.00    -0.415 A  
HETATM    8  C   UNL     1     -12.553   7.308  71.210  1.00  0.00    -0.402 A  
BRANCH   6   9
HETATM    9  C   UNL     1      -9.054   5.975  70.526  1.00  0.00    -0.157 C  
BRANCH   9  10
HETATM   10  C   UNL     1      -9.063   5.857  69.003  1.00  0.00    -0.121 C  
BRANCH  10  11
HETATM   11  O   UNL     1      -8.277   6.853  68.335  1.00  0.00    -0.118 OA 
BRANCH  11  12
HETATM   12  C   UNL     1      -8.998   7.998  68.042  1.00  0.00    -0.130 A  
HETATM   13  C   UNL     1     -10.176   8.025  67.291  1.00  0.00    -0.345 A  
HETATM   14  C   UNL     1     -10.881   9.211  67.098  1.00  0.00    -0.094 A  
HETATM   15  C   UNL     1     -10.431  10.402  67.671  1.00  0.00    -0.277 A  
HETATM   16  C   UNL     1      -9.218  10.395  68.376  1.00  0.00    -0.147 A  
HETATM   17  C   UNL     1      -8.509   9.196  68.563  1.00  0.00    -0.128 A  
BRANCH  15  18
HETATM   18  C   UNL     1     -11.295  11.639  67.586  1.00  0.00    -0.362 C  
BRANCH  18  19
HETATM   19  C   UNL     1     -10.905  12.538  66.407  1.00  0.00    -0.261 C  
HETATM   20  S   UNL     1     -12.033  12.416  64.971  1.00  0.00    -0.379 SA 
HETATM   21  C   UNL     1     -12.190  14.142  64.833  1.00  0.00    -0.438 C  
HETATM   22  N   UNL     1     -11.683  14.745  65.931  1.00  0.00    -0.300 N  
HETATM   23  O   UNL     1     -12.660  14.711  63.863  1.00  0.00    -0.834 OA 
HETATM   24  C   UNL     1     -10.924  14.003  66.785  1.00  0.00    -0.297 C  
HETATM   25  H   UNL     1     -11.865  15.731  66.117  1.00  0.00     0.000 HD 
HETATM   26  O   UNL     1     -10.281  14.495  67.704  1.00  0.00    -0.225 OA 
ENDBRANCH  18  19
ENDBRANCH  15  18
ENDBRANCH  11  12
ENDBRANCH  10  11
ENDBRANCH   9  10
ENDBRANCH   6   9
ENDBRANCH   2   3
TORSDOF 7
ENDMDL
MODEL       52
REMARK 921   NORMALIZED FREE ENERGY PREDICTED BY IDOCK:   -5.41 KCAL/MOL
REMARK 922        TOTAL FREE ENERGY PREDICTED BY IDOCK:   -8.77 KCAL/MOL
REMARK 923 INTER-LIGAND FREE ENERGY PREDICTED BY IDOCK:   -7.85 KCAL/MOL
REMARK 924 INTRA-LIGAND FREE ENERGY PREDICTED BY IDOCK:   -0.92 KCAL/MOL
REMARK 927      BINDING AFFINITY PREDICTED BY RF-SCORE:    0.00 PKD
ROOT
HETATM    1  C   UNL     1     -12.485  15.638  74.184  1.00  0.00    -0.804 C  
HETATM    2  C   UNL     1     -12.979  14.608  73.178  1.00  0.00    -0.605 C  
ENDROOT
BRANCH   2   3
HETATM    3  C   UNL     1     -12.475  14.897  71.794  1.00  0.00    -0.405 A  
HETATM    4  C   UNL     1     -12.633  13.974  70.773  1.00  0.00    -0.360 A  
HETATM    5  N   UNL     1     -12.175  14.154  69.517  1.00  0.00    -0.330 NA 
HETATM    6  C   UNL     1     -11.528  15.312  69.225  1.00  0.00    -0.320 A  
HETATM    7  C   UNL     1     -11.316  16.290  70.187  1.00  0.00    -0.292 A  
HETATM    8  C   UNL     1     -11.796  16.077  71.483  1.00  0.00    -0.554 A  
BRANCH   6   9
HETATM    9  C   UNL     1     -11.012  15.475  67.807  1.00  0.00    -0.317 C  
BRANCH   9  10
HETATM   10  C   UNL     1     -11.480  14.293  66.959  1.00  0.00    -0.361 C  
BRANCH  10  11
HETATM   11  O   UNL     1     -10.413  13.524  66.389  1.00  0.00    -0.279 OA 
BRANCH  11  12
HETATM   12  C   UNL     1     -10.164  12.353  67.083  1.00  0.00    -0.216 A  
HETATM   13  C   UNL     1      -9.162  12.197  68.045  1.00  0.00    -0.194 A  
HETATM   14  C   UNL     1      -9.020  11.005  68.751  1.00  0.00    -0.153 A  
HETATM   15  C   UNL     1      -9.894   9.940  68.523  1.00  0.00    -0.168 A  
HETATM   16  C   UNL     1     -10.864  10.066  67.519  1.00  0.00    -0.326 A  
HETATM   17  C   UNL     1     -10.999  11.271  66.806  1.00  0.00    -0.339 A  
BRANCH  15  18
HETATM   18  C   UNL     1      -9.824   8.720  69.413  1.00  0.00    -0.186 C  
BRANCH  18  19
HETATM   19  C   UNL     1     -10.472   7.491  68.764  1.00  0.00    -0.194 C  
HETATM   20  S   UNL     1      -9.304   6.441  67.825  1.00  0.00    -0.116 SA 
HETATM   21  C   UNL     1      -9.860   4.982  68.591  1.00  0.00    -0.161 C  
HETATM   22  N   UNL     1     -10.637   5.283  69.655  1.00  0.00    -0.263 N  
HETATM   23  O   UNL     1      -9.603   3.860  68.193  1.00  0.00    -0.167 OA 
HETATM   24  C   UNL     1     -11.079   6.564  69.794  1.00  0.00    -0.370 C  
HETATM   25  H   UNL     1     -10.888   4.568  70.339  1.00  0.00     0.000 HD 
HETATM   26  O   UNL     1     -11.923   6.893  70.617  1.00  0.00    -0.369 OA 
ENDBRANCH  18  19
ENDBRANCH  15  18
ENDBRANCH  11  12
ENDBRANCH  10  11
ENDBRANCH   9  10
ENDBRANCH   6   9
ENDBRANCH   2   3
TORSDOF 7
ENDMDL
MODEL       53
REMARK 921   NORMALIZED FREE ENERGY PREDICTED BY IDOCK:   -5.40 KCAL/MOL
REMARK 922        TOTAL FREE ENERGY PREDICTED BY IDOCK:   -8.75 KCAL/MOL
REMARK 923 INTER-LIGAND FREE ENERGY PREDICTED BY IDOCK:   -7.76 KCAL/MOL
REMARK 924 INTRA-LIGAND FREE ENERGY PREDICTED BY IDOCK:   -0.99 KCAL/MOL
REMARK 927      BINDING AFFINITY PREDICTED BY RF-SCORE:    0.00 PKD
ROOT
HETATM    1  C   UNL     1      -7.400   8.397  67.053  1.00  0.00    -0.084 C  
HETATM    2  C   UNL     1      -8.294   8.728  65.868  1.00  0.00    -0.131 C  
ENDROOT
BRANCH   2   3
HETATM    3  C   UNL     1      -8.775  10.149  65.913  1.00  0.00    -0.159 A  
HETATM    4  C   UNL     1      -9.773  10.590  65.059  1.00  0.00    -0.292 A  
HETATM    5  N   UNL     1     -10.229  11.859  65.023  1.00  0.00    -0.269 NA 
HETATM    6  C   UNL     1      -9.688  12.764  65.880  1.00  0.00    -0.198 A  
HETATM    7  C   UNL     1      -8.676  12.414  66.765  1.00  0.00    -0.160 A  
HETATM    8  C   UNL     1      -8.219  11.094  66.779  1.00  0.00    -0.154 A  
BRANCH   6   9
HETATM    9  C   UNL     1     -10.212  14.186  65.802  1.00  0.00    -0.347 C  
BRANCH   9  10
HETATM   10  C   UNL     1     -10.565  14.673  67.206  1.00  0.00    -0.284 C  
BRANCH  10  11
HETATM   11  O   UNL     1     -11.923  14.418  67.590  1.00  0.00    -0.377 OA 
BRANCH  11  12
HETATM   12  C   UNL     1     -12.025  13.516  68.635  1.00  0.00    -0.343 A  
HETATM   13  C   UNL     1     -12.297  13.865  69.961  1.00  0.00    -0.378 A  
HETATM   14  C   UNL     1     -12.452  12.892  70.945  1.00  0.00    -0.383 A  
HETATM   15  C   UNL     1     -12.358  11.537  70.620  1.00  0.00    -0.457 A  
HETATM   16  C   UNL     1     -12.027  11.180  69.305  1.00  0.00    -0.421 A  
HETATM   17  C   UNL     1     -11.866  12.168  68.318  1.00  0.00    -0.361 A  
BRANCH  15  18
HETATM   18  C   UNL     1     -12.691  10.499  71.667  1.00  0.00    -0.550 C  
BRANCH  18  19
HETATM   19  C   UNL     1     -12.193   9.102  71.276  1.00  0.00    -0.327 C  
HETATM   20  S   UNL     1     -10.619   8.621  72.076  1.00  0.00    -0.347 SA 
HETATM   21  C   UNL     1     -11.240   7.076  72.576  1.00  0.00    -0.275 C  
HETATM   22  N   UNL     1     -12.582   7.040  72.416  1.00  0.00    -0.505 N  
HETATM   23  O   UNL     1     -10.547   6.158  72.976  1.00  0.00    -0.216 OA 
HETATM   24  C   UNL     1     -13.174   8.022  71.679  1.00  0.00    -0.330 C  
HETATM   25  H   UNL     1     -13.139   6.297  72.838  1.00  0.00     0.000 HD 
HETATM   26  O   UNL     1     -14.347   7.980  71.333  1.00  0.00    -0.410 OA 
ENDBRANCH  18  19
ENDBRANCH  15  18
ENDBRANCH  11  12
ENDBRANCH  10  11
ENDBRANCH   9  10
ENDBRANCH   6   9
ENDBRANCH   2   3
TORSDOF 7
ENDMDL
MODEL       54
REMARK 921   NORMALIZED FREE ENERGY PREDICTED BY IDOCK:   -5.40 KCAL/MOL
REMARK 922        TOTAL FREE ENERGY PREDICTED BY IDOCK:   -8.75 KCAL/MOL
REMARK 923 INTER-LIGAND FREE ENERGY PREDICTED BY IDOCK:   -7.97 KCAL/MOL
REMARK 924 INTRA-LIGAND FREE ENERGY PREDICTED BY IDOCK:   -0.78 KCAL/MOL
REMARK 927      BINDING AFFINITY PREDICTED BY RF-SCORE:    0.00 PKD
ROOT
HETATM    1  C   UNL     1      -7.891   7.252  68.344  1.00  0.00    -0.122 C  
HETATM    2  C   UNL     1      -8.459   6.323  69.407  1.00  0.00    -0.125 C  
ENDROOT
BRANCH   2   3
HETATM    3  C   UNL     1      -9.491   7.012  70.253  1.00  0.00    -0.165 A  
HETATM    4  C   UNL     1     -10.823   6.634  70.198  1.00  0.00    -0.279 A  
HETATM    5  N   UNL     1     -11.805   7.230  70.903  1.00  0.00    -0.318 NA 
HETATM    6  C   UNL     1     -11.476   8.259  71.726  1.00  0.00    -0.293 A  
HETATM    7  C   UNL     1     -10.168   8.713  71.838  1.00  0.00    -0.404 A  
HETATM    8  C   UNL     1      -9.169   8.080  71.093  1.00  0.00    -0.174 A  
BRANCH   6   9
HETATM    9  C   UNL     1     -12.608   8.918  72.493  1.00  0.00    -0.363 C  
BRANCH   9  10
HETATM   10  C   UNL     1     -12.835  10.328  71.949  1.00  0.00    -0.426 C  
BRANCH  10  11
HETATM   11  O   UNL     1     -12.984  10.389  70.525  1.00  0.00    -0.344 OA 
BRANCH  11  12
HETATM   12  C   UNL     1     -12.184  11.356  69.942  1.00  0.00    -0.277 A  
HETATM   13  C   UNL     1     -11.002  11.095  69.242  1.00  0.00    -0.300 A  
HETATM   14  C   UNL     1     -10.289  12.119  68.625  1.00  0.00    -0.211 A  
HETATM   15  C   UNL     1     -10.753  13.434  68.676  1.00  0.00    -0.275 A  
HETATM   16  C   UNL     1     -11.904  13.714  69.426  1.00  0.00    -0.392 A  
HETATM   17  C   UNL     1     -12.617  12.677  70.051  1.00  0.00     0.093 A  
BRANCH  15  18
HETATM   18  C   UNL     1     -10.053  14.500  67.864  1.00  0.00    -0.227 C  
BRANCH  18  19
HETATM   19  C   UNL     1     -10.138  14.229  66.357  1.00  0.00    -0.288 C  
HETATM   20  S   UNL     1     -11.703  13.440  65.828  1.00  0.00    -0.368 SA 
HETATM   21  C   UNL     1     -11.948  14.581  64.539  1.00  0.00    -0.468 C  
HETATM   22  N   UNL     1     -11.098  15.624  64.673  1.00  0.00    -0.672 N  
HETATM   23  O   UNL     1     -12.750  14.430  63.636  1.00  0.00    -0.773 OA 
HETATM   24  C   UNL     1     -10.061  15.507  65.550  1.00  0.00    -0.373 C  
HETATM   25  H   UNL     1     -11.229  16.478  64.131  1.00  0.00     0.000 HD 
HETATM   26  O   UNL     1      -9.147  16.317  65.612  1.00  0.00    -0.428 OA 
ENDBRANCH  18  19
ENDBRANCH  15  18
ENDBRANCH  11  12
ENDBRANCH  10  11
ENDBRANCH   9  10
ENDBRANCH   6   9
ENDBRANCH   2   3
TORSDOF 7
ENDMDL
MODEL       55
REMARK 921   NORMALIZED FREE ENERGY PREDICTED BY IDOCK:   -5.38 KCAL/MOL
REMARK 922        TOTAL FREE ENERGY PREDICTED BY IDOCK:   -8.73 KCAL/MOL
REMARK 923 INTER-LIGAND FREE ENERGY PREDICTED BY IDOCK:   -7.91 KCAL/MOL
REMARK 924 INTRA-LIGAND FREE ENERGY PREDICTED BY IDOCK:   -0.82 KCAL/MOL
REMARK 927      BINDING AFFINITY PREDICTED BY RF-SCORE:    0.00 PKD
ROOT
HETATM    1  C   UNL     1     -13.862   8.963  72.070  1.00  0.00    -0.511 C  
HETATM    2  C   UNL     1     -12.690   9.932  72.022  1.00  0.00    -0.456 C  
ENDROOT
BRANCH   2   3
HETATM    3  C   UNL     1     -12.036   9.947  70.671  1.00  0.00    -0.361 A  
HETATM    4  C   UNL     1     -11.158   8.942  70.296  1.00  0.00    -0.228 A  
HETATM    5  N   UNL     1     -10.510   8.911  69.113  1.00  0.00    -0.227 NA 
HETATM    6  C   UNL     1     -10.733   9.917  68.227  1.00  0.00    -0.234 A  
HETATM    7  C   UNL     1     -11.589  10.970  68.522  1.00  0.00    -0.380 A  
HETATM    8  C   UNL     1     -12.244  10.981  69.756  1.00  0.00    -0.388 A  
BRANCH   6   9
HETATM    9  C   UNL     1      -9.975   9.859  66.914  1.00  0.00    -0.268 C  
BRANCH   9  10
HETATM   10  C   UNL     1      -9.311  11.209  66.653  1.00  0.00    -0.177 C  
BRANCH  10  11
HETATM   11  O   UNL     1      -9.922  11.969  65.602  1.00  0.00    -0.237 OA 
BRANCH  11  12
HETATM   12  C   UNL     1      -9.993  13.321  65.887  1.00  0.00    -0.272 A  
HETATM   13  C   UNL     1     -10.428  14.301  64.991  1.00  0.00    -0.458 A  
HETATM   14  C   UNL     1     -10.536  15.635  65.377  1.00  0.00    -0.435 A  
HETATM   15  C   UNL     1     -10.228  16.019  66.683  1.00  0.00    -0.295 A  
HETATM   16  C   UNL     1      -9.734  15.054  67.572  1.00  0.00    -0.215 A  
HETATM   17  C   UNL     1      -9.622  13.710  67.174  1.00  0.00    -0.241 A  
BRANCH  15  18
HETATM   18  C   UNL     1     -10.508  17.438  67.124  1.00  0.00    -0.305 C  
BRANCH  18  19
HETATM   19  C   UNL     1      -9.239  18.161  67.590  1.00  0.00    -0.259 C  
HETATM   20  S   UNL     1      -7.864  18.107  66.383  1.00  0.00    -0.252 SA 
HETATM   21  C   UNL     1      -7.578  19.819  66.497  1.00  0.00    -0.278 C  
HETATM   22  N   UNL     1      -8.598  20.419  67.151  1.00  0.00    -0.436 N  
HETATM   23  O   UNL     1      -6.580  20.375  66.074  1.00  0.00    -0.208 OA 
HETATM   24  C   UNL     1      -9.485  19.636  67.826  1.00  0.00    -0.348 C  
HETATM   25  H   UNL     1      -8.701  21.434  67.138  1.00  0.00     0.000 HD 
HETATM   26  O   UNL     1     -10.330  20.089  68.586  1.00  0.00    -0.437 OA 
ENDBRANCH  18  19
ENDBRANCH  15  18
ENDBRANCH  11  12
ENDBRANCH  10  11
ENDBRANCH   9  10
ENDBRANCH   6   9
ENDBRANCH   2   3
TORSDOF 7
ENDMDL
MODEL       56
REMARK 921   NORMALIZED FREE ENERGY PREDICTED BY IDOCK:   -5.37 KCAL/MOL
REMARK 922        TOTAL FREE ENERGY PREDICTED BY IDOCK:   -8.72 KCAL/MOL
REMARK 923 INTER-LIGAND FREE ENERGY PREDICTED BY IDOCK:   -8.07 KCAL/MOL
REMARK 924 INTRA-LIGAND FREE ENERGY PREDICTED BY IDOCK:   -0.64 KCAL/MOL
REMARK 927      BINDING AFFINITY PREDICTED BY RF-SCORE:    0.00 PKD
ROOT
HETATM    1  C   UNL     1      -9.684   4.177  71.208  1.00  0.00    -0.255 C  
HETATM    2  C   UNL     1      -9.123   5.586  71.327  1.00  0.00    -0.158 C  
ENDROOT
BRANCH   2   3
HETATM    3  C   UNL     1     -10.213   6.611  71.451  1.00  0.00    -0.220 A  
HETATM    4  C   UNL     1      -9.936   7.894  71.894  1.00  0.00    -0.179 A  
HETATM    5  N   UNL     1     -10.871   8.852  72.061  1.00  0.00    -0.358 NA 
HETATM    6  C   UNL     1     -12.163   8.551  71.771  1.00  0.00    -0.334 A  
HETATM    7  C   UNL     1     -12.536   7.287  71.330  1.00  0.00    -0.418 A  
HETATM    8  C   UNL     1     -11.548   6.311  71.170  1.00  0.00    -0.339 A  
BRANCH   6   9
HETATM    9  C   UNL     1     -13.191   9.646  71.986  1.00  0.00    -0.546 C  
BRANCH   9  10
HETATM   10  C   UNL     1     -12.910  10.800  71.025  1.00  0.00    -0.385 C  
BRANCH  10  11
HETATM   11  O   UNL     1     -12.685  12.059  71.673  1.00  0.00    -0.307 OA 
BRANCH  11  12
HETATM   12  C   UNL     1     -12.449  13.089  70.779  1.00  0.00    -0.302 A  
HETATM   13  C   UNL     1     -12.684  14.441  71.044  1.00  0.00    -0.416 A  
HETATM   14  C   UNL     1     -12.356  15.425  70.115  1.00  0.00    -0.395 A  
HETATM   15  C   UNL     1     -11.763  15.079  68.899  1.00  0.00    -0.354 A  
HETATM   16  C   UNL     1     -11.579  13.722  68.600  1.00  0.00    -0.369 A  
HETATM   17  C   UNL     1     -11.917  12.733  69.540  1.00  0.00    -0.338 A  
BRANCH  15  18
HETATM   18  C   UNL     1     -11.267  16.171  67.979  1.00  0.00    -0.291 C  
BRANCH  18  19
HETATM   19  C   UNL     1     -10.362  17.174  68.705  1.00  0.00    -0.359 C  
HETATM   20  S   UNL     1      -8.661  16.566  68.999  1.00  0.00    -0.159 SA 
HETATM   21  C   UNL     1      -7.937  18.017  68.371  1.00  0.00    -0.300 C  
HETATM   22  N   UNL     1      -8.867  18.763  67.734  1.00  0.00    -0.287 N  
HETATM   23  O   UNL     1      -6.767  18.318  68.523  1.00  0.00    -0.221 OA 
HETATM   24  C   UNL     1     -10.181  18.449  67.909  1.00  0.00    -0.381 C  
HETATM   25  H   UNL     1      -8.592  19.543  67.137  1.00  0.00     0.000 HD 
HETATM   26  O   UNL     1     -11.095  19.164  67.522  1.00  0.00    -0.405 OA 
ENDBRANCH  18  19
ENDBRANCH  15  18
ENDBRANCH  11  12
ENDBRANCH  10  11
ENDBRANCH   9  10
ENDBRANCH   6   9
ENDBRANCH   2   3
TORSDOF 7
ENDMDL
MODEL       57
REMARK 921   NORMALIZED FREE ENERGY PREDICTED BY IDOCK:   -5.37 KCAL/MOL
REMARK 922        TOTAL FREE ENERGY PREDICTED BY IDOCK:   -8.71 KCAL/MOL
REMARK 923 INTER-LIGAND FREE ENERGY PREDICTED BY IDOCK:   -7.60 KCAL/MOL
REMARK 924 INTRA-LIGAND FREE ENERGY PREDICTED BY IDOCK:   -1.11 KCAL/MOL
REMARK 927      BINDING AFFINITY PREDICTED BY RF-SCORE:    0.00 PKD
ROOT
HETATM    1  C   UNL     1      -7.041  15.572  69.490  1.00  0.00    -0.195 C  
HETATM    2  C   UNL     1      -7.612  16.855  68.906  1.00  0.00    -0.234 C  
ENDROOT
BRANCH   2   3
HETATM    3  C   UNL     1      -8.525  16.581  67.746  1.00  0.00    -0.180 A  
HETATM    4  C   UNL     1      -9.500  17.494  67.377  1.00  0.00    -0.255 A  
HETATM    5  N   UNL     1     -10.374  17.297  66.369  1.00  0.00    -0.333 NA 
HETATM    6  C   UNL     1     -10.294  16.140  65.661  1.00  0.00    -0.382 A  
HETATM    7  C   UNL     1      -9.354  15.164  65.965  1.00  0.00    -0.326 A  
HETATM    8  C   UNL     1      -8.463  15.391  67.018  1.00  0.00    -0.262 A  
BRANCH   6   9
HETATM    9  C   UNL     1     -11.302  15.944  64.544  1.00  0.00    -0.316 C  
BRANCH   9  10
HETATM   10  C   UNL     1     -11.807  14.502  64.566  1.00  0.00    -0.446 C  
BRANCH  10  11
HETATM   11  O   UNL     1     -12.668  14.200  65.671  1.00  0.00    -0.514 OA 
BRANCH  11  12
HETATM   12  C   UNL     1     -12.116  13.281  66.546  1.00  0.00    -0.375 A  
HETATM   13  C   UNL     1     -11.626  12.026  66.176  1.00  0.00    -0.371 A  
HETATM   14  C   UNL     1     -11.022  11.184  67.107  1.00  0.00    -0.350 A  
HETATM   15  C   UNL     1     -10.876  11.589  68.435  1.00  0.00    -0.250 A  
HETATM   16  C   UNL     1     -11.418  12.821  68.828  1.00  0.00    -0.347 A  
HETATM   17  C   UNL     1     -12.031  13.664  67.884  1.00  0.00    -0.382 A  
BRANCH  15  18
HETATM   18  C   UNL     1     -10.074  10.732  69.387  1.00  0.00    -0.166 C  
BRANCH  18  19
HETATM   19  C   UNL     1     -10.842   9.479  69.826  1.00  0.00    -0.243 C  
HETATM   20  S   UNL     1      -9.782   8.012  70.098  1.00  0.00    -0.176 SA 
HETATM   21  C   UNL     1     -10.496   7.672  71.647  1.00  0.00    -0.197 C  
HETATM   22  N   UNL     1     -11.248   8.719  72.053  1.00  0.00    -0.364 N  
HETATM   23  O   UNL     1     -10.356   6.622  72.249  1.00  0.00    -0.194 OA 
HETATM   24  C   UNL     1     -11.554   9.688  71.145  1.00  0.00    -0.381 C  
HETATM   25  H   UNL     1     -11.579   8.783  73.016  1.00  0.00     0.000 HD 
HETATM   26  O   UNL     1     -12.366  10.576  71.367  1.00  0.00    -0.365 OA 
ENDBRANCH  18  19
ENDBRANCH  15  18
ENDBRANCH  11  12
ENDBRANCH  10  11
ENDBRANCH   9  10
ENDBRANCH   6   9
ENDBRANCH   2   3
TORSDOF 7
ENDMDL
MODEL       58
REMARK 921   NORMALIZED FREE ENERGY PREDICTED BY IDOCK:   -5.36 KCAL/MOL
REMARK 922        TOTAL FREE ENERGY PREDICTED BY IDOCK:   -8.69 KCAL/MOL
REMARK 923 INTER-LIGAND FREE ENERGY PREDICTED BY IDOCK:   -7.95 KCAL/MOL
REMARK 924 INTRA-LIGAND FREE ENERGY PREDICTED BY IDOCK:   -0.74 KCAL/MOL
REMARK 927      BINDING AFFINITY PREDICTED BY RF-SCORE:    0.00 PKD
ROOT
HETATM    1  C   UNL     1     -12.399   6.877  71.696  1.00  0.00    -0.413 C  
HETATM    2  C   UNL     1     -12.219   8.203  72.420  1.00  0.00    -0.374 C  
ENDROOT
BRANCH   2   3
HETATM    3  C   UNL     1     -12.026   9.340  71.459  1.00  0.00    -0.439 A  
HETATM    4  C   UNL     1     -12.725  10.526  71.611  1.00  0.00    -0.445 A  
HETATM    5  N   UNL     1     -12.626  11.573  70.767  1.00  0.00    -0.325 NA 
HETATM    6  C   UNL     1     -11.784  11.471  69.706  1.00  0.00    -0.353 A  
HETATM    7  C   UNL     1     -11.049  10.316  69.469  1.00  0.00    -0.310 A  
HETATM    8  C   UNL     1     -11.174   9.243  70.357  1.00  0.00    -0.290 A  
BRANCH   6   9
HETATM    9  C   UNL     1     -11.708  12.661  68.768  1.00  0.00    -0.364 C  
BRANCH   9  10
HETATM   10  C   UNL     1     -11.879  12.182  67.328  1.00  0.00    -0.223 C  
BRANCH  10  11
HETATM   11  O   UNL     1     -10.657  12.126  66.580  1.00  0.00    -0.226 OA 
BRANCH  11  12
HETATM   12  C   UNL     1     -10.083  13.372  66.397  1.00  0.00    -0.292 A  
HETATM   13  C   UNL     1     -10.644  14.402  65.636  1.00  0.00    -0.339 A  
HETATM   14  C   UNL     1     -10.036  15.652  65.556  1.00  0.00    -0.395 A  
HETATM   15  C   UNL     1      -8.856  15.910  66.255  1.00  0.00    -0.386 A  
HETATM   16  C   UNL     1      -8.254  14.866  66.972  1.00  0.00    -0.228 A  
HETATM   17  C   UNL     1      -8.870  13.605  67.044  1.00  0.00    -0.233 A  
BRANCH  15  18
HETATM   18  C   UNL     1      -8.304  17.317  66.285  1.00  0.00    -0.289 C  
BRANCH  18  19
HETATM   19  C   UNL     1      -7.731  17.686  67.658  1.00  0.00    -0.205 C  
HETATM   20  S   UNL     1      -6.210  18.702  67.583  1.00  0.00    -0.192 SA 
HETATM   21  C   UNL     1      -6.819  19.858  68.732  1.00  0.00    -0.323 C  
HETATM   22  N   UNL     1      -8.141  19.663  68.932  1.00  0.00    -0.292 N  
HETATM   23  O   UNL     1      -6.131  20.692  69.292  1.00  0.00    -0.341 OA 
HETATM   24  C   UNL     1      -8.704  18.510  68.473  1.00  0.00    -0.326 C  
HETATM   25  H   UNL     1      -8.706  20.363  69.414  1.00  0.00     0.000 HD 
HETATM   26  O   UNL     1      -9.843  18.165  68.756  1.00  0.00    -0.348 OA 
ENDBRANCH  18  19
ENDBRANCH  15  18
ENDBRANCH  11  12
ENDBRANCH  10  11
ENDBRANCH   9  10
ENDBRANCH   6   9
ENDBRANCH   2   3
TORSDOF 7
ENDMDL
MODEL       59
REMARK 921   NORMALIZED FREE ENERGY PREDICTED BY IDOCK:   -5.35 KCAL/MOL
REMARK 922        TOTAL FREE ENERGY PREDICTED BY IDOCK:   -8.69 KCAL/MOL
REMARK 923 INTER-LIGAND FREE ENERGY PREDICTED BY IDOCK:   -7.72 KCAL/MOL
REMARK 924 INTRA-LIGAND FREE ENERGY PREDICTED BY IDOCK:   -0.97 KCAL/MOL
REMARK 927      BINDING AFFINITY PREDICTED BY RF-SCORE:    0.00 PKD
ROOT
HETATM    1  C   UNL     1      -9.753  10.033  65.051  1.00  0.00    -0.386 C  
HETATM    2  C   UNL     1      -8.998   8.737  65.307  1.00  0.00    -0.184 C  
ENDROOT
BRANCH   2   3
HETATM    3  C   UNL     1      -9.367   8.129  66.629  1.00  0.00    -0.250 A  
HETATM    4  C   UNL     1     -10.513   7.360  66.763  1.00  0.00    -0.246 A  
HETATM    5  N   UNL     1     -10.921   6.814  67.926  1.00  0.00    -0.247 NA 
HETATM    6  C   UNL     1     -10.166   7.016  69.037  1.00  0.00    -0.187 A  
HETATM    7  C   UNL     1      -9.007   7.781  68.999  1.00  0.00    -0.145 A  
HETATM    8  C   UNL     1      -8.608   8.341  67.782  1.00  0.00    -0.131 A  
BRANCH   6   9
HETATM    9  C   UNL     1     -10.663   6.401  70.331  1.00  0.00    -0.317 C  
BRANCH   9  10
HETATM   10  C   UNL     1     -10.849   7.500  71.376  1.00  0.00    -0.229 C  
BRANCH  10  11
HETATM   11  O   UNL     1     -12.177   8.036  71.431  1.00  0.00    -0.302 OA 
BRANCH  11  12
HETATM   12  C   UNL     1     -12.213   9.404  71.222  1.00  0.00    -0.345 A  
HETATM   13  C   UNL     1     -11.503  10.074  70.222  1.00  0.00    -0.372 A  
HETATM   14  C   UNL     1     -11.645  11.446  70.032  1.00  0.00    -0.382 A  
HETATM   15  C   UNL     1     -12.522  12.182  70.831  1.00  0.00    -0.374 A  
HETATM   16  C   UNL     1     -13.193  11.530  71.875  1.00  0.00    -0.479 A  
HETATM   17  C   UNL     1     -13.040  10.145  72.065  1.00  0.00    -0.538 A  
BRANCH  15  18
HETATM   18  C   UNL     1     -12.783  13.635  70.503  1.00  0.00    -0.260 C  
BRANCH  18  19
HETATM   19  C   UNL     1     -11.485  14.432  70.326  1.00  0.00    -0.196 C  
HETATM   20  S   UNL     1     -11.272  15.150  68.656  1.00  0.00    -0.304 SA 
HETATM   21  C   UNL     1     -10.878  16.723  69.286  1.00  0.00    -0.275 C  
HETATM   22  N   UNL     1     -11.162  16.781  70.606  1.00  0.00    -0.362 N  
HETATM   23  O   UNL     1     -10.385  17.620  68.625  1.00  0.00    -0.355 OA 
HETATM   24  C   UNL     1     -11.419  15.616  71.265  1.00  0.00    -0.409 C  
HETATM   25  H   UNL     1     -11.184  17.674  71.098  1.00  0.00     0.000 HD 
HETATM   26  O   UNL     1     -11.512  15.547  72.484  1.00  0.00    -0.441 OA 
ENDBRANCH  18  19
ENDBRANCH  15  18
ENDBRANCH  11  12
ENDBRANCH  10  11
ENDBRANCH   9  10
ENDBRANCH   6   9
ENDBRANCH   2   3
TORSDOF 7
ENDMDL
MODEL       60
REMARK 921   NORMALIZED FREE ENERGY PREDICTED BY IDOCK:   -5.29 KCAL/MOL
REMARK 922        TOTAL FREE ENERGY PREDICTED BY IDOCK:   -8.60 KCAL/MOL
REMARK 923 INTER-LIGAND FREE ENERGY PREDICTED BY IDOCK:   -7.92 KCAL/MOL
REMARK 924 INTRA-LIGAND FREE ENERGY PREDICTED BY IDOCK:   -0.69 KCAL/MOL
REMARK 927      BINDING AFFINITY PREDICTED BY RF-SCORE:    0.00 PKD
ROOT
HETATM    1  C   UNL     1     -10.032   6.341  66.748  1.00  0.00    -0.220 C  
HETATM    2  C   UNL     1      -9.946   5.786  68.162  1.00  0.00    -0.181 C  
ENDROOT
BRANCH   2   3
HETATM    3  C   UNL     1     -10.607   6.696  69.157  1.00  0.00    -0.280 A  
HETATM    4  C   UNL     1     -10.295   8.045  69.203  1.00  0.00    -0.220 A  
HETATM    5  N   UNL     1     -10.824   8.911  70.092  1.00  0.00    -0.230 NA 
HETATM    6  C   UNL     1     -11.724   8.441  70.994  1.00  0.00    -0.267 A  
HETATM    7  C   UNL     1     -12.089   7.101  71.029  1.00  0.00    -0.391 A  
HETATM    8  C   UNL     1     -11.522   6.224  70.100  1.00  0.00    -0.452 A  
BRANCH   6   9
HETATM    9  C   UNL     1     -12.287   9.438  71.990  1.00  0.00    -0.418 C  
BRANCH   9  10
HETATM   10  C   UNL     1     -13.063  10.519  71.240  1.00  0.00    -0.383 C  
BRANCH  10  11
HETATM   11  O   UNL     1     -13.476  11.619  72.061  1.00  0.00    -0.411 OA 
BRANCH  11  12
HETATM   12  C   UNL     1     -12.994  12.836  71.612  1.00  0.00    -0.303 A  
HETATM   13  C   UNL     1     -13.150  14.051  72.285  1.00  0.00    -0.516 A  
HETATM   14  C   UNL     1     -12.575  15.223  71.801  1.00  0.00    -0.434 A  
HETATM   15  C   UNL     1     -11.808  15.204  70.635  1.00  0.00    -0.371 A  
HETATM   16  C   UNL     1     -11.696  14.003  69.921  1.00  0.00    -0.368 A  
HETATM   17  C   UNL     1     -12.283  12.824  70.412  1.00  0.00    -0.371 A  
BRANCH  15  18
HETATM   18  C   UNL     1     -11.061  16.450  70.218  1.00  0.00    -0.267 C  
BRANCH  18  19
HETATM   19  C   UNL     1     -10.418  16.305  68.834  1.00  0.00    -0.273 C  
HETATM   20  S   UNL     1     -10.651  17.760  67.748  1.00  0.00    -0.336 SA 
HETATM   21  C   UNL     1      -8.964  17.829  67.328  1.00  0.00    -0.246 C  
HETATM   22  N   UNL     1      -8.248  17.026  68.146  1.00  0.00    -0.210 N  
HETATM   23  O   UNL     1      -8.515  18.485  66.406  1.00  0.00    -0.279 OA 
HETATM   24  C   UNL     1      -8.918  16.130  68.924  1.00  0.00    -0.247 C  
HETATM   25  H   UNL     1      -7.230  17.089  68.181  1.00  0.00     0.000 HD 
HETATM   26  O   UNL     1      -8.356  15.248  69.560  1.00  0.00    -0.244 OA 
ENDBRANCH  18  19
ENDBRANCH  15  18
ENDBRANCH  11  12
ENDBRANCH  10  11
ENDBRANCH   9  10
ENDBRANCH   6   9
ENDBRANCH   2   3
TORSDOF 7
ENDMDL
MODEL       61
REMARK 921   NORMALIZED FREE ENERGY PREDICTED BY IDOCK:   -5.27 KCAL/MOL
REMARK 922        TOTAL FREE ENERGY PREDICTED BY IDOCK:   -8.56 KCAL/MOL
REMARK 923 INTER-LIGAND FREE ENERGY PREDICTED BY IDOCK:   -7.37 KCAL/MOL
REMARK 924 INTRA-LIGAND FREE ENERGY PREDICTED BY IDOCK:   -1.19 KCAL/MOL
REMARK 927      BINDING AFFINITY PREDICTED BY RF-SCORE:    0.00 PKD
ROOT
HETATM    1  C   UNL     1     -14.092   8.519  71.423  1.00  0.00    -0.360 C  
HETATM    2  C   UNL     1     -13.496   9.593  72.321  1.00  0.00    -0.488 C  
ENDROOT
BRANCH   2   3
HETATM    3  C   UNL     1     -12.984  10.760  71.526  1.00  0.00    -0.562 A  
HETATM    4  C   UNL     1     -13.226  12.061  71.937  1.00  0.00    -0.364 A  
HETATM    5  N   UNL     1     -12.825  13.153  71.255  1.00  0.00    -0.340 NA 
HETATM    6  C   UNL     1     -12.133  12.976  70.100  1.00  0.00    -0.307 A  
HETATM    7  C   UNL     1     -11.852  11.708  69.606  1.00  0.00    -0.419 A  
HETATM    8  C   UNL     1     -12.283  10.593  70.330  1.00  0.00    -0.432 A  
BRANCH   6   9
HETATM    9  C   UNL     1     -11.711  14.226  69.350  1.00  0.00    -0.363 C  
BRANCH   9  10
HETATM   10  C   UNL     1     -12.169  14.123  67.897  1.00  0.00    -0.155 C  
BRANCH  10  11
HETATM   11  O   UNL     1     -11.130  14.357  66.937  1.00  0.00    -0.307 OA 
BRANCH  11  12
HETATM   12  C   UNL     1     -10.535  13.188  66.495  1.00  0.00    -0.279 A  
HETATM   13  C   UNL     1      -9.279  12.732  66.904  1.00  0.00    -0.229 A  
HETATM   14  C   UNL     1      -8.777  11.509  66.464  1.00  0.00    -0.183 A  
HETATM   15  C   UNL     1      -9.534  10.700  65.615  1.00  0.00    -0.257 A  
HETATM   16  C   UNL     1     -10.769  11.176  65.152  1.00  0.00    -0.279 A  
HETATM   17  C   UNL     1     -11.266  12.414  65.596  1.00  0.00    -0.360 A  
BRANCH  15  18
HETATM   18  C   UNL     1      -9.042   9.309  65.283  1.00  0.00    -0.271 C  
BRANCH  18  19
HETATM   19  C   UNL     1      -8.935   8.420  66.528  1.00  0.00    -0.157 C  
HETATM   20  S   UNL     1     -10.367   8.547  67.661  1.00  0.00    -0.248 SA 
HETATM   21  C   UNL     1     -10.545   6.821  67.773  1.00  0.00    -0.249 C  
HETATM   22  N   UNL     1      -9.794   6.213  66.827  1.00  0.00    -0.157 N  
HETATM   23  O   UNL     1     -11.226   6.257  68.610  1.00  0.00    -0.356 OA 
HETATM   24  C   UNL     1      -8.859   6.953  66.168  1.00  0.00    -0.147 C  
HETATM   25  H   UNL     1      -9.925   5.224  66.612  1.00  0.00     0.000 HD 
HETATM   26  O   UNL     1      -8.019   6.458  65.428  1.00  0.00    -0.102 OA 
ENDBRANCH  18  19
ENDBRANCH  15  18
ENDBRANCH  11  12
ENDBRANCH  10  11
ENDBRANCH   9  10
ENDBRANCH   6   9
ENDBRANCH   2   3
TORSDOF 7
ENDMDL
MODEL       62
REMARK 921   NORMALIZED FREE ENERGY PREDICTED BY IDOCK:   -5.26 KCAL/MOL
REMARK 922        TOTAL FREE ENERGY PREDICTED BY IDOCK:   -8.56 KCAL/MOL
REMARK 923 INTER-LIGAND FREE ENERGY PREDICTED BY IDOCK:   -7.94 KCAL/MOL
REMARK 924 INTRA-LIGAND FREE ENERGY PREDICTED BY IDOCK:   -0.62 KCAL/MOL
REMARK 927      BINDING AFFINITY PREDICTED BY RF-SCORE:    0.00 PKD
ROOT
HETATM    1  C   UNL     1     -12.259  14.580  64.510  1.00  0.00    -0.483 C  
HETATM    2  C   UNL     1     -12.569  13.392  65.408  1.00  0.00    -0.528 C  
ENDROOT
BRANCH   2   3
HETATM    3  C   UNL     1     -11.559  12.293  65.246  1.00  0.00    -0.405 A  
HETATM    4  C   UNL     1     -11.062  11.617  66.348  1.00  0.00    -0.291 A  
HETATM    5  N   UNL     1     -10.130  10.644  66.278  1.00  0.00    -0.228 NA 
HETATM    6  C   UNL     1      -9.651  10.295  65.056  1.00  0.00    -0.285 A  
HETATM    7  C   UNL     1     -10.085  10.926  63.896  1.00  0.00    -0.422 A  
HETATM    8  C   UNL     1     -11.048  11.933  63.997  1.00  0.00    -0.459 A  
BRANCH   6   9
HETATM    9  C   UNL     1      -8.592   9.209  65.014  1.00  0.00    -0.204 C  
BRANCH   9  10
HETATM   10  C   UNL     1      -8.475   8.563  66.393  1.00  0.00    -0.117 C  
BRANCH  10  11
HETATM   11  O   UNL     1      -9.082   7.268  66.486  1.00  0.00    -0.144 OA 
BRANCH  11  12
HETATM   12  C   UNL     1      -9.516   6.969  67.766  1.00  0.00    -0.124 A  
HETATM   13  C   UNL     1      -8.713   7.018  68.909  1.00  0.00    -0.131 A  
HETATM   14  C   UNL     1      -9.243   6.769  70.173  1.00  0.00    -0.155 A  
HETATM   15  C   UNL     1     -10.600   6.482  70.327  1.00  0.00    -0.278 A  
HETATM   16  C   UNL     1     -11.400   6.372  69.181  1.00  0.00    -0.366 A  
HETATM   17  C   UNL     1     -10.859   6.619  67.907  1.00  0.00    -0.353 A  
BRANCH  15  18
HETATM   18  C   UNL     1     -11.183   6.377  71.718  1.00  0.00    -0.324 C  
BRANCH  18  19
HETATM   19  C   UNL     1     -11.800   7.700  72.188  1.00  0.00    -0.309 C  
HETATM   20  S   UNL     1     -10.869   9.186  71.663  1.00  0.00    -0.341 SA 
HETATM   21  C   UNL     1     -12.297   9.981  71.070  1.00  0.00    -0.360 C  
HETATM   22  N   UNL     1     -13.325   9.105  71.004  1.00  0.00    -0.559 N  
HETATM   23  O   UNL     1     -12.355  11.165  70.793  1.00  0.00    -0.353 OA 
HETATM   24  C   UNL     1     -13.192   7.902  71.630  1.00  0.00    -0.334 C  
HETATM   25  H   UNL     1     -14.179   9.338  70.497  1.00  0.00     0.000 HD 
HETATM   26  O   UNL     1     -14.123   7.121  71.776  1.00  0.00    -0.384 OA 
ENDBRANCH  18  19
ENDBRANCH  15  18
ENDBRANCH  11  12
ENDBRANCH  10  11
ENDBRANCH   9  10
ENDBRANCH   6   9
ENDBRANCH   2   3
TORSDOF 7
ENDMDL
MODEL       63
REMARK 921   NORMALIZED FREE ENERGY PREDICTED BY IDOCK:   -5.25 KCAL/MOL
REMARK 922        TOTAL FREE ENERGY PREDICTED BY IDOCK:   -8.54 KCAL/MOL
REMARK 923 INTER-LIGAND FREE ENERGY PREDICTED BY IDOCK:   -8.51 KCAL/MOL
REMARK 924 INTRA-LIGAND FREE ENERGY PREDICTED BY IDOCK:   -0.02 KCAL/MOL
REMARK 927      BINDING AFFINITY PREDICTED BY RF-SCORE:    0.00 PKD
ROOT
HETATM    1  C   UNL     1     -11.921  10.338  71.317  1.00  0.00    -0.457 C  
HETATM    2  C   UNL     1     -11.018  10.122  70.112  1.00  0.00    -0.376 C  
ENDROOT
BRANCH   2   3
HETATM    3  C   UNL     1     -11.322  11.093  69.008  1.00  0.00    -0.343 A  
HETATM    4  C   UNL     1     -11.819  12.356  69.289  1.00  0.00    -0.304 A  
HETATM    5  N   UNL     1     -12.145  13.264  68.347  1.00  0.00    -0.289 NA 
HETATM    6  C   UNL     1     -11.970  12.932  67.041  1.00  0.00    -0.325 A  
HETATM    7  C   UNL     1     -11.485  11.686  66.665  1.00  0.00    -0.280 A  
HETATM    8  C   UNL     1     -11.159  10.761  67.661  1.00  0.00    -0.384 A  
BRANCH   6   9
HETATM    9  C   UNL     1     -12.361  13.971  66.007  1.00  0.00    -0.504 C  
BRANCH   9  10
HETATM   10  C   UNL     1     -11.682  13.644  64.678  1.00  0.00    -0.388 C  
BRANCH  10  11
HETATM   11  O   UNL     1     -10.290  13.984  64.633  1.00  0.00    -0.440 OA 
BRANCH  11  12
HETATM   12  C   UNL     1      -9.969  15.043  65.465  1.00  0.00    -0.356 A  
HETATM   13  C   UNL     1     -10.541  16.316  65.389  1.00  0.00    -0.371 A  
HETATM   14  C   UNL     1     -10.213  17.310  66.308  1.00  0.00    -0.347 A  
HETATM   15  C   UNL     1      -9.315  17.046  67.343  1.00  0.00    -0.239 A  
HETATM   16  C   UNL     1      -8.692  15.791  67.393  1.00  0.00    -0.199 A  
HETATM   17  C   UNL     1      -9.023  14.794  66.459  1.00  0.00    -0.267 A  
BRANCH  15  18
HETATM   18  C   UNL     1      -9.100  18.084  68.421  1.00  0.00    -0.293 C  
BRANCH  18  19
HETATM   19  C   UNL     1      -8.139  19.192  67.975  1.00  0.00    -0.298 C  
HETATM   20  S   UNL     1      -6.702  18.591  67.015  1.00  0.00    -0.194 SA 
HETATM   21  C   UNL     1      -6.928  19.776  65.763  1.00  0.00    -0.295 C  
HETATM   22  N   UNL     1      -8.133  20.375  65.901  1.00  0.00    -0.537 N  
HETATM   23  O   UNL     1      -6.097  20.040  64.913  1.00  0.00    -0.219 OA 
HETATM   24  C   UNL     1      -8.817  20.193  67.065  1.00  0.00    -0.346 C  
HETATM   25  H   UNL     1      -8.520  20.948  65.151  1.00  0.00     0.000 HD 
HETATM   26  O   UNL     1      -9.822  20.829  67.353  1.00  0.00    -0.464 OA 
ENDBRANCH  18  19
ENDBRANCH  15  18
ENDBRANCH  11  12
ENDBRANCH  10  11
ENDBRANCH   9  10
ENDBRANCH   6   9
ENDBRANCH   2   3
TORSDOF 7
ENDMDL
MODEL       64
REMARK 921   NORMALIZED FREE ENERGY PREDICTED BY IDOCK:   -5.24 KCAL/MOL
REMARK 922        TOTAL FREE ENERGY PREDICTED BY IDOCK:   -8.53 KCAL/MOL
REMARK 923 INTER-LIGAND FREE ENERGY PREDICTED BY IDOCK:   -7.52 KCAL/MOL
REMARK 924 INTRA-LIGAND FREE ENERGY PREDICTED BY IDOCK:   -1.01 KCAL/MOL
REMARK 927      BINDING AFFINITY PREDICTED BY RF-SCORE:    0.00 PKD
ROOT
HETATM    1  C   UNL     1      -7.802   4.336  66.720  1.00  0.00    -0.097 C  
HETATM    2  C   UNL     1      -9.060   5.190  66.653  1.00  0.00    -0.120 C  
ENDROOT
BRANCH   2   3
HETATM    3  C   UNL     1      -9.629   5.450  68.018  1.00  0.00    -0.153 A  
HETATM    4  C   UNL     1      -8.983   4.993  69.156  1.00  0.00    -0.100 A  
HETATM    5  N   UNL     1      -9.455   5.162  70.408  1.00  0.00    -0.159 NA 
HETATM    6  C   UNL     1     -10.629   5.825  70.573  1.00  0.00    -0.289 A  
HETATM    7  C   UNL     1     -11.350   6.309  69.489  1.00  0.00    -0.475 A  
HETATM    8  C   UNL     1     -10.842   6.117  68.201  1.00  0.00    -0.389 A  
BRANCH   6   9
HETATM    9  C   UNL     1     -11.139   5.982  71.993  1.00  0.00    -0.325 C  
BRANCH   9  10
HETATM   10  C   UNL     1     -11.892   7.305  72.118  1.00  0.00    -0.286 C  
BRANCH  10  11
HETATM   11  O   UNL     1     -11.050   8.436  72.378  1.00  0.00    -0.346 OA 
BRANCH  11  12
HETATM   12  C   UNL     1     -10.974   9.307  71.306  1.00  0.00    -0.351 A  
HETATM   13  C   UNL     1      -9.875   9.419  70.450  1.00  0.00    -0.313 A  
HETATM   14  C   UNL     1      -9.902  10.273  69.350  1.00  0.00    -0.247 A  
HETATM   15  C   UNL     1     -11.043  11.025  69.067  1.00  0.00    -0.301 A  
HETATM   16  C   UNL     1     -12.128  10.964  69.953  1.00  0.00    -0.428 A  
HETATM   17  C   UNL     1     -12.092  10.104  71.065  1.00  0.00    -0.476 A  
BRANCH  15  18
HETATM   18  C   UNL     1     -11.110  11.817  67.781  1.00  0.00    -0.302 C  
BRANCH  18  19
HETATM   19  C   UNL     1     -11.705  13.215  67.992  1.00  0.00    -0.355 C  
HETATM   20  S   UNL     1     -10.683  14.309  69.044  1.00  0.00    -0.221 SA 
HETATM   21  C   UNL     1     -10.768  15.627  67.913  1.00  0.00    -0.294 C  
HETATM   22  N   UNL     1     -11.266  15.195  66.732  1.00  0.00    -0.317 N  
HETATM   23  O   UNL     1     -10.454  16.774  68.174  1.00  0.00    -0.299 OA 
HETATM   24  C   UNL     1     -11.853  13.967  66.687  1.00  0.00    -0.420 C  
HETATM   25  H   UNL     1     -11.203  15.775  65.895  1.00  0.00     0.000 HD 
HETATM   26  O   UNL     1     -12.483  13.564  65.718  1.00  0.00    -0.457 OA 
ENDBRANCH  18  19
ENDBRANCH  15  18
ENDBRANCH  11  12
ENDBRANCH  10  11
ENDBRANCH   9  10
ENDBRANCH   6   9
ENDBRANCH   2   3
TORSDOF 7
ENDMDL
MODEL       65
REMARK 921   NORMALIZED FREE ENERGY PREDICTED BY IDOCK:   -5.23 KCAL/MOL
REMARK 922        TOTAL FREE ENERGY PREDICTED BY IDOCK:   -8.52 KCAL/MOL
REMARK 923 INTER-LIGAND FREE ENERGY PREDICTED BY IDOCK:   -7.92 KCAL/MOL
REMARK 924 INTRA-LIGAND FREE ENERGY PREDICTED BY IDOCK:   -0.60 KCAL/MOL
REMARK 927      BINDING AFFINITY PREDICTED BY RF-SCORE:    0.00 PKD
ROOT
HETATM    1  C   UNL     1     -10.006   5.574  73.337  1.00  0.00    -0.189 C  
HETATM    2  C   UNL     1     -11.280   5.751  72.525  1.00  0.00    -0.347 C  
ENDROOT
BRANCH   2   3
HETATM    3  C   UNL     1     -10.990   6.226  71.130  1.00  0.00    -0.336 A  
HETATM    4  C   UNL     1     -11.103   7.567  70.799  1.00  0.00    -0.265 A  
HETATM    5  N   UNL     1     -10.890   8.057  69.560  1.00  0.00    -0.182 NA 
HETATM    6  C   UNL     1     -10.535   7.192  68.575  1.00  0.00    -0.204 A  
HETATM    7  C   UNL     1     -10.408   5.829  68.813  1.00  0.00    -0.289 A  
HETATM    8  C   UNL     1     -10.638   5.347  70.105  1.00  0.00    -0.344 A  
BRANCH   6   9
HETATM    9  C   UNL     1     -10.320   7.774  67.190  1.00  0.00    -0.389 C  
BRANCH   9  10
HETATM   10  C   UNL     1     -10.492   9.290  67.246  1.00  0.00    -0.264 C  
BRANCH  10  11
HETATM   11  O   UNL     1     -10.400   9.937  65.970  1.00  0.00    -0.224 OA 
BRANCH  11  12
HETATM   12  C   UNL     1     -10.177  11.299  66.073  1.00  0.00    -0.247 A  
HETATM   13  C   UNL     1      -9.533  11.920  67.148  1.00  0.00    -0.180 A  
HETATM   14  C   UNL     1      -9.285  13.290  67.145  1.00  0.00    -0.235 A  
HETATM   15  C   UNL     1      -9.660  14.074  66.053  1.00  0.00    -0.230 A  
HETATM   16  C   UNL     1     -10.359  13.471  64.998  1.00  0.00    -0.379 A  
HETATM   17  C   UNL     1     -10.611  12.088  65.009  1.00  0.00    -0.332 A  
BRANCH  15  18
HETATM   18  C   UNL     1      -9.236  15.524  66.000  1.00  0.00    -0.361 C  
BRANCH  18  19
HETATM   19  C   UNL     1     -10.340  16.469  66.490  1.00  0.00    -0.305 C  
HETATM   20  S   UNL     1      -9.818  17.590  67.840  1.00  0.00    -0.308 SA 
HETATM   21  C   UNL     1     -10.466  18.995  67.046  1.00  0.00    -0.434 C  
HETATM   22  N   UNL     1     -10.782  18.701  65.764  1.00  0.00    -0.344 N  
HETATM   23  O   UNL     1     -10.636  20.070  67.590  1.00  0.00    -0.364 OA 
HETATM   24  C   UNL     1     -10.821  17.391  65.390  1.00  0.00     0.020 C  
HETATM   25  H   UNL     1     -10.986  19.441  65.093  1.00  0.00     0.000 HD 
HETATM   26  O   UNL     1     -11.263  17.019  64.312  1.00  0.00    -1.186 OA 
ENDBRANCH  18  19
ENDBRANCH  15  18
ENDBRANCH  11  12
ENDBRANCH  10  11
ENDBRANCH   9  10
ENDBRANCH   6   9
ENDBRANCH   2   3
TORSDOF 7
ENDMDL
MODEL       66
REMARK 921   NORMALIZED FREE ENERGY PREDICTED BY IDOCK:   -5.23 KCAL/MOL
REMARK 922        TOTAL FREE ENERGY PREDICTED BY IDOCK:   -8.51 KCAL/MOL
REMARK 923 INTER-LIGAND FREE ENERGY PREDICTED BY IDOCK:   -7.66 KCAL/MOL
REMARK 924 INTRA-LIGAND FREE ENERGY PREDICTED BY IDOCK:   -0.85 KCAL/MOL
REMARK 927      BINDING AFFINITY PREDICTED BY RF-SCORE:    0.00 PKD
ROOT
HETATM    1  C   UNL     1     -13.796   8.841  72.428  1.00  0.00    -0.477 C  
HETATM    2  C   UNL     1     -13.062  10.073  71.921  1.00  0.00    -0.563 C  
ENDROOT
BRANCH   2   3
HETATM    3  C   UNL     1     -12.060   9.726  70.858  1.00  0.00    -0.407 A  
HETATM    4  C   UNL     1     -11.734  10.635  69.864  1.00  0.00    -0.317 A  
HETATM    5  N   UNL     1     -10.870  10.376  68.861  1.00  0.00    -0.221 NA 
HETATM    6  C   UNL     1     -10.271   9.158  68.821  1.00  0.00    -0.210 A  
HETATM    7  C   UNL     1     -10.545   8.181  69.770  1.00  0.00    -0.231 A  
HETATM    8  C   UNL     1     -11.448   8.472  70.796  1.00  0.00    -0.281 A  
BRANCH   6   9
HETATM    9  C   UNL     1      -9.317   8.895  67.671  1.00  0.00    -0.156 C  
BRANCH   9  10
HETATM   10  C   UNL     1     -10.066   9.045  66.348  1.00  0.00    -0.281 C  
BRANCH  10  11
HETATM   11  O   UNL     1      -9.546  10.074  65.495  1.00  0.00    -0.223 OA 
BRANCH  11  12
HETATM   12  C   UNL     1     -10.038  11.329  65.807  1.00  0.00    -0.247 A  
HETATM   13  C   UNL     1     -11.372  11.721  65.655  1.00  0.00    -0.293 A  
HETATM   14  C   UNL     1     -11.803  12.983  66.056  1.00  0.00    -0.471 A  
HETATM   15  C   UNL     1     -10.909  13.882  66.641  1.00  0.00    -0.289 A  
HETATM   16  C   UNL     1      -9.558  13.520  66.743  1.00  0.00    -0.268 A  
HETATM   17  C   UNL     1      -9.129  12.247  66.331  1.00  0.00    -0.158 A  
BRANCH  15  18
HETATM   18  C   UNL     1     -11.432  15.178  67.217  1.00  0.00    -0.284 C  
BRANCH  18  19
HETATM   19  C   UNL     1     -10.380  16.293  67.182  1.00  0.00    -0.285 C  
HETATM   20  S   UNL     1     -10.343  17.233  65.611  1.00  0.00    -0.061 SA 
HETATM   21  C   UNL     1     -10.372  18.769  66.425  1.00  0.00    -0.439 C  
HETATM   22  N   UNL     1     -10.675  18.598  67.732  1.00  0.00    -0.388 N  
HETATM   23  O   UNL     1     -10.119  19.832  65.888  1.00  0.00    -0.442 OA 
HETATM   24  C   UNL     1     -10.631  17.338  68.248  1.00  0.00    -0.383 C  
HETATM   25  H   UNL     1     -10.931  19.393  68.317  1.00  0.00     0.000 HD 
HETATM   26  O   UNL     1     -10.715  17.105  69.446  1.00  0.00    -0.288 OA 
ENDBRANCH  18  19
ENDBRANCH  15  18
ENDBRANCH  11  12
ENDBRANCH  10  11
ENDBRANCH   9  10
ENDBRANCH   6   9
ENDBRANCH   2   3
TORSDOF 7
ENDMDL
MODEL       67
REMARK 921   NORMALIZED FREE ENERGY PREDICTED BY IDOCK:   -5.19 KCAL/MOL
REMARK 922        TOTAL FREE ENERGY PREDICTED BY IDOCK:   -8.46 KCAL/MOL
REMARK 923 INTER-LIGAND FREE ENERGY PREDICTED BY IDOCK:   -7.84 KCAL/MOL
REMARK 924 INTRA-LIGAND FREE ENERGY PREDICTED BY IDOCK:   -0.62 KCAL/MOL
REMARK 927      BINDING AFFINITY PREDICTED BY RF-SCORE:    0.00 PKD
ROOT
HETATM    1  C   UNL     1      -8.230  17.144  66.486  1.00  0.00    -0.308 C  
HETATM    2  C   UNL     1      -9.735  17.176  66.263  1.00  0.00    -0.296 C  
ENDROOT
BRANCH   2   3
HETATM    3  C   UNL     1     -10.476  16.496  67.378  1.00  0.00    -0.310 A  
HETATM    4  C   UNL     1     -10.479  17.028  68.658  1.00  0.00    -0.363 A  
HETATM    5  N   UNL     1     -11.095  16.453  69.711  1.00  0.00    -0.335 NA 
HETATM    6  C   UNL     1     -11.762  15.287  69.512  1.00  0.00    -0.339 A  
HETATM    7  C   UNL     1     -11.804  14.675  68.265  1.00  0.00    -0.333 A  
HETATM    8  C   UNL     1     -11.154  15.290  67.191  1.00  0.00    -0.323 A  
BRANCH   6   9
HETATM    9  C   UNL     1     -12.429  14.659  70.722  1.00  0.00    -0.407 C  
BRANCH   9  10
HETATM   10  C   UNL     1     -12.330  13.138  70.622  1.00  0.00    -0.326 C  
BRANCH  10  11
HETATM   11  O   UNL     1     -13.144  12.435  71.570  1.00  0.00    -0.378 OA 
BRANCH  11  12
HETATM   12  C   UNL     1     -12.905  11.072  71.576  1.00  0.00    -0.450 A  
HETATM   13  C   UNL     1     -13.636  10.140  72.320  1.00  0.00    -0.224 A  
HETATM   14  C   UNL     1     -13.377   8.776  72.220  1.00  0.00    -0.460 A  
HETATM   15  C   UNL     1     -12.388   8.306  71.354  1.00  0.00    -0.326 A  
HETATM   16  C   UNL     1     -11.610   9.236  70.650  1.00  0.00    -0.305 A  
HETATM   17  C   UNL     1     -11.873  10.612  70.759  1.00  0.00    -0.459 A  
BRANCH  15  18
HETATM   18  C   UNL     1     -12.236   6.817  71.140  1.00  0.00    -0.413 C  
BRANCH  18  19
HETATM   19  C   UNL     1     -10.784   6.418  70.850  1.00  0.00    -0.250 C  
HETATM   20  S   UNL     1     -10.142   5.095  71.939  1.00  0.00    -0.202 SA 
HETATM   21  C   UNL     1      -9.524   4.170  70.602  1.00  0.00    -0.172 C  
HETATM   22  N   UNL     1     -10.006   4.657  69.437  1.00  0.00    -0.205 N  
HETATM   23  O   UNL     1      -8.743   3.243  70.715  1.00  0.00    -0.068 OA 
HETATM   24  C   UNL     1     -10.619   5.874  69.447  1.00  0.00    -0.309 C  
HETATM   25  H   UNL     1      -9.914   4.127  68.570  1.00  0.00     0.000 HD 
HETATM   26  O   UNL     1     -10.927   6.474  68.426  1.00  0.00    -0.277 OA 
ENDBRANCH  18  19
ENDBRANCH  15  18
ENDBRANCH  11  12
ENDBRANCH  10  11
ENDBRANCH   9  10
ENDBRANCH   6   9
ENDBRANCH   2   3
TORSDOF 7
ENDMDL
MODEL       68
REMARK 921   NORMALIZED FREE ENERGY PREDICTED BY IDOCK:   -5.19 KCAL/MOL
REMARK 922        TOTAL FREE ENERGY PREDICTED BY IDOCK:   -8.45 KCAL/MOL
REMARK 923 INTER-LIGAND FREE ENERGY PREDICTED BY IDOCK:   -7.69 KCAL/MOL
REMARK 924 INTRA-LIGAND FREE ENERGY PREDICTED BY IDOCK:   -0.76 KCAL/MOL
REMARK 927      BINDING AFFINITY PREDICTED BY RF-SCORE:    0.00 PKD
ROOT
HETATM    1  C   UNL     1     -12.489  15.856  74.115  1.00  0.00    -0.776 C  
HETATM    2  C   UNL     1     -13.009  14.770  73.184  1.00  0.00    -0.623 C  
ENDROOT
BRANCH   2   3
HETATM    3  C   UNL     1     -12.505  14.953  71.781  1.00  0.00    -0.405 A  
HETATM    4  C   UNL     1     -12.846  14.057  70.781  1.00  0.00    -0.285 A  
HETATM    5  N   UNL     1     -12.403  14.142  69.510  1.00  0.00    -0.298 NA 
HETATM    6  C   UNL     1     -11.580  15.170  69.180  1.00  0.00    -0.323 A  
HETATM    7  C   UNL     1     -11.177  16.111  70.119  1.00  0.00    -0.374 A  
HETATM    8  C   UNL     1     -11.647  15.998  71.431  1.00  0.00    -0.520 A  
BRANCH   6   9
HETATM    9  C   UNL     1     -11.087  15.227  67.746  1.00  0.00    -0.318 C  
BRANCH   9  10
HETATM   10  C   UNL     1     -11.775  14.133  66.930  1.00  0.00    -0.414 C  
BRANCH  10  11
HETATM   11  O   UNL     1     -10.906  13.449  66.019  1.00  0.00    -0.273 OA 
BRANCH  11  12
HETATM   12  C   UNL     1     -10.733  12.114  66.342  1.00  0.00    -0.257 A  
HETATM   13  C   UNL     1     -11.186  11.517  67.521  1.00  0.00    -0.360 A  
HETATM   14  C   UNL     1     -11.033  10.150  67.742  1.00  0.00    -0.338 A  
HETATM   15  C   UNL     1     -10.436   9.340  66.774  1.00  0.00    -0.263 A  
HETATM   16  C   UNL     1      -9.925   9.941  65.614  1.00  0.00    -0.353 A  
HETATM   17  C   UNL     1     -10.079  11.321  65.400  1.00  0.00    -0.314 A  
BRANCH  15  18
HETATM   18  C   UNL     1     -10.428   7.841  66.964  1.00  0.00    -0.419 C  
BRANCH  18  19
HETATM   19  C   UNL     1      -9.030   7.306  67.297  1.00  0.00    -0.123 C  
HETATM   20  S   UNL     1      -8.903   6.526  68.948  1.00  0.00    -0.125 SA 
HETATM   21  C   UNL     1      -8.111   5.112  68.318  1.00  0.00    -0.087 C  
HETATM   22  N   UNL     1      -8.194   5.094  66.969  1.00  0.00    -0.108 N  
HETATM   23  O   UNL     1      -7.538   4.286  69.006  1.00  0.00    -0.055 OA 
HETATM   24  C   UNL     1      -8.594   6.228  66.329  1.00  0.00    -0.138 C  
HETATM   25  H   UNL     1      -7.964   4.251  66.443  1.00  0.00     0.000 HD 
HETATM   26  O   UNL     1      -8.532   6.365  65.114  1.00  0.00    -0.140 OA 
ENDBRANCH  18  19
ENDBRANCH  15  18
ENDBRANCH  11  12
ENDBRANCH  10  11
ENDBRANCH   9  10
ENDBRANCH   6   9
ENDBRANCH   2   3
TORSDOF 7
ENDMDL
MODEL       69
REMARK 921   NORMALIZED FREE ENERGY PREDICTED BY IDOCK:   -5.17 KCAL/MOL
REMARK 922        TOTAL FREE ENERGY PREDICTED BY IDOCK:   -8.43 KCAL/MOL
REMARK 923 INTER-LIGAND FREE ENERGY PREDICTED BY IDOCK:   -7.40 KCAL/MOL
REMARK 924 INTRA-LIGAND FREE ENERGY PREDICTED BY IDOCK:   -1.02 KCAL/MOL
REMARK 927      BINDING AFFINITY PREDICTED BY RF-SCORE:    0.00 PKD
ROOT
HETATM    1  C   UNL     1     -13.720   8.125  71.616  1.00  0.00    -0.403 C  
HETATM    2  C   UNL     1     -12.369   7.914  72.284  1.00  0.00    -0.299 C  
ENDROOT
BRANCH   2   3
HETATM    3  C   UNL     1     -11.340   7.412  71.313  1.00  0.00    -0.289 A  
HETATM    4  C   UNL     1     -11.720   6.797  70.130  1.00  0.00    -0.313 A  
HETATM    5  N   UNL     1     -10.850   6.294  69.230  1.00  0.00    -0.305 NA 
HETATM    6  C   UNL     1      -9.521   6.399  69.487  1.00  0.00    -0.145 A  
HETATM    7  C   UNL     1      -9.049   6.991  70.652  1.00  0.00    -0.158 A  
HETATM    8  C   UNL     1      -9.971   7.501  71.570  1.00  0.00    -0.197 A  
BRANCH   6   9
HETATM    9  C   UNL     1      -8.571   5.808  68.462  1.00  0.00    -0.109 C  
BRANCH   9  10
HETATM   10  C   UNL     1      -8.524   6.715  67.234  1.00  0.00    -0.120 C  
BRANCH  10  11
HETATM   11  O   UNL     1      -7.945   8.003  67.479  1.00  0.00    -0.118 OA 
BRANCH  11  12
HETATM   12  C   UNL     1      -8.860   9.035  67.354  1.00  0.00    -0.118 A  
HETATM   13  C   UNL     1      -9.218   9.908  68.385  1.00  0.00    -0.130 A  
HETATM   14  C   UNL     1     -10.096  10.966  68.161  1.00  0.00    -0.190 A  
HETATM   15  C   UNL     1     -10.624  11.188  66.889  1.00  0.00    -0.304 A  
HETATM   16  C   UNL     1     -10.317  10.283  65.863  1.00  0.00    -0.241 A  
HETATM   17  C   UNL     1      -9.435   9.214  66.097  1.00  0.00    -0.309 A  
BRANCH  15  18
HETATM   18  C   UNL     1     -11.442  12.434  66.632  1.00  0.00    -0.429 C  
BRANCH  18  19
HETATM   19  C   UNL     1     -10.863  13.283  65.495  1.00  0.00    -0.284 C  
HETATM   20  S   UNL     1     -12.127  14.147  64.492  1.00  0.00    -0.459 SA 
HETATM   21  C   UNL     1     -11.298  15.673  64.598  1.00  0.00    -0.349 C  
HETATM   22  N   UNL     1     -10.325  15.609  65.535  1.00  0.00    -0.370 N  
HETATM   23  O   UNL     1     -11.548  16.637  63.899  1.00  0.00    -1.204 OA 
HETATM   24  C   UNL     1      -9.966  14.386  66.015  1.00  0.00    -0.317 C  
HETATM   25  H   UNL     1      -9.871  16.457  65.875  1.00  0.00     0.000 HD 
HETATM   26  O   UNL     1      -8.986  14.210  66.727  1.00  0.00    -0.242 OA 
ENDBRANCH  18  19
ENDBRANCH  15  18
ENDBRANCH  11  12
ENDBRANCH  10  11
ENDBRANCH   9  10
ENDBRANCH   6   9
ENDBRANCH   2   3
TORSDOF 7
ENDMDL
MODEL       70
REMARK 921   NORMALIZED FREE ENERGY PREDICTED BY IDOCK:   -5.16 KCAL/MOL
REMARK 922        TOTAL FREE ENERGY PREDICTED BY IDOCK:   -8.42 KCAL/MOL
REMARK 923 INTER-LIGAND FREE ENERGY PREDICTED BY IDOCK:   -7.58 KCAL/MOL
REMARK 924 INTRA-LIGAND FREE ENERGY PREDICTED BY IDOCK:   -0.83 KCAL/MOL
REMARK 927      BINDING AFFINITY PREDICTED BY RF-SCORE:    0.00 PKD
ROOT
HETATM    1  C   UNL     1     -10.559  19.797  65.944  1.00  0.00    -0.557 C  
HETATM    2  C   UNL     1      -9.781  20.290  67.156  1.00  0.00    -0.592 C  
ENDROOT
BRANCH   2   3
HETATM    3  C   UNL     1      -8.998  19.184  67.802  1.00  0.00    -0.338 A  
HETATM    4  C   UNL     1      -7.692  19.387  68.218  1.00  0.00    -0.321 A  
HETATM    5  N   UNL     1      -6.921  18.430  68.774  1.00  0.00    -0.270 NA 
HETATM    6  C   UNL     1      -7.452  17.192  68.947  1.00  0.00    -0.241 A  
HETATM    7  C   UNL     1      -8.749  16.894  68.551  1.00  0.00    -0.251 A  
HETATM    8  C   UNL     1      -9.526  17.903  67.973  1.00  0.00    -0.279 A  
BRANCH   6   9
HETATM    9  C   UNL     1      -6.552  16.135  69.560  1.00  0.00    -0.200 C  
BRANCH   9  10
HETATM   10  C   UNL     1      -6.354  14.997  68.560  1.00  0.00    -0.092 C  
BRANCH  10  11
HETATM   11  O   UNL     1      -6.908  13.744  68.984  1.00  0.00    -0.106 OA 
BRANCH  11  12
HETATM   12  C   UNL     1      -8.033  13.383  68.264  1.00  0.00    -0.147 A  
HETATM   13  C   UNL     1      -8.039  13.068  66.902  1.00  0.00     0.047 A  
HETATM   14  C   UNL     1      -9.203  12.648  66.264  1.00  0.00    -0.114 A  
HETATM   15  C   UNL     1     -10.393  12.512  66.982  1.00  0.00    -0.236 A  
HETATM   16  C   UNL     1     -10.411  12.883  68.334  1.00  0.00    -0.249 A  
HETATM   17  C   UNL     1      -9.233  13.312  68.970  1.00  0.00     0.423 A  
BRANCH  15  18
HETATM   18  C   UNL     1     -11.599  11.900  66.308  1.00  0.00    -0.317 C  
BRANCH  18  19
HETATM   19  C   UNL     1     -12.509  12.959  65.674  1.00  0.00    -0.338 C  
HETATM   20  S   UNL     1     -11.930  14.679  65.913  1.00  0.00    -0.171 SA 
HETATM   21  C   UNL     1     -12.119  15.071  64.229  1.00  0.00    -0.306 C  
HETATM   22  N   UNL     1     -12.317  13.945  63.508  1.00  0.00    -1.087 N  
HETATM   23  O   UNL     1     -12.107  16.205  63.786  1.00  0.00    -0.946 OA 
HETATM   24  C   UNL     1     -12.608  12.792  64.173  1.00  0.00    -0.305 C  
HETATM   25  H   UNL     1     -12.249  13.957  62.490  1.00  0.00     0.000 HD 
HETATM   26  O   UNL     1     -12.973  11.770  63.608  1.00  0.00    -0.591 OA 
ENDBRANCH  18  19
ENDBRANCH  15  18
ENDBRANCH  11  12
ENDBRANCH  10  11
ENDBRANCH   9  10
ENDBRANCH   6   9
ENDBRANCH   2   3
TORSDOF 7
ENDMDL
MODEL       71
REMARK 921   NORMALIZED FREE ENERGY PREDICTED BY IDOCK:   -5.16 KCAL/MOL
REMARK 922        TOTAL FREE ENERGY PREDICTED BY IDOCK:   -8.42 KCAL/MOL
REMARK 923 INTER-LIGAND FREE ENERGY PREDICTED BY IDOCK:   -7.23 KCAL/MOL
REMARK 924 INTRA-LIGAND FREE ENERGY PREDICTED BY IDOCK:   -1.18 KCAL/MOL
REMARK 927      BINDING AFFINITY PREDICTED BY RF-SCORE:    0.00 PKD
ROOT
HETATM    1  C   UNL     1     -10.229  10.132  65.740  1.00  0.00    -0.283 C  
HETATM    2  C   UNL     1      -9.314   8.916  65.720  1.00  0.00    -0.286 C  
ENDROOT
BRANCH   2   3
HETATM    3  C   UNL     1      -9.596   7.989  66.866  1.00  0.00    -0.265 A  
HETATM    4  C   UNL     1     -10.814   7.334  66.968  1.00  0.00    -0.280 A  
HETATM    5  N   UNL     1     -11.146   6.515  67.986  1.00  0.00    -0.279 NA 
HETATM    6  C   UNL     1     -10.235   6.307  68.972  1.00  0.00    -0.184 A  
HETATM    7  C   UNL     1      -8.992   6.928  68.958  1.00  0.00    -0.132 A  
HETATM    8  C   UNL     1      -8.675   7.776  67.893  1.00  0.00    -0.124 A  
BRANCH   6   9
HETATM    9  C   UNL     1     -10.647   5.393  70.111  1.00  0.00    -0.344 C  
BRANCH   9  10
HETATM   10  C   UNL     1     -10.243   6.027  71.440  1.00  0.00    -0.206 C  
BRANCH  10  11
HETATM   11  O   UNL     1     -11.350   6.458  72.243  1.00  0.00    -0.263 OA 
BRANCH  11  12
HETATM   12  C   UNL     1     -11.734   7.760  71.973  1.00  0.00    -0.304 A  
HETATM   13  C   UNL     1     -10.849   8.819  71.748  1.00  0.00    -0.416 A  
HETATM   14  C   UNL     1     -11.315  10.088  71.415  1.00  0.00    -0.251 A  
HETATM   15  C   UNL     1     -12.684  10.326  71.279  1.00  0.00    -0.523 A  
HETATM   16  C   UNL     1     -13.580   9.286  71.562  1.00  0.00    -0.412 A  
HETATM   17  C   UNL     1     -13.104   8.008  71.903  1.00  0.00    -0.336 A  
BRANCH  15  18
HETATM   18  C   UNL     1     -13.156  11.664  70.759  1.00  0.00     0.098 C  
BRANCH  18  19
HETATM   19  C   UNL     1     -12.000  12.519  70.225  1.00  0.00    -0.283 C  
HETATM   20  S   UNL     1     -11.717  12.350  68.424  1.00  0.00    -0.323 SA 
HETATM   21  C   UNL     1     -11.672  14.071  68.179  1.00  0.00    -0.352 C  
HETATM   22  N   UNL     1     -12.116  14.711  69.284  1.00  0.00    -0.478 N  
HETATM   23  O   UNL     1     -11.264  14.606  67.164  1.00  0.00    -0.322 OA 
HETATM   24  C   UNL     1     -12.247  13.997  70.437  1.00  0.00    -0.363 C  
HETATM   25  H   UNL     1     -12.347  15.704  69.256  1.00  0.00     0.000 HD 
HETATM   26  O   UNL     1     -12.470  14.518  71.522  1.00  0.00    -0.322 OA 
ENDBRANCH  18  19
ENDBRANCH  15  18
ENDBRANCH  11  12
ENDBRANCH  10  11
ENDBRANCH   9  10
ENDBRANCH   6   9
ENDBRANCH   2   3
TORSDOF 7
ENDMDL
MODEL       72
REMARK 921   NORMALIZED FREE ENERGY PREDICTED BY IDOCK:   -5.14 KCAL/MOL
REMARK 922        TOTAL FREE ENERGY PREDICTED BY IDOCK:   -8.39 KCAL/MOL
REMARK 923 INTER-LIGAND FREE ENERGY PREDICTED BY IDOCK:   -8.19 KCAL/MOL
REMARK 924 INTRA-LIGAND FREE ENERGY PREDICTED BY IDOCK:   -0.21 KCAL/MOL
REMARK 927      BINDING AFFINITY PREDICTED BY RF-SCORE:    0.00 PKD
ROOT
HETATM    1  C   UNL     1     -14.411   8.470  71.924  1.00  0.00    -0.536 C  
HETATM    2  C   UNL     1     -13.119   9.123  72.392  1.00  0.00    -0.493 C  
ENDROOT
BRANCH   2   3
HETATM    3  C   UNL     1     -12.799  10.357  71.598  1.00  0.00    -0.579 A  
HETATM    4  C   UNL     1     -12.006  10.287  70.464  1.00  0.00    -0.323 A  
HETATM    5  N   UNL     1     -11.653  11.358  69.725  1.00  0.00    -0.310 NA 
HETATM    6  C   UNL     1     -12.105  12.582  70.102  1.00  0.00    -0.292 A  
HETATM    7  C   UNL     1     -12.897  12.749  71.231  1.00  0.00    -0.355 A  
HETATM    8  C   UNL     1     -13.245  11.623  71.983  1.00  0.00    -0.443 A  
BRANCH   6   9
HETATM    9  C   UNL     1     -11.675  13.767  69.258  1.00  0.00    -0.376 C  
BRANCH   9  10
HETATM   10  C   UNL     1     -10.832  13.272  68.084  1.00  0.00    -0.251 C  
BRANCH  10  11
HETATM   11  O   UNL     1      -9.418  13.369  68.297  1.00  0.00    -0.210 OA 
BRANCH  11  12
HETATM   12  C   UNL     1      -8.845  14.436  67.626  1.00  0.00    -0.193 A  
HETATM   13  C   UNL     1      -9.543  15.323  66.801  1.00  0.00    -0.257 A  
HETATM   14  C   UNL     1      -8.906  16.414  66.214  1.00  0.00    -0.367 A  
HETATM   15  C   UNL     1      -7.553  16.657  66.457  1.00  0.00    -0.327 A  
HETATM   16  C   UNL     1      -6.832  15.740  67.235  1.00  0.00    -0.220 A  
HETATM   17  C   UNL     1      -7.479  14.637  67.819  1.00  0.00    -0.180 A  
BRANCH  15  18
HETATM   18  C   UNL     1      -6.926  17.933  65.945  1.00  0.00    -0.313 C  
BRANCH  18  19
HETATM   19  C   UNL     1      -7.448  19.172  66.683  1.00  0.00    -0.234 C  
HETATM   20  S   UNL     1      -9.237  19.481  66.450  1.00  0.00    -0.375 SA 
HETATM   21  C   UNL     1      -9.516  19.683  68.154  1.00  0.00    -0.360 C  
HETATM   22  N   UNL     1      -8.435  19.272  68.855  1.00  0.00    -0.343 N  
HETATM   23  O   UNL     1     -10.531  20.160  68.629  1.00  0.00    -0.370 OA 
HETATM   24  C   UNL     1      -7.271  19.051  68.181  1.00  0.00    -0.260 C  
HETATM   25  H   UNL     1      -8.489  19.130  69.864  1.00  0.00     0.000 HD 
HETATM   26  O   UNL     1      -6.203  18.850  68.744  1.00  0.00    -0.218 OA 
ENDBRANCH  18  19
ENDBRANCH  15  18
ENDBRANCH  11  12
ENDBRANCH  10  11
ENDBRANCH   9  10
ENDBRANCH   6   9
ENDBRANCH   2   3
TORSDOF 7
ENDMDL
MODEL       73
REMARK 921   NORMALIZED FREE ENERGY PREDICTED BY IDOCK:   -5.14 KCAL/MOL
REMARK 922        TOTAL FREE ENERGY PREDICTED BY IDOCK:   -8.39 KCAL/MOL
REMARK 923 INTER-LIGAND FREE ENERGY PREDICTED BY IDOCK:   -8.00 KCAL/MOL
REMARK 924 INTRA-LIGAND FREE ENERGY PREDICTED BY IDOCK:   -0.39 KCAL/MOL
REMARK 927      BINDING AFFINITY PREDICTED BY RF-SCORE:    0.00 PKD
ROOT
HETATM    1  C   UNL     1      -9.526   3.562  70.642  1.00  0.00    -0.243 C  
HETATM    2  C   UNL     1      -9.947   4.225  71.945  1.00  0.00    -0.255 C  
ENDROOT
BRANCH   2   3
HETATM    3  C   UNL     1     -10.573   5.570  71.709  1.00  0.00    -0.296 A  
HETATM    4  C   UNL     1     -10.853   6.419  72.767  1.00  0.00    -0.248 A  
HETATM    5  N   UNL     1     -11.444   7.624  72.630  1.00  0.00    -0.354 NA 
HETATM    6  C   UNL     1     -11.779   8.041  71.382  1.00  0.00    -0.287 A  
HETATM    7  C   UNL     1     -11.545   7.252  70.263  1.00  0.00    -0.208 A  
HETATM    8  C   UNL     1     -10.936   6.005  70.433  1.00  0.00    -0.399 A  
BRANCH   6   9
HETATM    9  C   UNL     1     -12.457   9.393  71.265  1.00  0.00    -0.416 C  
BRANCH   9  10
HETATM   10  C   UNL     1     -11.617  10.305  70.372  1.00  0.00    -0.328 C  
BRANCH  10  11
HETATM   11  O   UNL     1     -12.311  10.791  69.215  1.00  0.00    -0.368 OA 
BRANCH  11  12
HETATM   12  C   UNL     1     -11.981  12.097  68.901  1.00  0.00    -0.242 A  
HETATM   13  C   UNL     1     -11.755  12.570  67.605  1.00  0.00    -0.423 A  
HETATM   14  C   UNL     1     -11.495  13.917  67.364  1.00  0.00    -0.374 A  
HETATM   15  C   UNL     1     -11.473  14.832  68.418  1.00  0.00    -0.336 A  
HETATM   16  C   UNL     1     -11.638  14.357  69.727  1.00  0.00    -0.352 A  
HETATM   17  C   UNL     1     -11.896  12.996  69.964  1.00  0.00    -0.355 A  
BRANCH  15  18
HETATM   18  C   UNL     1     -11.351  16.308  68.116  1.00  0.00    -0.248 C  
BRANCH  18  19
HETATM   19  C   UNL     1      -9.934  16.695  67.675  1.00  0.00    -0.264 C  
HETATM   20  S   UNL     1      -8.606  15.910  68.660  1.00  0.00    -0.212 SA 
HETATM   21  C   UNL     1      -7.739  15.393  67.244  1.00  0.00    -0.213 C  
HETATM   22  N   UNL     1      -8.513  15.537  66.145  1.00  0.00    -0.365 N  
HETATM   23  O   UNL     1      -6.588  14.994  67.255  1.00  0.00    -0.292 OA 
HETATM   24  C   UNL     1      -9.654  16.274  66.248  1.00  0.00    -0.308 C  
HETATM   25  H   UNL     1      -8.250  15.105  65.259  1.00  0.00     0.000 HD 
HETATM   26  O   UNL     1     -10.323  16.607  65.279  1.00  0.00    -0.609 OA 
ENDBRANCH  18  19
ENDBRANCH  15  18
ENDBRANCH  11  12
ENDBRANCH  10  11
ENDBRANCH   9  10
ENDBRANCH   6   9
ENDBRANCH   2   3
TORSDOF 7
ENDMDL
MODEL       74
REMARK 921   NORMALIZED FREE ENERGY PREDICTED BY IDOCK:   -5.14 KCAL/MOL
REMARK 922        TOTAL FREE ENERGY PREDICTED BY IDOCK:   -8.39 KCAL/MOL
REMARK 923 INTER-LIGAND FREE ENERGY PREDICTED BY IDOCK:   -7.58 KCAL/MOL
REMARK 924 INTRA-LIGAND FREE ENERGY PREDICTED BY IDOCK:   -0.81 KCAL/MOL
REMARK 927      BINDING AFFINITY PREDICTED BY RF-SCORE:    0.00 PKD
ROOT
HETATM    1  C   UNL     1     -11.090   5.485  72.710  1.00  0.00    -0.340 C  
HETATM    2  C   UNL     1     -11.459   6.906  72.310  1.00  0.00    -0.313 C  
ENDROOT
BRANCH   2   3
HETATM    3  C   UNL     1     -11.076   7.202  70.889  1.00  0.00    -0.290 A  
HETATM    4  C   UNL     1     -11.387   6.316  69.870  1.00  0.00    -0.434 A  
HETATM    5  N   UNL     1     -11.044   6.502  68.579  1.00  0.00    -0.291 NA 
HETATM    6  C   UNL     1     -10.361   7.628  68.248  1.00  0.00    -0.198 A  
HETATM    7  C   UNL     1      -9.998   8.568  69.204  1.00  0.00    -0.194 A  
HETATM    8  C   UNL     1     -10.362   8.348  70.536  1.00  0.00    -0.220 A  
BRANCH   6   9
HETATM    9  C   UNL     1      -9.977   7.798  66.789  1.00  0.00    -0.331 C  
BRANCH   9  10
HETATM   10  C   UNL     1      -9.517   9.235  66.551  1.00  0.00    -0.202 C  
BRANCH  10  11
HETATM   11  O   UNL     1     -10.365   9.982  65.669  1.00  0.00    -0.233 OA 
BRANCH  11  12
HETATM   12  C   UNL     1     -10.557  11.287  66.086  1.00  0.00    -0.258 A  
HETATM   13  C   UNL     1     -10.027  12.412  65.447  1.00  0.00    -0.253 A  
HETATM   14  C   UNL     1     -10.324  13.699  65.890  1.00  0.00    -0.304 A  
HETATM   15  C   UNL     1     -11.178  13.893  66.977  1.00  0.00    -0.327 A  
HETATM   16  C   UNL     1     -11.666  12.770  67.660  1.00  0.00    -0.422 A  
HETATM   17  C   UNL     1     -11.358  11.474  67.211  1.00  0.00    -0.359 A  
BRANCH  15  18
HETATM   18  C   UNL     1     -11.614  15.295  67.336  1.00  0.00    -0.196 C  
BRANCH  18  19
HETATM   19  C   UNL     1     -10.426  16.203  67.676  1.00  0.00    -0.292 C  
HETATM   20  S   UNL     1     -10.161  17.563  66.480  1.00  0.00    -0.340 SA 
HETATM   21  C   UNL     1     -10.043  18.763  67.733  1.00  0.00    -0.368 C  
HETATM   22  N   UNL     1     -10.453  18.245  68.913  1.00  0.00    -0.407 N  
HETATM   23  O   UNL     1      -9.619  19.891  67.562  1.00  0.00    -0.331 OA 
HETATM   24  C   UNL     1     -10.609  16.895  69.009  1.00  0.00    -0.338 C  
HETATM   25  H   UNL     1     -10.642  18.850  69.712  1.00  0.00     0.000 HD 
HETATM   26  O   UNL     1     -10.803  16.320  70.072  1.00  0.00    -0.335 OA 
ENDBRANCH  18  19
ENDBRANCH  15  18
ENDBRANCH  11  12
ENDBRANCH  10  11
ENDBRANCH   9  10
ENDBRANCH   6   9
ENDBRANCH   2   3
TORSDOF 7
ENDMDL
MODEL       75
REMARK 921   NORMALIZED FREE ENERGY PREDICTED BY IDOCK:   -5.13 KCAL/MOL
REMARK 922        TOTAL FREE ENERGY PREDICTED BY IDOCK:   -8.37 KCAL/MOL
REMARK 923 INTER-LIGAND FREE ENERGY PREDICTED BY IDOCK:   -7.63 KCAL/MOL
REMARK 924 INTRA-LIGAND FREE ENERGY PREDICTED BY IDOCK:   -0.74 KCAL/MOL
REMARK 927      BINDING AFFINITY PREDICTED BY RF-SCORE:    0.00 PKD
ROOT
HETATM    1  C   UNL     1      -9.443   3.270  69.542  1.00  0.00    -0.205 C  
HETATM    2  C   UNL     1      -9.982   4.596  70.060  1.00  0.00    -0.302 C  
ENDROOT
BRANCH   2   3
HETATM    3  C   UNL     1      -9.742   5.713  69.085  1.00  0.00    -0.193 A  
HETATM    4  C   UNL     1      -9.938   5.524  67.726  1.00  0.00    -0.155 A  
HETATM    5  N   UNL     1      -9.710   6.472  66.794  1.00  0.00    -0.159 NA 
HETATM    6  C   UNL     1      -9.269   7.689  67.204  1.00  0.00    -0.132 A  
HETATM    7  C   UNL     1      -9.035   7.965  68.545  1.00  0.00    -0.133 A  
HETATM    8  C   UNL     1      -9.276   6.964  69.491  1.00  0.00    -0.148 A  
BRANCH   6   9
HETATM    9  C   UNL     1      -9.006   8.726  66.128  1.00  0.00    -0.225 C  
BRANCH   9  10
HETATM   10  C   UNL     1      -9.362  10.112  66.663  1.00  0.00    -0.162 C  
BRANCH  10  11
HETATM   11  O   UNL     1     -10.743  10.463  66.508  1.00  0.00    -0.184 OA 
BRANCH  11  12
HETATM   12  C   UNL     1     -11.131  11.498  67.341  1.00  0.00    -0.282 A  
HETATM   13  C   UNL     1     -11.227  12.837  66.953  1.00  0.00    -0.339 A  
HETATM   14  C   UNL     1     -11.691  13.811  67.833  1.00  0.00    -0.395 A  
HETATM   15  C   UNL     1     -12.092  13.464  69.124  1.00  0.00    -0.306 A  
HETATM   16  C   UNL     1     -11.943  12.134  69.542  1.00  0.00    -0.338 A  
HETATM   17  C   UNL     1     -11.468  11.156  68.650  1.00  0.00    -0.363 A  
BRANCH  15  18
HETATM   18  C   UNL     1     -12.744  14.506  70.003  1.00  0.00    -0.187 C  
BRANCH  18  19
HETATM   19  C   UNL     1     -12.173  14.504  71.426  1.00  0.00    -0.358 C  
HETATM   20  S   UNL     1     -11.710  16.163  72.047  1.00  0.00    -0.411 SA 
HETATM   21  C   UNL     1     -12.556  15.935  73.549  1.00  0.00    -0.578 C  
HETATM   22  N   UNL     1     -13.350  14.844  73.475  1.00  0.00    -0.286 N  
HETATM   23  O   UNL     1     -12.416  16.647  74.527  1.00  0.00    -0.737 OA 
HETATM   24  C   UNL     1     -13.173  13.982  72.435  1.00  0.00    -0.488 C  
HETATM   25  H   UNL     1     -14.065  14.669  74.182  1.00  0.00     0.000 HD 
HETATM   26  O   UNL     1     -13.716  12.887  72.376  1.00  0.00    -0.565 OA 
ENDBRANCH  18  19
ENDBRANCH  15  18
ENDBRANCH  11  12
ENDBRANCH  10  11
ENDBRANCH   9  10
ENDBRANCH   6   9
ENDBRANCH   2   3
TORSDOF 7
ENDMDL
MODEL       76
REMARK 921   NORMALIZED FREE ENERGY PREDICTED BY IDOCK:   -5.10 KCAL/MOL
REMARK 922        TOTAL FREE ENERGY PREDICTED BY IDOCK:   -8.34 KCAL/MOL
REMARK 923 INTER-LIGAND FREE ENERGY PREDICTED BY IDOCK:   -7.56 KCAL/MOL
REMARK 924 INTRA-LIGAND FREE ENERGY PREDICTED BY IDOCK:   -0.78 KCAL/MOL
REMARK 927      BINDING AFFINITY PREDICTED BY RF-SCORE:    0.00 PKD
ROOT
HETATM    1  C   UNL     1     -13.384   9.583  72.258  1.00  0.00    -0.526 C  
HETATM    2  C   UNL     1     -12.640   8.256  72.258  1.00  0.00    -0.357 C  
ENDROOT
BRANCH   2   3
HETATM    3  C   UNL     1     -11.464   8.278  71.325  1.00  0.00    -0.314 A  
HETATM    4  C   UNL     1     -11.324   7.319  70.335  1.00  0.00    -0.271 A  
HETATM    5  N   UNL     1     -10.278   7.259  69.486  1.00  0.00    -0.192 NA 
HETATM    6  C   UNL     1      -9.302   8.198  69.596  1.00  0.00    -0.159 A  
HETATM    7  C   UNL     1      -9.354   9.192  70.565  1.00  0.00    -0.287 A  
HETATM    8  C   UNL     1     -10.447   9.229  71.435  1.00  0.00    -0.408 A  
BRANCH   6   9
HETATM    9  C   UNL     1      -8.132   8.092  68.636  1.00  0.00    -0.125 C  
BRANCH   9  10
HETATM   10  C   UNL     1      -8.210   9.226  67.615  1.00  0.00    -0.115 C  
BRANCH  10  11
HETATM   11  O   UNL     1      -9.197   9.029  66.595  1.00  0.00    -0.149 OA 
BRANCH  11  12
HETATM   12  C   UNL     1     -10.035  10.119  66.441  1.00  0.00    -0.234 A  
HETATM   13  C   UNL     1     -10.997  10.521  67.372  1.00  0.00    -0.352 A  
HETATM   14  C   UNL     1     -11.756  11.671  67.175  1.00  0.00    -0.215 A  
HETATM   15  C   UNL     1     -11.556  12.464  66.043  1.00  0.00    -0.455 A  
HETATM   16  C   UNL     1     -10.636  12.037  65.075  1.00  0.00    -0.332 A  
HETATM   17  C   UNL     1      -9.877  10.871  65.278  1.00  0.00    -0.318 A  
BRANCH  15  18
HETATM   18  C   UNL     1     -12.272  13.790  65.931  1.00  0.00    -0.501 C  
BRANCH  18  19
HETATM   19  C   UNL     1     -11.448  14.945  66.511  1.00  0.00    -0.286 C  
HETATM   20  S   UNL     1     -10.237  14.431  67.784  1.00  0.00    -0.232 SA 
HETATM   21  C   UNL     1      -8.939  15.313  67.035  1.00  0.00    -0.233 C  
HETATM   22  N   UNL     1      -9.303  15.714  65.796  1.00  0.00    -0.314 N  
HETATM   23  O   UNL     1      -7.875  15.555  67.576  1.00  0.00    -0.139 OA 
HETATM   24  C   UNL     1     -10.618  15.635  65.449  1.00  0.00    -0.415 C  
HETATM   25  H   UNL     1      -8.610  16.067  65.136  1.00  0.00     0.000 HD 
HETATM   26  O   UNL     1     -11.069  16.132  64.426  1.00  0.00    -0.628 OA 
ENDBRANCH  18  19
ENDBRANCH  15  18
ENDBRANCH  11  12
ENDBRANCH  10  11
ENDBRANCH   9  10
ENDBRANCH   6   9
ENDBRANCH   2   3
TORSDOF 7
ENDMDL
MODEL       77
REMARK 921   NORMALIZED FREE ENERGY PREDICTED BY IDOCK:   -5.03 KCAL/MOL
REMARK 922        TOTAL FREE ENERGY PREDICTED BY IDOCK:   -8.23 KCAL/MOL
REMARK 923 INTER-LIGAND FREE ENERGY PREDICTED BY IDOCK:   -7.63 KCAL/MOL
REMARK 924 INTRA-LIGAND FREE ENERGY PREDICTED BY IDOCK:   -0.60 KCAL/MOL
REMARK 927      BINDING AFFINITY PREDICTED BY RF-SCORE:    0.00 PKD
ROOT
HETATM    1  C   UNL     1      -6.111  20.490  65.053  1.00  0.00    -0.295 C  
HETATM    2  C   UNL     1      -6.867  20.282  66.357  1.00  0.00    -0.273 C  
ENDROOT
BRANCH   2   3
HETATM    3  C   UNL     1      -7.544  18.942  66.400  1.00  0.00    -0.281 A  
HETATM    4  C   UNL     1      -8.923  18.846  66.501  1.00  0.00    -0.323 A  
HETATM    5  N   UNL     1      -9.593  17.678  66.579  1.00  0.00    -0.284 NA 
HETATM    6  C   UNL     1      -8.881  16.522  66.548  1.00  0.00    -0.282 A  
HETATM    7  C   UNL     1      -7.495  16.522  66.458  1.00  0.00    -0.270 A  
HETATM    8  C   UNL     1      -6.825  17.746  66.384  1.00  0.00    -0.285 A  
BRANCH   6   9
HETATM    9  C   UNL     1      -9.665  15.227  66.653  1.00  0.00    -0.268 C  
BRANCH   9  10
HETATM   10  C   UNL     1     -11.143  15.545  66.872  1.00  0.00    -0.221 C  
BRANCH  10  11
HETATM   11  O   UNL     1     -12.023  14.442  66.621  1.00  0.00    -0.407 OA 
BRANCH  11  12
HETATM   12  C   UNL     1     -11.667  13.301  67.319  1.00  0.00    -0.377 A  
HETATM   13  C   UNL     1     -11.733  13.166  68.709  1.00  0.00    -0.363 A  
HETATM   14  C   UNL     1     -11.421  11.960  69.331  1.00  0.00    -0.366 A  
HETATM   15  C   UNL     1     -11.052  10.848  68.573  1.00  0.00    -0.311 A  
HETATM   16  C   UNL     1     -10.925  10.991  67.184  1.00  0.00    -0.344 A  
HETATM   17  C   UNL     1     -11.236  12.212  66.562  1.00  0.00    -0.378 A  
BRANCH  15  18
HETATM   18  C   UNL     1     -10.878   9.510  69.255  1.00  0.00    -0.211 C  
BRANCH  18  19
HETATM   19  C   UNL     1     -10.702   9.651  70.772  1.00  0.00    -0.331 C  
HETATM   20  S   UNL     1     -11.913   8.693  71.755  1.00  0.00    -0.364 SA 
HETATM   21  C   UNL     1     -10.679   8.001  72.767  1.00  0.00    -0.362 C  
HETATM   22  N   UNL     1      -9.458   8.235  72.237  1.00  0.00    -0.243 N  
HETATM   23  O   UNL     1     -10.900   7.424  73.816  1.00  0.00    -0.321 OA 
HETATM   24  C   UNL     1      -9.351   9.148  71.231  1.00  0.00    -0.215 C  
HETATM   25  H   UNL     1      -8.635   7.739  72.581  1.00  0.00     0.000 HD 
HETATM   26  O   UNL     1      -8.276   9.554  70.811  1.00  0.00    -0.251 OA 
ENDBRANCH  18  19
ENDBRANCH  15  18
ENDBRANCH  11  12
ENDBRANCH  10  11
ENDBRANCH   9  10
ENDBRANCH   6   9
ENDBRANCH   2   3
TORSDOF 7
ENDMDL
MODEL       78
REMARK 921   NORMALIZED FREE ENERGY PREDICTED BY IDOCK:   -5.02 KCAL/MOL
REMARK 922        TOTAL FREE ENERGY PREDICTED BY IDOCK:   -8.22 KCAL/MOL
REMARK 923 INTER-LIGAND FREE ENERGY PREDICTED BY IDOCK:   -7.21 KCAL/MOL
REMARK 924 INTRA-LIGAND FREE ENERGY PREDICTED BY IDOCK:   -1.01 KCAL/MOL
REMARK 927      BINDING AFFINITY PREDICTED BY RF-SCORE:    0.00 PKD
ROOT
HETATM    1  C   UNL     1     -12.381  14.834  64.512  1.00  0.00    -0.384 C  
HETATM    2  C   UNL     1     -12.522  13.570  65.348  1.00  0.00    -0.540 C  
ENDROOT
BRANCH   2   3
HETATM    3  C   UNL     1     -11.532  12.519  64.936  1.00  0.00    -0.367 A  
HETATM    4  C   UNL     1     -11.207  12.332  63.602  1.00  0.00    -0.466 A  
HETATM    5  N   UNL     1     -10.354  11.385  63.160  1.00  0.00    -0.334 NA 
HETATM    6  C   UNL     1      -9.766  10.568  64.072  1.00  0.00    -0.323 A  
HETATM    7  C   UNL     1     -10.040  10.676  65.430  1.00  0.00    -0.356 A  
HETATM    8  C   UNL     1     -10.931  11.663  65.861  1.00  0.00    -0.334 A  
BRANCH   6   9
HETATM    9  C   UNL     1      -8.825   9.504  63.539  1.00  0.00    -0.235 C  
BRANCH   9  10
HETATM   10  C   UNL     1      -7.855   9.087  64.644  1.00  0.00    -0.121 C  
BRANCH  10  11
HETATM   11  O   UNL     1      -8.065   7.756  65.134  1.00  0.00    -0.126 OA 
BRANCH  11  12
HETATM   12  C   UNL     1      -8.646   7.732  66.390  1.00  0.00    -0.145 A  
HETATM   13  C   UNL     1      -8.070   8.273  67.542  1.00  0.00    -0.122 A  
HETATM   14  C   UNL     1      -8.749   8.269  68.758  1.00  0.00    -0.137 A  
HETATM   15  C   UNL     1     -10.037   7.737  68.846  1.00  0.00    -0.201 A  
HETATM   16  C   UNL     1     -10.598   7.138  67.709  1.00  0.00    -0.293 A  
HETATM   17  C   UNL     1      -9.905   7.141  66.486  1.00  0.00    -0.189 A  
BRANCH  15  18
HETATM   18  C   UNL     1     -10.817   7.891  70.132  1.00  0.00    -0.243 C  
BRANCH  18  19
HETATM   19  C   UNL     1     -11.419   6.563  70.607  1.00  0.00    -0.374 C  
HETATM   20  S   UNL     1     -10.200   5.413  71.342  1.00  0.00    -0.223 SA 
HETATM   21  C   UNL     1     -11.191   5.116  72.741  1.00  0.00    -0.255 C  
HETATM   22  N   UNL     1     -12.201   6.012  72.794  1.00  0.00    -0.501 N  
HETATM   23  O   UNL     1     -11.006   4.206  73.529  1.00  0.00    -0.226 OA 
HETATM   24  C   UNL     1     -12.455   6.770  71.690  1.00  0.00    -0.351 C  
HETATM   25  H   UNL     1     -12.761   6.119  73.640  1.00  0.00     0.000 HD 
HETATM   26  O   UNL     1     -13.448   7.476  71.580  1.00  0.00    -0.362 OA 
ENDBRANCH  18  19
ENDBRANCH  15  18
ENDBRANCH  11  12
ENDBRANCH  10  11
ENDBRANCH   9  10
ENDBRANCH   6   9
ENDBRANCH   2   3
TORSDOF 7
ENDMDL
MODEL       79
REMARK 921   NORMALIZED FREE ENERGY PREDICTED BY IDOCK:   -5.02 KCAL/MOL
REMARK 922        TOTAL FREE ENERGY PREDICTED BY IDOCK:   -8.21 KCAL/MOL
REMARK 923 INTER-LIGAND FREE ENERGY PREDICTED BY IDOCK:   -7.23 KCAL/MOL
REMARK 924 INTRA-LIGAND FREE ENERGY PREDICTED BY IDOCK:   -0.98 KCAL/MOL
REMARK 927      BINDING AFFINITY PREDICTED BY RF-SCORE:    0.00 PKD
ROOT
HETATM    1  C   UNL     1     -10.351  19.789  67.985  1.00  0.00    -0.567 C  
HETATM    2  C   UNL     1      -9.331  18.974  67.203  1.00  0.00    -0.345 C  
ENDROOT
BRANCH   2   3
HETATM    3  C   UNL     1      -9.972  17.817  66.492  1.00  0.00    -0.346 A  
HETATM    4  C   UNL     1     -10.640  18.002  65.292  1.00  0.00     0.345 A  
HETATM    5  N   UNL     1     -11.266  17.015  64.618  1.00  0.00    -0.972 NA 
HETATM    6  C   UNL     1     -11.237  15.759  65.136  1.00  0.00    -0.248 A  
HETATM    7  C   UNL     1     -10.600  15.482  66.339  1.00  0.00    -0.312 A  
HETATM    8  C   UNL     1      -9.962  16.524  67.020  1.00  0.00    -0.268 A  
BRANCH   6   9
HETATM    9  C   UNL     1     -11.964  14.677  64.361  1.00  0.00    -0.454 C  
BRANCH   9  10
HETATM   10  C   UNL     1     -12.868  13.894  65.312  1.00  0.00    -0.398 C  
BRANCH  10  11
HETATM   11  O   UNL     1     -12.668  12.475  65.275  1.00  0.00    -0.654 OA 
BRANCH  11  12
HETATM   12  C   UNL     1     -11.726  12.042  66.191  1.00  0.00    -0.241 A  
HETATM   13  C   UNL     1     -11.795  12.267  67.569  1.00  0.00    -0.331 A  
HETATM   14  C   UNL     1     -10.840  11.738  68.435  1.00  0.00    -0.260 A  
HETATM   15  C   UNL     1      -9.799  10.950  67.942  1.00  0.00    -0.189 A  
HETATM   16  C   UNL     1      -9.688  10.768  66.556  1.00  0.00    -0.236 A  
HETATM   17  C   UNL     1     -10.652  11.309  65.687  1.00  0.00    -0.303 A  
BRANCH  15  18
HETATM   18  C   UNL     1      -8.873  10.254  68.912  1.00  0.00    -0.157 C  
BRANCH  18  19
HETATM   19  C   UNL     1      -9.449   8.922  69.409  1.00  0.00    -0.161 C  
HETATM   20  S   UNL     1      -8.236   7.552  69.444  1.00  0.00    -0.131 SA 
HETATM   21  C   UNL     1      -8.659   7.099  71.069  1.00  0.00    -0.133 C  
HETATM   22  N   UNL     1      -9.424   8.059  71.636  1.00  0.00    -0.155 N  
HETATM   23  O   UNL     1      -8.334   6.049  71.593  1.00  0.00    -0.124 OA 
HETATM   24  C   UNL     1      -9.954   9.023  70.832  1.00  0.00    -0.260 C  
HETATM   25  H   UNL     1      -9.600   8.062  72.640  1.00  0.00     0.000 HD 
HETATM   26  O   UNL     1     -10.795   9.825  71.218  1.00  0.00    -0.334 OA 
ENDBRANCH  18  19
ENDBRANCH  15  18
ENDBRANCH  11  12
ENDBRANCH  10  11
ENDBRANCH   9  10
ENDBRANCH   6   9
ENDBRANCH   2   3
TORSDOF 7
ENDMDL
MODEL       80
REMARK 921   NORMALIZED FREE ENERGY PREDICTED BY IDOCK:   -5.01 KCAL/MOL
REMARK 922        TOTAL FREE ENERGY PREDICTED BY IDOCK:   -8.21 KCAL/MOL
REMARK 923 INTER-LIGAND FREE ENERGY PREDICTED BY IDOCK:   -7.70 KCAL/MOL
REMARK 924 INTRA-LIGAND FREE ENERGY PREDICTED BY IDOCK:   -0.51 KCAL/MOL
REMARK 927      BINDING AFFINITY PREDICTED BY RF-SCORE:    0.00 PKD
ROOT
HETATM    1  C   UNL     1      -8.326   5.041  71.109  1.00  0.00    -0.115 C  
HETATM    2  C   UNL     1      -9.659   4.823  71.810  1.00  0.00    -0.211 C  
ENDROOT
BRANCH   2   3
HETATM    3  C   UNL     1     -10.511   6.059  71.782  1.00  0.00    -0.268 A  
HETATM    4  C   UNL     1     -11.487   6.228  70.813  1.00  0.00    -0.316 A  
HETATM    5  N   UNL     1     -12.263   7.326  70.709  1.00  0.00    -0.263 NA 
HETATM    6  C   UNL     1     -12.090   8.328  71.610  1.00  0.00    -0.306 A  
HETATM    7  C   UNL     1     -11.128   8.250  72.609  1.00  0.00    -0.400 A  
HETATM    8  C   UNL     1     -10.334   7.103  72.692  1.00  0.00    -0.246 A  
BRANCH   6   9
HETATM    9  C   UNL     1     -12.968   9.555  71.454  1.00  0.00    -0.450 C  
BRANCH   9  10
HETATM   10  C   UNL     1     -12.189  10.646  70.723  1.00  0.00    -0.375 C  
BRANCH  10  11
HETATM   11  O   UNL     1     -12.611  10.862  69.370  1.00  0.00    -0.335 OA 
BRANCH  11  12
HETATM   12  C   UNL     1     -11.870  11.836  68.725  1.00  0.00    -0.320 A  
HETATM   13  C   UNL     1     -10.998  11.596  67.660  1.00  0.00    -0.294 A  
HETATM   14  C   UNL     1     -10.339  12.641  67.018  1.00  0.00    -0.241 A  
HETATM   15  C   UNL     1     -10.554  13.962  67.415  1.00  0.00    -0.267 A  
HETATM   16  C   UNL     1     -11.381  14.208  68.520  1.00  0.00    -0.312 A  
HETATM   17  C   UNL     1     -12.039  13.148  69.168  1.00  0.00    -0.261 A  
BRANCH  15  18
HETATM   18  C   UNL     1      -9.958  15.088  66.601  1.00  0.00    -0.266 C  
BRANCH  18  19
HETATM   19  C   UNL     1     -10.251  16.463  67.212  1.00  0.00    -0.278 C  
HETATM   20  S   UNL     1      -9.064  16.971  68.509  1.00  0.00    -0.263 SA 
HETATM   21  C   UNL     1      -8.822  18.541  67.800  1.00  0.00    -0.275 C  
HETATM   22  N   UNL     1      -9.352  18.576  66.556  1.00  0.00    -0.310 N  
HETATM   23  O   UNL     1      -8.283  19.472  68.368  1.00  0.00    -0.333 OA 
HETATM   24  C   UNL     1     -10.183  17.565  66.177  1.00  0.00    -0.335 C  
HETATM   25  H   UNL     1      -9.134  19.340  65.917  1.00  0.00     0.000 HD 
HETATM   26  O   UNL     1     -10.845  17.597  65.148  1.00  0.00    -0.664 OA 
ENDBRANCH  18  19
ENDBRANCH  15  18
ENDBRANCH  11  12
ENDBRANCH  10  11
ENDBRANCH   9  10
ENDBRANCH   6   9
ENDBRANCH   2   3
TORSDOF 7
ENDMDL
MODEL       81
REMARK 921   NORMALIZED FREE ENERGY PREDICTED BY IDOCK:   -5.01 KCAL/MOL
REMARK 922        TOTAL FREE ENERGY PREDICTED BY IDOCK:   -8.21 KCAL/MOL
REMARK 923 INTER-LIGAND FREE ENERGY PREDICTED BY IDOCK:   -7.47 KCAL/MOL
REMARK 924 INTRA-LIGAND FREE ENERGY PREDICTED BY IDOCK:   -0.74 KCAL/MOL
REMARK 927      BINDING AFFINITY PREDICTED BY RF-SCORE:    0.00 PKD
ROOT
HETATM    1  C   UNL     1      -8.966   9.659  63.574  1.00  0.00    -0.247 C  
HETATM    2  C   UNL     1      -9.659  10.804  62.849  1.00  0.00    -0.366 C  
ENDROOT
BRANCH   2   3
HETATM    3  C   UNL     1     -10.301  11.763  63.809  1.00  0.00    -0.451 A  
HETATM    4  C   UNL     1      -9.761  11.977  65.067  1.00  0.00    -0.121 A  
HETATM    5  N   UNL     1     -10.304  12.797  65.990  1.00  0.00    -0.271 NA 
HETATM    6  C   UNL     1     -11.444  13.464  65.672  1.00  0.00    -0.316 A  
HETATM    7  C   UNL     1     -12.061  13.303  64.438  1.00  0.00    -0.471 A  
HETATM    8  C   UNL     1     -11.480  12.444  63.501  1.00  0.00    -0.561 A  
BRANCH   6   9
HETATM    9  C   UNL     1     -12.036  14.366  66.739  1.00  0.00    -0.393 C  
BRANCH   9  10
HETATM   10  C   UNL     1     -11.334  14.105  68.070  1.00  0.00    -0.299 C  
BRANCH  10  11
HETATM   11  O   UNL     1     -12.226  13.838  69.160  1.00  0.00    -0.344 OA 
BRANCH  11  12
HETATM   12  C   UNL     1     -12.026  12.591  69.725  1.00  0.00    -0.289 A  
HETATM   13  C   UNL     1     -12.780  12.065  70.778  1.00  0.00    -0.231 A  
HETATM   14  C   UNL     1     -12.561  10.772  71.247  1.00  0.00    -0.532 A  
HETATM   15  C   UNL     1     -11.588   9.963  70.657  1.00  0.00    -0.413 A  
HETATM   16  C   UNL     1     -10.787  10.502  69.641  1.00  0.00    -0.320 A  
HETATM   17  C   UNL     1     -11.010  11.810  69.176  1.00  0.00    -0.261 A  
BRANCH  15  18
HETATM   18  C   UNL     1     -11.480   8.513  71.071  1.00  0.00    -0.313 C  
BRANCH  18  19
HETATM   19  C   UNL     1     -10.168   7.873  70.602  1.00  0.00    -0.196 C  
HETATM   20  S   UNL     1      -8.734   8.236  71.680  1.00  0.00    -0.181 SA 
HETATM   21  C   UNL     1      -8.259   6.565  71.762  1.00  0.00    -0.112 C  
HETATM   22  N   UNL     1      -9.242   5.776  71.273  1.00  0.00    -0.146 N  
HETATM   23  O   UNL     1      -7.178   6.181  72.172  1.00  0.00    -0.088 OA 
HETATM   24  C   UNL     1     -10.256   6.362  70.576  1.00  0.00    -0.189 C  
HETATM   25  H   UNL     1      -9.226   4.767  71.422  1.00  0.00     0.000 HD 
HETATM   26  O   UNL     1     -11.090   5.723  69.949  1.00  0.00    -0.360 OA 
ENDBRANCH  18  19
ENDBRANCH  15  18
ENDBRANCH  11  12
ENDBRANCH  10  11
ENDBRANCH   9  10
ENDBRANCH   6   9
ENDBRANCH   2   3
TORSDOF 7
ENDMDL
MODEL       82
REMARK 921   NORMALIZED FREE ENERGY PREDICTED BY IDOCK:   -5.00 KCAL/MOL
REMARK 922        TOTAL FREE ENERGY PREDICTED BY IDOCK:   -8.20 KCAL/MOL
REMARK 923 INTER-LIGAND FREE ENERGY PREDICTED BY IDOCK:   -7.08 KCAL/MOL
REMARK 924 INTRA-LIGAND FREE ENERGY PREDICTED BY IDOCK:   -1.11 KCAL/MOL
REMARK 927      BINDING AFFINITY PREDICTED BY RF-SCORE:    0.00 PKD
ROOT
HETATM    1  C   UNL     1      -9.606  12.165  66.254  1.00  0.00    -0.246 C  
HETATM    2  C   UNL     1     -10.740  13.060  66.732  1.00  0.00    -0.273 C  
ENDROOT
BRANCH   2   3
HETATM    3  C   UNL     1     -11.326  12.573  68.026  1.00  0.00    -0.339 A  
HETATM    4  C   UNL     1     -11.698  13.465  69.019  1.00  0.00    -0.323 A  
HETATM    5  N   UNL     1     -12.197  13.095  70.216  1.00  0.00    -0.333 NA 
HETATM    6  C   UNL     1     -12.357  11.770  70.468  1.00  0.00    -0.299 A  
HETATM    7  C   UNL     1     -12.002  10.803  69.535  1.00  0.00    -0.364 A  
HETATM    8  C   UNL     1     -11.482  11.213  68.304  1.00  0.00    -0.373 A  
BRANCH   6   9
HETATM    9  C   UNL     1     -12.906  11.388  71.830  1.00  0.00    -0.449 C  
BRANCH   9  10
HETATM   10  C   UNL     1     -13.415   9.949  71.785  1.00  0.00    -0.353 C  
BRANCH  10  11
HETATM   11  O   UNL     1     -12.676   9.040  72.611  1.00  0.00    -0.351 OA 
BRANCH  11  12
HETATM   12  C   UNL     1     -11.901   8.158  71.879  1.00  0.00    -0.317 A  
HETATM   13  C   UNL     1     -12.398   7.051  71.184  1.00  0.00    -0.423 A  
HETATM   14  C   UNL     1     -11.562   6.249  70.413  1.00  0.00    -0.371 A  
HETATM   15  C   UNL     1     -10.202   6.547  70.301  1.00  0.00    -0.227 A  
HETATM   16  C   UNL     1      -9.684   7.619  71.042  1.00  0.00    -0.169 A  
HETATM   17  C   UNL     1     -10.533   8.422  71.823  1.00  0.00    -0.353 A  
BRANCH  15  18
HETATM   18  C   UNL     1      -9.348   5.762  69.332  1.00  0.00    -0.151 C  
BRANCH  18  19
HETATM   19  C   UNL     1     -10.189   4.883  68.398  1.00  0.00    -0.028 C  
HETATM   20  S   UNL     1     -10.452   5.600  66.735  1.00  0.00    -0.298 SA 
HETATM   21  C   UNL     1      -9.988   4.129  65.930  1.00  0.00    -0.186 C  
HETATM   22  N   UNL     1      -9.414   3.278  66.809  1.00  0.00    -0.362 N  
HETATM   23  O   UNL     1     -10.191   3.902  64.751  1.00  0.00    -0.208 OA 
HETATM   24  C   UNL     1      -9.531   3.545  68.140  1.00  0.00    -0.155 C  
HETATM   25  H   UNL     1      -8.904   2.457  66.485  1.00  0.00     0.000 HD 
HETATM   26  O   UNL     1      -9.201   2.750  69.011  1.00  0.00    -0.132 OA 
ENDBRANCH  18  19
ENDBRANCH  15  18
ENDBRANCH  11  12
ENDBRANCH  10  11
ENDBRANCH   9  10
ENDBRANCH   6   9
ENDBRANCH   2   3
TORSDOF 7
ENDMDL
MODEL       83
REMARK 921   NORMALIZED FREE ENERGY PREDICTED BY IDOCK:   -5.00 KCAL/MOL
REMARK 922        TOTAL FREE ENERGY PREDICTED BY IDOCK:   -8.19 KCAL/MOL
REMARK 923 INTER-LIGAND FREE ENERGY PREDICTED BY IDOCK:   -7.58 KCAL/MOL
REMARK 924 INTRA-LIGAND FREE ENERGY PREDICTED BY IDOCK:   -0.61 KCAL/MOL
REMARK 927      BINDING AFFINITY PREDICTED BY RF-SCORE:    0.00 PKD
ROOT
HETATM    1  C   UNL     1     -12.082  12.587  63.433  1.00  0.00    -0.621 C  
HETATM    2  C   UNL     1     -12.021  13.801  64.349  1.00  0.00    -0.480 C  
ENDROOT
BRANCH   2   3
HETATM    3  C   UNL     1     -11.960  13.404  65.795  1.00  0.00    -0.447 A  
HETATM    4  C   UNL     1     -12.206  14.330  66.797  1.00  0.00    -0.352 A  
HETATM    5  N   UNL     1     -12.136  14.051  68.115  1.00  0.00    -0.332 NA 
HETATM    6  C   UNL     1     -11.814  12.786  68.491  1.00  0.00    -0.306 A  
HETATM    7  C   UNL     1     -11.541  11.795  67.556  1.00  0.00    -0.361 A  
HETATM    8  C   UNL     1     -11.617  12.112  66.197  1.00  0.00    -0.418 A  
BRANCH   6   9
HETATM    9  C   UNL     1     -11.727  12.510  69.981  1.00  0.00    -0.297 C  
BRANCH   9  10
HETATM   10  C   UNL     1     -12.652  11.348  70.335  1.00  0.00    -0.185 C  
BRANCH  10  11
HETATM   11  O   UNL     1     -12.374  10.745  71.605  1.00  0.00    -0.315 OA 
BRANCH  11  12
HETATM   12  C   UNL     1     -11.957   9.430  71.496  1.00  0.00    -0.382 A  
HETATM   13  C   UNL     1     -12.812   8.325  71.464  1.00  0.00    -0.312 A  
HETATM   14  C   UNL     1     -12.318   7.035  71.283  1.00  0.00    -0.426 A  
HETATM   15  C   UNL     1     -10.950   6.821  71.109  1.00  0.00    -0.298 A  
HETATM   16  C   UNL     1     -10.079   7.917  71.199  1.00  0.00    -0.210 A  
HETATM   17  C   UNL     1     -10.584   9.215  71.387  1.00  0.00    -0.412 A  
BRANCH  15  18
HETATM   18  C   UNL     1     -10.455   5.438  70.751  1.00  0.00    -0.317 C  
BRANCH  18  19
HETATM   19  C   UNL     1     -10.024   5.339  69.283  1.00  0.00    -0.215 C  
HETATM   20  S   UNL     1     -11.009   6.380  68.144  1.00  0.00    -0.264 SA 
HETATM   21  C   UNL     1      -9.593   7.049  67.388  1.00  0.00    -0.135 C  
HETATM   22  N   UNL     1      -8.491   6.745  68.111  1.00  0.00    -0.121 N  
HETATM   23  O   UNL     1      -9.606   7.670  66.340  1.00  0.00    -0.200 OA 
HETATM   24  C   UNL     1      -8.595   5.797  69.083  1.00  0.00    -0.110 C  
HETATM   25  H   UNL     1      -7.603   7.215  67.933  1.00  0.00     0.000 HD 
HETATM   26  O   UNL     1      -7.625   5.330  69.666  1.00  0.00    -0.067 OA 
ENDBRANCH  18  19
ENDBRANCH  15  18
ENDBRANCH  11  12
ENDBRANCH  10  11
ENDBRANCH   9  10
ENDBRANCH   6   9
ENDBRANCH   2   3
TORSDOF 7
ENDMDL
MODEL       84
REMARK 921   NORMALIZED FREE ENERGY PREDICTED BY IDOCK:   -4.99 KCAL/MOL
REMARK 922        TOTAL FREE ENERGY PREDICTED BY IDOCK:   -8.17 KCAL/MOL
REMARK 923 INTER-LIGAND FREE ENERGY PREDICTED BY IDOCK:   -7.44 KCAL/MOL
REMARK 924 INTRA-LIGAND FREE ENERGY PREDICTED BY IDOCK:   -0.73 KCAL/MOL
REMARK 927      BINDING AFFINITY PREDICTED BY RF-SCORE:    0.00 PKD
ROOT
HETATM    1  C   UNL     1     -11.174  12.160  63.153  1.00  0.00    -0.258 C  
HETATM    2  C   UNL     1     -10.061  11.690  64.078  1.00  0.00    -0.362 C  
ENDROOT
BRANCH   2   3
HETATM    3  C   UNL     1     -10.575  11.379  65.454  1.00  0.00    -0.333 A  
HETATM    4  C   UNL     1     -11.647  12.077  65.987  1.00  0.00    -0.305 A  
HETATM    5  N   UNL     1     -12.137  11.873  67.226  1.00  0.00    -0.522 NA 
HETATM    6  C   UNL     1     -11.558  10.921  68.002  1.00  0.00    -0.215 A  
HETATM    7  C   UNL     1     -10.472  10.178  67.554  1.00  0.00    -0.304 A  
HETATM    8  C   UNL     1      -9.980  10.413  66.267  1.00  0.00    -0.283 A  
BRANCH   6   9
HETATM    9  C   UNL     1     -12.124  10.728  69.397  1.00  0.00    -0.315 C  
BRANCH   9  10
HETATM   10  C   UNL     1     -11.609  11.839  70.310  1.00  0.00    -0.119 C  
BRANCH  10  11
HETATM   11  O   UNL     1     -12.565  12.877  70.564  1.00  0.00    -0.236 OA 
BRANCH  11  12
HETATM   12  C   UNL     1     -12.089  14.136  70.238  1.00  0.00    -0.342 A  
HETATM   13  C   UNL     1     -11.705  15.105  71.169  1.00  0.00    -0.400 A  
HETATM   14  C   UNL     1     -11.172  16.325  70.760  1.00  0.00    -0.293 A  
HETATM   15  C   UNL     1     -10.991  16.598  69.403  1.00  0.00    -0.235 A  
HETATM   16  C   UNL     1     -11.428  15.656  68.461  1.00  0.00    -0.380 A  
HETATM   17  C   UNL     1     -11.971  14.429  68.880  1.00  0.00    -0.337 A  
BRANCH  15  18
HETATM   18  C   UNL     1     -10.261  17.856  68.991  1.00  0.00    -0.274 C  
BRANCH  18  19
HETATM   19  C   UNL     1      -9.553  17.699  67.639  1.00  0.00    -0.268 C  
HETATM   20  S   UNL     1      -9.705  19.157  66.544  1.00  0.00    -0.378 SA 
HETATM   21  C   UNL     1      -7.999  19.196  66.209  1.00  0.00    -0.300 C  
HETATM   22  N   UNL     1      -7.339  18.381  67.061  1.00  0.00    -0.205 N  
HETATM   23  O   UNL     1      -7.494  19.843  65.310  1.00  0.00    -0.360 OA 
HETATM   24  C   UNL     1      -8.062  17.497  67.805  1.00  0.00    -0.221 C  
HETATM   25  H   UNL     1      -6.323  18.426  67.147  1.00  0.00     0.000 HD 
HETATM   26  O   UNL     1      -7.548  16.606  68.468  1.00  0.00    -0.189 OA 
ENDBRANCH  18  19
ENDBRANCH  15  18
ENDBRANCH  11  12
ENDBRANCH  10  11
ENDBRANCH   9  10
ENDBRANCH   6   9
ENDBRANCH   2   3
TORSDOF 7
ENDMDL
MODEL       85
REMARK 921   NORMALIZED FREE ENERGY PREDICTED BY IDOCK:   -4.98 KCAL/MOL
REMARK 922        TOTAL FREE ENERGY PREDICTED BY IDOCK:   -8.16 KCAL/MOL
REMARK 923 INTER-LIGAND FREE ENERGY PREDICTED BY IDOCK:   -7.26 KCAL/MOL
REMARK 924 INTRA-LIGAND FREE ENERGY PREDICTED BY IDOCK:   -0.90 KCAL/MOL
REMARK 927      BINDING AFFINITY PREDICTED BY RF-SCORE:    0.00 PKD
ROOT
HETATM    1  C   UNL     1      -9.185   2.586  70.011  1.00  0.00    -0.195 C  
HETATM    2  C   UNL     1      -9.512   3.646  68.970  1.00  0.00    -0.226 C  
ENDROOT
BRANCH   2   3
HETATM    3  C   UNL     1      -9.568   5.020  69.573  1.00  0.00    -0.237 A  
HETATM    4  C   UNL     1      -9.802   5.192  70.928  1.00  0.00    -0.199 A  
HETATM    5  N   UNL     1      -9.898   6.396  71.528  1.00  0.00    -0.169 NA 
HETATM    6  C   UNL     1      -9.749   7.511  70.768  1.00  0.00    -0.174 A  
HETATM    7  C   UNL     1      -9.520   7.435  69.400  1.00  0.00    -0.155 A  
HETATM    8  C   UNL     1      -9.430   6.175  68.801  1.00  0.00    -0.128 A  
BRANCH   6   9
HETATM    9  C   UNL     1      -9.879   8.849  71.473  1.00  0.00    -0.384 C  
BRANCH   9  10
HETATM   10  C   UNL     1     -11.343   9.090  71.835  1.00  0.00    -0.368 C  
BRANCH  10  11
HETATM   11  O   UNL     1     -12.197   9.309  70.705  1.00  0.00    -0.193 OA 
BRANCH  11  12
HETATM   12  C   UNL     1     -12.003  10.547  70.117  1.00  0.00    -0.316 A  
HETATM   13  C   UNL     1     -11.486  10.746  68.834  1.00  0.00    -0.362 A  
HETATM   14  C   UNL     1     -11.385  12.023  68.287  1.00  0.00    -0.342 A  
HETATM   15  C   UNL     1     -11.821  13.136  69.008  1.00  0.00    -0.358 A  
HETATM   16  C   UNL     1     -12.286  12.953  70.318  1.00  0.00    -0.362 A  
HETATM   17  C   UNL     1     -12.380  11.662  70.866  1.00  0.00    -0.436 A  
BRANCH  15  18
HETATM   18  C   UNL     1     -11.854  14.489  68.333  1.00  0.00    -0.351 C  
BRANCH  18  19
HETATM   19  C   UNL     1     -11.229  14.454  66.933  1.00  0.00    -0.334 C  
HETATM   20  S   UNL     1     -12.433  14.683  65.574  1.00  0.00    -0.046 SA 
HETATM   21  C   UNL     1     -11.460  15.897  64.796  1.00  0.00    -0.234 C  
HETATM   22  N   UNL     1     -10.471  16.302  65.625  1.00  0.00    -0.375 N  
HETATM   23  O   UNL     1     -11.637  16.288  63.657  1.00  0.00    -0.836 OA 
HETATM   24  C   UNL     1     -10.217  15.562  66.741  1.00  0.00    -0.280 C  
HETATM   25  H   UNL     1      -9.928  17.141  65.420  1.00  0.00     0.000 HD 
HETATM   26  O   UNL     1      -9.238  15.745  67.452  1.00  0.00    -0.198 OA 
ENDBRANCH  18  19
ENDBRANCH  15  18
ENDBRANCH  11  12
ENDBRANCH  10  11
ENDBRANCH   9  10
ENDBRANCH   6   9
ENDBRANCH   2   3
TORSDOF 7
ENDMDL
MODEL       86
REMARK 921   NORMALIZED FREE ENERGY PREDICTED BY IDOCK:   -4.98 KCAL/MOL
REMARK 922        TOTAL FREE ENERGY PREDICTED BY IDOCK:   -8.16 KCAL/MOL
REMARK 923 INTER-LIGAND FREE ENERGY PREDICTED BY IDOCK:   -7.20 KCAL/MOL
REMARK 924 INTRA-LIGAND FREE ENERGY PREDICTED BY IDOCK:   -0.96 KCAL/MOL
REMARK 927      BINDING AFFINITY PREDICTED BY RF-SCORE:    0.00 PKD
ROOT
HETATM    1  C   UNL     1     -10.765  17.205  68.079  1.00  0.00    -0.372 C  
HETATM    2  C   UNL     1     -11.400  15.833  68.249  1.00  0.00    -0.354 C  
ENDROOT
BRANCH   2   3
HETATM    3  C   UNL     1     -11.345  15.034  66.979  1.00  0.00    -0.319 A  
HETATM    4  C   UNL     1     -12.266  14.029  66.731  1.00  0.00    -0.404 A  
HETATM    5  N   UNL     1     -12.254  13.251  65.629  1.00  0.00    -0.439 NA 
HETATM    6  C   UNL     1     -11.289  13.466  64.697  1.00  0.00    -0.350 A  
HETATM    7  C   UNL     1     -10.318  14.445  64.866  1.00  0.00    -0.419 A  
HETATM    8  C   UNL     1     -10.351  15.234  66.019  1.00  0.00    -0.327 A  
BRANCH   6   9
HETATM    9  C   UNL     1     -11.295  12.563  63.478  1.00  0.00    -0.556 C  
BRANCH   9  10
HETATM   10  C   UNL     1     -10.784  11.178  63.871  1.00  0.00    -0.337 C  
BRANCH  10  11
HETATM   11  O   UNL     1      -9.643  11.199  64.738  1.00  0.00    -0.224 OA 
BRANCH  11  12
HETATM   12  C   UNL     1      -9.878  10.575  65.951  1.00  0.00    -0.234 A  
HETATM   13  C   UNL     1     -10.275   9.243  66.096  1.00  0.00    -0.229 A  
HETATM   14  C   UNL     1     -10.425   8.669  67.355  1.00  0.00    -0.351 A  
HETATM   15  C   UNL     1     -10.161   9.412  68.507  1.00  0.00    -0.208 A  
HETATM   16  C   UNL     1      -9.820  10.765  68.373  1.00  0.00    -0.177 A  
HETATM   17  C   UNL     1      -9.675  11.341  67.098  1.00  0.00    -0.201 A  
BRANCH  15  18
HETATM   18  C   UNL     1     -10.171   8.723  69.853  1.00  0.00    -0.206 C  
BRANCH  18  19
HETATM   19  C   UNL     1     -10.147   7.195  69.722  1.00  0.00    -0.195 C  
HETATM   20  S   UNL     1      -8.563   6.429  70.227  1.00  0.00    -0.136 SA 
HETATM   21  C   UNL     1      -9.351   5.248  71.231  1.00  0.00    -0.148 C  
HETATM   22  N   UNL     1     -10.651   5.576  71.403  1.00  0.00    -0.250 N  
HETATM   23  O   UNL     1      -8.804   4.256  71.677  1.00  0.00    -0.110 OA 
HETATM   24  C   UNL     1     -11.189   6.538  70.601  1.00  0.00    -0.329 C  
HETATM   25  H   UNL     1     -11.217   5.116  72.116  1.00  0.00     0.000 HD 
HETATM   26  O   UNL     1     -12.388   6.778  70.560  1.00  0.00    -0.326 OA 
ENDBRANCH  18  19
ENDBRANCH  15  18
ENDBRANCH  11  12
ENDBRANCH  10  11
ENDBRANCH   9  10
ENDBRANCH   6   9
ENDBRANCH   2   3
TORSDOF 7
ENDMDL
MODEL       87
REMARK 921   NORMALIZED FREE ENERGY PREDICTED BY IDOCK:   -4.98 KCAL/MOL
REMARK 922        TOTAL FREE ENERGY PREDICTED BY IDOCK:   -8.16 KCAL/MOL
REMARK 923 INTER-LIGAND FREE ENERGY PREDICTED BY IDOCK:   -7.44 KCAL/MOL
REMARK 924 INTRA-LIGAND FREE ENERGY PREDICTED BY IDOCK:   -0.72 KCAL/MOL
REMARK 927      BINDING AFFINITY PREDICTED BY RF-SCORE:    0.00 PKD
ROOT
HETATM    1  C   UNL     1     -10.513   7.285  73.428  1.00  0.00    -0.423 C  
HETATM    2  C   UNL     1      -9.375   8.105  72.838  1.00  0.00    -0.343 C  
ENDROOT
BRANCH   2   3
HETATM    3  C   UNL     1      -9.608   8.416  71.387  1.00  0.00    -0.254 A  
HETATM    4  C   UNL     1     -10.623   7.791  70.681  1.00  0.00    -0.222 A  
HETATM    5  N   UNL     1     -10.867   7.998  69.370  1.00  0.00    -0.155 NA 
HETATM    6  C   UNL     1     -10.079   8.877  68.697  1.00  0.00    -0.188 A  
HETATM    7  C   UNL     1      -9.032   9.542  69.322  1.00  0.00    -0.160 A  
HETATM    8  C   UNL     1      -8.798   9.307  70.680  1.00  0.00    -0.287 A  
BRANCH   6   9
HETATM    9  C   UNL     1     -10.370   9.073  67.221  1.00  0.00    -0.342 C  
BRANCH   9  10
HETATM   10  C   UNL     1     -10.403  10.568  66.906  1.00  0.00    -0.239 C  
BRANCH  10  11
HETATM   11  O   UNL     1     -11.448  11.284  67.576  1.00  0.00    -0.428 OA 
BRANCH  11  12
HETATM   12  C   UNL     1     -11.349  12.655  67.414  1.00  0.00    -0.313 A  
HETATM   13  C   UNL     1     -11.843  13.600  68.317  1.00  0.00    -0.404 A  
HETATM   14  C   UNL     1     -11.643  14.964  68.116  1.00  0.00    -0.356 A  
HETATM   15  C   UNL     1     -10.922  15.416  67.009  1.00  0.00    -0.306 A  
HETATM   16  C   UNL     1     -10.474  14.479  66.067  1.00  0.00    -0.315 A  
HETATM   17  C   UNL     1     -10.685  13.105  66.273  1.00  0.00    -0.295 A  
BRANCH  15  18
HETATM   18  C   UNL     1     -10.578  16.884  66.897  1.00  0.00    -0.214 C  
BRANCH  18  19
HETATM   19  C   UNL     1      -9.941  17.429  68.182  1.00  0.00    -0.308 C  
HETATM   20  S   UNL     1      -8.244  16.816  68.491  1.00  0.00    -0.251 SA 
HETATM   21  C   UNL     1      -7.627  18.414  68.796  1.00  0.00    -0.275 C  
HETATM   22  N   UNL     1      -8.534  19.343  68.418  1.00  0.00    -0.345 N  
HETATM   23  O   UNL     1      -6.547  18.643  69.309  1.00  0.00    -0.266 OA 
HETATM   24  C   UNL     1      -9.806  18.935  68.148  1.00  0.00    -0.368 C  
HETATM   25  H   UNL     1      -8.272  20.325  68.336  1.00  0.00     0.000 HD 
HETATM   26  O   UNL     1     -10.732  19.715  67.971  1.00  0.00    -0.381 OA 
ENDBRANCH  18  19
ENDBRANCH  15  18
ENDBRANCH  11  12
ENDBRANCH  10  11
ENDBRANCH   9  10
ENDBRANCH   6   9
ENDBRANCH   2   3
TORSDOF 7
ENDMDL
MODEL       88
REMARK 921   NORMALIZED FREE ENERGY PREDICTED BY IDOCK:   -4.96 KCAL/MOL
REMARK 922        TOTAL FREE ENERGY PREDICTED BY IDOCK:   -8.14 KCAL/MOL
REMARK 923 INTER-LIGAND FREE ENERGY PREDICTED BY IDOCK:   -7.14 KCAL/MOL
REMARK 924 INTRA-LIGAND FREE ENERGY PREDICTED BY IDOCK:   -1.00 KCAL/MOL
REMARK 927      BINDING AFFINITY PREDICTED BY RF-SCORE:    0.00 PKD
ROOT
HETATM    1  C   UNL     1      -6.312   9.936  67.452  1.00  0.00    -0.067 C  
HETATM    2  C   UNL     1      -6.438   8.668  68.284  1.00  0.00    -0.060 C  
ENDROOT
BRANCH   2   3
HETATM    3  C   UNL     1      -7.650   8.702  69.169  1.00  0.00    -0.089 A  
HETATM    4  C   UNL     1      -7.583   9.234  70.447  1.00  0.00    -0.127 A  
HETATM    5  N   UNL     1      -8.623   9.265  71.305  1.00  0.00    -0.313 NA 
HETATM    6  C   UNL     1      -9.813   8.754  70.898  1.00  0.00    -0.222 A  
HETATM    7  C   UNL     1      -9.971   8.191  69.638  1.00  0.00    -0.193 A  
HETATM    8  C   UNL     1      -8.877   8.167  68.769  1.00  0.00    -0.138 A  
BRANCH   6   9
HETATM    9  C   UNL     1     -10.957   8.790  71.894  1.00  0.00    -0.435 C  
BRANCH   9  10
HETATM   10  C   UNL     1     -12.158   9.491  71.261  1.00  0.00    -0.360 C  
BRANCH  10  11
HETATM   11  O   UNL     1     -12.414  10.801  71.783  1.00  0.00    -0.328 OA 
BRANCH  11  12
HETATM   12  C   UNL     1     -12.356  11.786  70.813  1.00  0.00    -0.337 A  
HETATM   13  C   UNL     1     -12.616  13.141  71.040  1.00  0.00    -0.397 A  
HETATM   14  C   UNL     1     -12.470  14.082  70.024  1.00  0.00    -0.339 A  
HETATM   15  C   UNL     1     -12.040  13.692  68.755  1.00  0.00    -0.332 A  
HETATM   16  C   UNL     1     -11.835  12.328  68.502  1.00  0.00    -0.359 A  
HETATM   17  C   UNL     1     -11.989  11.382  69.530  1.00  0.00    -0.409 A  
BRANCH  15  18
HETATM   18  C   UNL     1     -11.732  14.749  67.718  1.00  0.00    -0.368 C  
BRANCH  18  19
HETATM   19  C   UNL     1     -10.277  15.229  67.795  1.00  0.00    -0.237 C  
HETATM   20  S   UNL     1      -9.442  15.342  66.171  1.00  0.00    -0.351 SA 
HETATM   21  C   UNL     1      -8.852  16.947  66.485  1.00  0.00    -0.271 C  
HETATM   22  N   UNL     1      -9.463  17.463  67.575  1.00  0.00    -0.247 N  
HETATM   23  O   UNL     1      -7.988  17.499  65.827  1.00  0.00    -0.548 OA 
HETATM   24  C   UNL     1     -10.175  16.623  68.377  1.00  0.00    -0.284 C  
HETATM   25  H   UNL     1      -9.392  18.457  67.793  1.00  0.00     0.000 HD 
HETATM   26  O   UNL     1     -10.612  16.956  69.471  1.00  0.00    -0.327 OA 
ENDBRANCH  18  19
ENDBRANCH  15  18
ENDBRANCH  11  12
ENDBRANCH  10  11
ENDBRANCH   9  10
ENDBRANCH   6   9
ENDBRANCH   2   3
TORSDOF 7
ENDMDL
MODEL       89
REMARK 921   NORMALIZED FREE ENERGY PREDICTED BY IDOCK:   -4.96 KCAL/MOL
REMARK 922        TOTAL FREE ENERGY PREDICTED BY IDOCK:   -8.13 KCAL/MOL
REMARK 923 INTER-LIGAND FREE ENERGY PREDICTED BY IDOCK:   -7.75 KCAL/MOL
REMARK 924 INTRA-LIGAND FREE ENERGY PREDICTED BY IDOCK:   -0.38 KCAL/MOL
REMARK 927      BINDING AFFINITY PREDICTED BY RF-SCORE:    0.00 PKD
ROOT
HETATM    1  C   UNL     1     -12.864   9.603  72.028  1.00  0.00    -0.497 C  
HETATM    2  C   UNL     1     -11.445   9.429  71.508  1.00  0.00    -0.467 C  
ENDROOT
BRANCH   2   3
HETATM    3  C   UNL     1     -11.277  10.026  70.140  1.00  0.00    -0.367 A  
HETATM    4  C   UNL     1     -12.039  11.112  69.740  1.00  0.00    -0.344 A  
HETATM    5  N   UNL     1     -11.964  11.675  68.516  1.00  0.00    -0.493 NA 
HETATM    6  C   UNL     1     -11.086  11.157  67.619  1.00  0.00    -0.287 A  
HETATM    7  C   UNL     1     -10.288  10.063  67.929  1.00  0.00    -0.249 A  
HETATM    8  C   UNL     1     -10.388   9.496  69.203  1.00  0.00    -0.218 A  
BRANCH   6   9
HETATM    9  C   UNL     1     -11.039  11.804  66.248  1.00  0.00    -0.364 C  
BRANCH   9  10
HETATM   10  C   UNL     1      -9.727  12.572  66.094  1.00  0.00    -0.254 C  
BRANCH  10  11
HETATM   11  O   UNL     1      -9.355  13.332  67.251  1.00  0.00    -0.209 OA 
BRANCH  11  12
HETATM   12  C   UNL     1      -9.547  14.693  67.084  1.00  0.00    -0.233 A  
HETATM   13  C   UNL     1      -8.771  15.509  66.256  1.00  0.00    -0.283 A  
HETATM   14  C   UNL     1      -9.071  16.858  66.089  1.00  0.00    -0.265 A  
HETATM   15  C   UNL     1     -10.172  17.423  66.735  1.00  0.00    -0.318 A  
HETATM   16  C   UNL     1     -10.920  16.626  67.614  1.00  0.00    -0.193 A  
HETATM   17  C   UNL     1     -10.609  15.266  67.782  1.00  0.00    -0.266 A  
BRANCH  15  18
HETATM   18  C   UNL     1     -10.574  18.844  66.411  1.00  0.00    -0.460 C  
BRANCH  18  19
HETATM   19  C   UNL     1      -9.680  19.873  67.113  1.00  0.00    -0.393 C  
HETATM   20  S   UNL     1      -9.585  19.663  68.929  1.00  0.00    -0.288 SA 
HETATM   21  C   UNL     1      -7.848  19.755  68.939  1.00  0.00    -0.195 C  
HETATM   22  N   UNL     1      -7.370  19.659  67.678  1.00  0.00    -0.248 N  
HETATM   23  O   UNL     1      -7.178  19.917  69.943  1.00  0.00    -0.170 OA 
HETATM   24  C   UNL     1      -8.245  19.787  66.642  1.00  0.00    -0.323 C  
HETATM   25  H   UNL     1      -6.378  19.494  67.507  1.00  0.00     0.000 HD 
HETATM   26  O   UNL     1      -7.886  19.891  65.476  1.00  0.00    -0.362 OA 
ENDBRANCH  18  19
ENDBRANCH  15  18
ENDBRANCH  11  12
ENDBRANCH  10  11
ENDBRANCH   9  10
ENDBRANCH   6   9
ENDBRANCH   2   3
TORSDOF 7
ENDMDL
MODEL       90
REMARK 921   NORMALIZED FREE ENERGY PREDICTED BY IDOCK:   -4.95 KCAL/MOL
REMARK 922        TOTAL FREE ENERGY PREDICTED BY IDOCK:   -8.13 KCAL/MOL
REMARK 923 INTER-LIGAND FREE ENERGY PREDICTED BY IDOCK:   -7.46 KCAL/MOL
REMARK 924 INTRA-LIGAND FREE ENERGY PREDICTED BY IDOCK:   -0.66 KCAL/MOL
REMARK 927      BINDING AFFINITY PREDICTED BY RF-SCORE:    0.00 PKD
ROOT
HETATM    1  C   UNL     1     -10.755  17.651  68.156  1.00  0.00    -0.312 C  
HETATM    2  C   UNL     1      -9.966  16.779  69.122  1.00  0.00    -0.252 C  
ENDROOT
BRANCH   2   3
HETATM    3  C   UNL     1     -10.834  15.738  69.768  1.00  0.00    -0.314 A  
HETATM    4  C   UNL     1     -11.395  15.955  71.016  1.00  0.00    -0.389 A  
HETATM    5  N   UNL     1     -12.154  15.051  71.668  1.00  0.00    -0.325 NA 
HETATM    6  C   UNL     1     -12.397  13.857  71.067  1.00  0.00    -0.376 A  
HETATM    7  C   UNL     1     -11.867  13.548  69.820  1.00  0.00    -0.395 A  
HETATM    8  C   UNL     1     -11.079  14.501  69.168  1.00  0.00    -0.284 A  
BRANCH   6   9
HETATM    9  C   UNL     1     -13.241  12.857  71.835  1.00  0.00    -0.521 C  
BRANCH   9  10
HETATM   10  C   UNL     1     -12.992  11.455  71.284  1.00  0.00    -0.316 C  
BRANCH  10  11
HETATM   11  O   UNL     1     -13.239  10.403  72.226  1.00  0.00    -0.400 OA 
BRANCH  11  12
HETATM   12  C   UNL     1     -12.649   9.205  71.861  1.00  0.00    -0.388 A  
HETATM   13  C   UNL     1     -13.344   8.013  71.638  1.00  0.00    -0.364 A  
HETATM   14  C   UNL     1     -12.685   6.865  71.206  1.00  0.00    -0.368 A  
HETATM   15  C   UNL     1     -11.310   6.887  70.965  1.00  0.00    -0.342 A  
HETATM   16  C   UNL     1     -10.596   8.061  71.243  1.00  0.00    -0.245 A  
HETATM   17  C   UNL     1     -11.266   9.216  71.685  1.00  0.00    -0.447 A  
BRANCH  15  18
HETATM   18  C   UNL     1     -10.647   5.681  70.342  1.00  0.00    -0.364 C  
BRANCH  18  19
HETATM   19  C   UNL     1      -9.652   6.070  69.242  1.00  0.00    -0.136 C  
HETATM   20  S   UNL     1      -8.146   5.032  69.197  1.00  0.00    -0.083 SA 
HETATM   21  C   UNL     1      -8.273   4.763  67.483  1.00  0.00    -0.105 C  
HETATM   22  N   UNL     1      -9.483   5.168  67.037  1.00  0.00    -0.130 N  
HETATM   23  O   UNL     1      -7.378   4.308  66.794  1.00  0.00    -0.077 OA 
HETATM   24  C   UNL     1     -10.256   5.930  67.861  1.00  0.00    -0.184 C  
HETATM   25  H   UNL     1      -9.811   4.908  66.107  1.00  0.00     0.000 HD 
HETATM   26  O   UNL     1     -11.280   6.487  67.488  1.00  0.00    -0.343 OA 
ENDBRANCH  18  19
ENDBRANCH  15  18
ENDBRANCH  11  12
ENDBRANCH  10  11
ENDBRANCH   9  10
ENDBRANCH   6   9
ENDBRANCH   2   3
TORSDOF 7
ENDMDL
MODEL       91
REMARK 921   NORMALIZED FREE ENERGY PREDICTED BY IDOCK:   -4.95 KCAL/MOL
REMARK 922        TOTAL FREE ENERGY PREDICTED BY IDOCK:   -8.12 KCAL/MOL
REMARK 923 INTER-LIGAND FREE ENERGY PREDICTED BY IDOCK:   -8.04 KCAL/MOL
REMARK 924 INTRA-LIGAND FREE ENERGY PREDICTED BY IDOCK:   -0.07 KCAL/MOL
REMARK 927      BINDING AFFINITY PREDICTED BY RF-SCORE:    0.00 PKD
ROOT
HETATM    1  C   UNL     1      -8.257   9.629  62.741  1.00  0.00    -0.149 C  
HETATM    2  C   UNL     1      -9.494  10.450  62.408  1.00  0.00    -0.256 C  
ENDROOT
BRANCH   2   3
HETATM    3  C   UNL     1     -10.092  11.077  63.634  1.00  0.00    -0.428 A  
HETATM    4  C   UNL     1      -9.683  10.693  64.901  1.00  0.00    -0.284 A  
HETATM    5  N   UNL     1     -10.200  11.190  66.043  1.00  0.00    -0.242 NA 
HETATM    6  C   UNL     1     -11.176  12.131  65.955  1.00  0.00    -0.336 A  
HETATM    7  C   UNL     1     -11.656  12.569  64.727  1.00  0.00    -0.387 A  
HETATM    8  C   UNL     1     -11.106  12.035  63.559  1.00  0.00    -0.519 A  
BRANCH   6   9
HETATM    9  C   UNL     1     -11.747  12.656  67.259  1.00  0.00    -0.435 C  
BRANCH   9  10
HETATM   10  C   UNL     1     -11.902  11.501  68.246  1.00  0.00    -0.256 C  
BRANCH  10  11
HETATM   11  O   UNL     1     -12.062  11.914  69.610  1.00  0.00    -0.286 OA 
BRANCH  11  12
HETATM   12  C   UNL     1     -11.913  10.871  70.507  1.00  0.00    -0.371 A  
HETATM   13  C   UNL     1     -12.920  10.404  71.357  1.00  0.00    -0.545 A  
HETATM   14  C   UNL     1     -12.711   9.303  72.184  1.00  0.00    -0.465 A  
HETATM   15  C   UNL     1     -11.490   8.628  72.168  1.00  0.00    -0.443 A  
HETATM   16  C   UNL     1     -10.455   9.125  71.364  1.00  0.00    -0.414 A  
HETATM   17  C   UNL     1     -10.670  10.240  70.535  1.00  0.00    -0.212 A  
BRANCH  15  18
HETATM   18  C   UNL     1     -11.342   7.343  72.950  1.00  0.00    -0.322 C  
BRANCH  18  19
HETATM   19  C   UNL     1     -11.468   6.103  72.056  1.00  0.00    -0.313 C  
HETATM   20  S   UNL     1     -11.455   6.472  70.263  1.00  0.00    -0.397 SA 
HETATM   21  C   UNL     1     -10.257   5.256  69.930  1.00  0.00    -0.294 C  
HETATM   22  N   UNL     1      -9.706   4.817  71.084  1.00  0.00    -0.170 N  
HETATM   23  O   UNL     1      -9.990   4.847  68.815  1.00  0.00    -0.167 OA 
HETATM   24  C   UNL     1     -10.315   5.143  72.259  1.00  0.00    -0.211 C  
HETATM   25  H   UNL     1      -8.855   4.255  71.077  1.00  0.00     0.000 HD 
HETATM   26  O   UNL     1      -9.997   4.652  73.333  1.00  0.00    -0.143 OA 
ENDBRANCH  18  19
ENDBRANCH  15  18
ENDBRANCH  11  12
ENDBRANCH  10  11
ENDBRANCH   9  10
ENDBRANCH   6   9
ENDBRANCH   2   3
TORSDOF 7
ENDMDL
MODEL       92
REMARK 921   NORMALIZED FREE ENERGY PREDICTED BY IDOCK:   -4.94 KCAL/MOL
REMARK 922        TOTAL FREE ENERGY PREDICTED BY IDOCK:   -8.11 KCAL/MOL
REMARK 923 INTER-LIGAND FREE ENERGY PREDICTED BY IDOCK:   -7.17 KCAL/MOL
REMARK 924 INTRA-LIGAND FREE ENERGY PREDICTED BY IDOCK:   -0.94 KCAL/MOL
REMARK 927      BINDING AFFINITY PREDICTED BY RF-SCORE:    0.00 PKD
ROOT
HETATM    1  C   UNL     1     -12.292  14.603  64.486  1.00  0.00    -0.416 C  
HETATM    2  C   UNL     1     -12.523  13.285  65.210  1.00  0.00    -0.543 C  
ENDROOT
BRANCH   2   3
HETATM    3  C   UNL     1     -11.491  12.259  64.840  1.00  0.00    -0.382 A  
HETATM    4  C   UNL     1     -11.152  12.037  63.515  1.00  0.00    -0.443 A  
HETATM    5  N   UNL     1     -10.260  11.110  63.110  1.00  0.00    -0.334 NA 
HETATM    6  C   UNL     1      -9.646  10.349  64.053  1.00  0.00    -0.317 A  
HETATM    7  C   UNL     1      -9.930  10.495  65.405  1.00  0.00    -0.353 A  
HETATM    8  C   UNL     1     -10.862  11.460  65.797  1.00  0.00    -0.290 A  
BRANCH   6   9
HETATM    9  C   UNL     1      -8.660   9.305  63.562  1.00  0.00    -0.201 C  
BRANCH   9  10
HETATM   10  C   UNL     1      -7.802   8.829  64.732  1.00  0.00    -0.124 C  
BRANCH  10  11
HETATM   11  O   UNL     1      -8.117   7.507  65.190  1.00  0.00    -0.122 OA 
BRANCH  11  12
HETATM   12  C   UNL     1      -8.760   7.502  66.415  1.00  0.00    -0.145 A  
HETATM   13  C   UNL     1     -10.075   7.073  66.621  1.00  0.00    -0.219 A  
HETATM   14  C   UNL     1     -10.629   7.034  67.898  1.00  0.00    -0.276 A  
HETATM   15  C   UNL     1      -9.870   7.406  69.009  1.00  0.00    -0.168 A  
HETATM   16  C   UNL     1      -8.571   7.894  68.806  1.00  0.00    -0.128 A  
HETATM   17  C   UNL     1      -8.020   7.936  67.513  1.00  0.00    -0.123 A  
BRANCH  15  18
HETATM   18  C   UNL     1     -10.435   7.201  70.396  1.00  0.00    -0.234 C  
BRANCH  18  19
HETATM   19  C   UNL     1     -10.532   8.513  71.183  1.00  0.00    -0.221 C  
HETATM   20  S   UNL     1     -11.268   9.897  70.238  1.00  0.00    -0.320 SA 
HETATM   21  C   UNL     1     -12.367  10.307  71.522  1.00  0.00    -0.390 C  
HETATM   22  N   UNL     1     -12.385   9.325  72.450  1.00  0.00    -0.262 N  
HETATM   23  O   UNL     1     -12.996  11.349  71.577  1.00  0.00    -0.432 OA 
HETATM   24  C   UNL     1     -11.411   8.373  72.406  1.00  0.00    -0.380 C  
HETATM   25  H   UNL     1     -13.110   9.296  73.167  1.00  0.00     0.000 HD 
HETATM   26  O   UNL     1     -11.240   7.553  73.298  1.00  0.00    -0.346 OA 
ENDBRANCH  18  19
ENDBRANCH  15  18
ENDBRANCH  11  12
ENDBRANCH  10  11
ENDBRANCH   9  10
ENDBRANCH   6   9
ENDBRANCH   2   3
TORSDOF 7
ENDMDL
MODEL       93
REMARK 921   NORMALIZED FREE ENERGY PREDICTED BY IDOCK:   -4.93 KCAL/MOL
REMARK 922        TOTAL FREE ENERGY PREDICTED BY IDOCK:   -8.09 KCAL/MOL
REMARK 923 INTER-LIGAND FREE ENERGY PREDICTED BY IDOCK:   -6.95 KCAL/MOL
REMARK 924 INTRA-LIGAND FREE ENERGY PREDICTED BY IDOCK:   -1.15 KCAL/MOL
REMARK 927      BINDING AFFINITY PREDICTED BY RF-SCORE:    0.00 PKD
ROOT
HETATM    1  C   UNL     1      -9.425   9.908  64.716  1.00  0.00    -0.356 C  
HETATM    2  C   UNL     1     -10.372  11.089  64.874  1.00  0.00    -0.378 C  
ENDROOT
BRANCH   2   3
HETATM    3  C   UNL     1     -10.870  11.217  66.285  1.00  0.00    -0.296 A  
HETATM    4  C   UNL     1     -11.587  12.333  66.686  1.00  0.00    -0.375 A  
HETATM    5  N   UNL     1     -12.035  12.528  67.944  1.00  0.00    -0.399 NA 
HETATM    6  C   UNL     1     -11.779  11.575  68.876  1.00  0.00    -0.339 A  
HETATM    7  C   UNL     1     -11.058  10.428  68.567  1.00  0.00    -0.318 A  
HETATM    8  C   UNL     1     -10.602  10.252  67.257  1.00  0.00    -0.324 A  
BRANCH   6   9
HETATM    9  C   UNL     1     -12.282  11.834  70.284  1.00  0.00    -0.381 C  
BRANCH   9  10
HETATM   10  C   UNL     1     -13.025  10.599  70.792  1.00  0.00    -0.311 C  
BRANCH  10  11
HETATM   11  O   UNL     1     -12.517  10.077  72.026  1.00  0.00    -0.357 OA 
BRANCH  11  12
HETATM   12  C   UNL     1     -11.807   8.900  71.859  1.00  0.00    -0.370 A  
HETATM   13  C   UNL     1     -12.388   7.643  71.666  1.00  0.00    -0.354 A  
HETATM   14  C   UNL     1     -11.604   6.515  71.437  1.00  0.00    -0.371 A  
HETATM   15  C   UNL     1     -10.213   6.621  71.376  1.00  0.00    -0.220 A  
HETATM   16  C   UNL     1      -9.620   7.866  71.628  1.00  0.00    -0.206 A  
HETATM   17  C   UNL     1     -10.417   9.000  71.864  1.00  0.00    -0.373 A  
BRANCH  15  18
HETATM   18  C   UNL     1      -9.395   5.418  70.965  1.00  0.00    -0.188 C  
BRANCH  18  19
HETATM   19  C   UNL     1     -10.102   4.573  69.898  1.00  0.00    -0.125 C  
HETATM   20  S   UNL     1     -10.020   5.280  68.212  1.00  0.00    -0.145 SA 
HETATM   21  C   UNL     1      -9.503   3.776  67.510  1.00  0.00    -0.191 C  
HETATM   22  N   UNL     1      -9.144   2.907  68.481  1.00  0.00    -0.143 N  
HETATM   23  O   UNL     1      -9.502   3.544  66.314  1.00  0.00    -0.181 OA 
HETATM   24  C   UNL     1      -9.484   3.198  69.768  1.00  0.00    -0.128 C  
HETATM   25  H   UNL     1      -8.631   2.054  68.257  1.00  0.00     0.000 HD 
HETATM   26  O   UNL     1      -9.362   2.398  70.687  1.00  0.00    -0.120 OA 
ENDBRANCH  18  19
ENDBRANCH  15  18
ENDBRANCH  11  12
ENDBRANCH  10  11
ENDBRANCH   9  10
ENDBRANCH   6   9
ENDBRANCH   2   3
TORSDOF 7
ENDMDL
MODEL       94
REMARK 921   NORMALIZED FREE ENERGY PREDICTED BY IDOCK:   -4.92 KCAL/MOL
REMARK 922        TOTAL FREE ENERGY PREDICTED BY IDOCK:   -8.07 KCAL/MOL
REMARK 923 INTER-LIGAND FREE ENERGY PREDICTED BY IDOCK:   -7.37 KCAL/MOL
REMARK 924 INTRA-LIGAND FREE ENERGY PREDICTED BY IDOCK:   -0.71 KCAL/MOL
REMARK 927      BINDING AFFINITY PREDICTED BY RF-SCORE:    0.00 PKD
ROOT
HETATM    1  C   UNL     1     -12.463  16.281  74.157  1.00  0.00    -0.651 C  
HETATM    2  C   UNL     1     -13.213  15.285  73.285  1.00  0.00    -0.593 C  
ENDROOT
BRANCH   2   3
HETATM    3  C   UNL     1     -12.585  15.152  71.927  1.00  0.00    -0.417 A  
HETATM    4  C   UNL     1     -13.123  14.300  70.976  1.00  0.00    -0.328 A  
HETATM    5  N   UNL     1     -12.592  14.107  69.751  1.00  0.00    -0.216 NA 
HETATM    6  C   UNL     1     -11.468  14.791  69.419  1.00  0.00    -0.301 A  
HETATM    7  C   UNL     1     -10.853  15.660  70.312  1.00  0.00    -0.366 A  
HETATM    8  C   UNL     1     -11.421  15.839  71.577  1.00  0.00    -0.504 A  
BRANCH   6   9
HETATM    9  C   UNL     1     -10.888  14.538  68.040  1.00  0.00    -0.249 C  
BRANCH   9  10
HETATM   10  C   UNL     1     -11.436  13.221  67.494  1.00  0.00    -0.322 C  
BRANCH  10  11
HETATM   11  O   UNL     1     -10.426  12.274  67.127  1.00  0.00    -0.217 OA 
BRANCH  11  12
HETATM   12  C   UNL     1     -10.502  11.099  67.854  1.00  0.00    -0.190 A  
HETATM   13  C   UNL     1     -10.913  11.014  69.187  1.00  0.00    -0.289 A  
HETATM   14  C   UNL     1     -11.029   9.784  69.829  1.00  0.00    -0.287 A  
HETATM   15  C   UNL     1     -10.752   8.600  69.143  1.00  0.00    -0.136 A  
HETATM   16  C   UNL     1     -10.281   8.679  67.825  1.00  0.00    -0.282 A  
HETATM   17  C   UNL     1     -10.162   9.924  67.184  1.00  0.00    -0.285 A  
BRANCH  15  18
HETATM   18  C   UNL     1     -11.041   7.273  69.807  1.00  0.00    -0.203 C  
BRANCH  18  19
HETATM   19  C   UNL     1     -10.026   6.943  70.909  1.00  0.00    -0.189 C  
HETATM   20  S   UNL     1      -8.336   7.562  70.576  1.00  0.00    -0.132 SA 
HETATM   21  C   UNL     1      -8.189   8.275  72.155  1.00  0.00    -0.157 C  
HETATM   22  N   UNL     1      -9.394   8.302  72.768  1.00  0.00    -0.268 N  
HETATM   23  O   UNL     1      -7.138   8.658  72.637  1.00  0.00    -0.260 OA 
HETATM   24  C   UNL     1     -10.410   7.568  72.233  1.00  0.00    -0.218 C  
HETATM   25  H   UNL     1      -9.540   8.858  73.610  1.00  0.00     0.000 HD 
HETATM   26  O   UNL     1     -11.476   7.388  72.806  1.00  0.00    -0.310 OA 
ENDBRANCH  18  19
ENDBRANCH  15  18
ENDBRANCH  11  12
ENDBRANCH  10  11
ENDBRANCH   9  10
ENDBRANCH   6   9
ENDBRANCH   2   3
TORSDOF 7
ENDMDL
MODEL       95
REMARK 921   NORMALIZED FREE ENERGY PREDICTED BY IDOCK:   -4.91 KCAL/MOL
REMARK 922        TOTAL FREE ENERGY PREDICTED BY IDOCK:   -8.07 KCAL/MOL
REMARK 923 INTER-LIGAND FREE ENERGY PREDICTED BY IDOCK:   -7.19 KCAL/MOL
REMARK 924 INTRA-LIGAND FREE ENERGY PREDICTED BY IDOCK:   -0.88 KCAL/MOL
REMARK 927      BINDING AFFINITY PREDICTED BY RF-SCORE:    0.00 PKD
ROOT
HETATM    1  C   UNL     1     -14.244   8.609  71.952  1.00  0.00    -0.507 C  
HETATM    2  C   UNL     1     -13.349   9.822  72.155  1.00  0.00    -0.527 C  
ENDROOT
BRANCH   2   3
HETATM    3  C   UNL     1     -11.987   9.614  71.557  1.00  0.00    -0.485 A  
HETATM    4  C   UNL     1     -11.603  10.290  70.410  1.00  0.00    -0.328 A  
HETATM    5  N   UNL     1     -10.410  10.126  69.802  1.00  0.00    -0.249 NA 
HETATM    6  C   UNL     1      -9.523   9.254  70.346  1.00  0.00    -0.246 A  
HETATM    7  C   UNL     1      -9.825   8.525  71.489  1.00  0.00    -0.309 A  
HETATM    8  C   UNL     1     -11.070   8.711  72.097  1.00  0.00    -0.434 A  
BRANCH   6   9
HETATM    9  C   UNL     1      -8.197   9.081  69.628  1.00  0.00    -0.116 C  
BRANCH   9  10
HETATM   10  C   UNL     1      -7.475  10.426  69.567  1.00  0.00    -0.148 C  
BRANCH  10  11
HETATM   11  O   UNL     1      -7.091  10.824  68.245  1.00  0.00    -0.074 OA 
BRANCH  11  12
HETATM   12  C   UNL     1      -7.898  11.825  67.730  1.00  0.00    -0.135 A  
HETATM   13  C   UNL     1      -8.949  11.615  66.833  1.00  0.00    -0.191 A  
HETATM   14  C   UNL     1      -9.759  12.667  66.414  1.00  0.00    -0.259 A  
HETATM   15  C   UNL     1      -9.548  13.959  66.899  1.00  0.00    -0.271 A  
HETATM   16  C   UNL     1      -8.459  14.189  67.752  1.00  0.00    -0.178 A  
HETATM   17  C   UNL     1      -7.642  13.123  68.167  1.00  0.00    -0.141 A  
BRANCH  15  18
HETATM   18  C   UNL     1     -10.537  15.050  66.559  1.00  0.00    -0.305 C  
BRANCH  18  19
HETATM   19  C   UNL     1     -11.552  15.284  67.685  1.00  0.00    -0.239 C  
HETATM   20  S   UNL     1     -11.891  13.801  68.702  1.00  0.00    -0.381 SA 
HETATM   21  C   UNL     1     -11.666  14.664  70.196  1.00  0.00    -0.297 C  
HETATM   22  N   UNL     1     -11.106  15.871  69.956  1.00  0.00    -0.325 N  
HETATM   23  O   UNL     1     -12.003  14.241  71.287  1.00  0.00    -0.334 OA 
HETATM   24  C   UNL     1     -11.068  16.324  68.672  1.00  0.00    -0.356 C  
HETATM   25  H   UNL     1     -10.721  16.429  70.718  1.00  0.00     0.000 HD 
HETATM   26  O   UNL     1     -10.746  17.468  68.378  1.00  0.00    -0.356 OA 
ENDBRANCH  18  19
ENDBRANCH  15  18
ENDBRANCH  11  12
ENDBRANCH  10  11
ENDBRANCH   9  10
ENDBRANCH   6   9
ENDBRANCH   2   3
TORSDOF 7
ENDMDL
MODEL       96
REMARK 921   NORMALIZED FREE ENERGY PREDICTED BY IDOCK:   -4.90 KCAL/MOL
REMARK 922        TOTAL FREE ENERGY PREDICTED BY IDOCK:   -8.05 KCAL/MOL
REMARK 923 INTER-LIGAND FREE ENERGY PREDICTED BY IDOCK:   -6.79 KCAL/MOL
REMARK 924 INTRA-LIGAND FREE ENERGY PREDICTED BY IDOCK:   -1.26 KCAL/MOL
REMARK 927      BINDING AFFINITY PREDICTED BY RF-SCORE:    0.00 PKD
ROOT
HETATM    1  C   UNL     1     -12.431  14.370  64.414  1.00  0.00    -0.339 C  
HETATM    2  C   UNL     1     -12.530  13.017  65.102  1.00  0.00    -0.552 C  
ENDROOT
BRANCH   2   3
HETATM    3  C   UNL     1     -11.314  12.173  64.848  1.00  0.00    -0.378 A  
HETATM    4  C   UNL     1     -11.119  11.558  63.622  1.00  0.00    -0.385 A  
HETATM    5  N   UNL     1     -10.069  10.761  63.338  1.00  0.00    -0.325 NA 
HETATM    6  C   UNL     1      -9.136  10.551  64.303  1.00  0.00    -0.228 A  
HETATM    7  C   UNL     1      -9.254  11.120  65.565  1.00  0.00    -0.236 A  
HETATM    8  C   UNL     1     -10.355  11.938  65.835  1.00  0.00    -0.277 A  
BRANCH   6   9
HETATM    9  C   UNL     1      -7.976   9.637  63.954  1.00  0.00    -0.143 C  
BRANCH   9  10
HETATM   10  C   UNL     1      -8.273   8.227  64.463  1.00  0.00    -0.135 C  
BRANCH  10  11
HETATM   11  O   UNL     1      -7.440   7.811  65.553  1.00  0.00    -0.071 OA 
BRANCH  11  12
HETATM   12  C   UNL     1      -7.984   8.114  66.789  1.00  0.00    -0.103 A  
HETATM   13  C   UNL     1      -7.259   8.615  67.875  1.00  0.00    -0.088 A  
HETATM   14  C   UNL     1      -7.892   8.959  69.066  1.00  0.00    -0.091 A  
HETATM   15  C   UNL     1      -9.276   8.828  69.195  1.00  0.00    -0.149 A  
HETATM   16  C   UNL     1     -10.002   8.270  68.133  1.00  0.00    -0.224 A  
HETATM   17  C   UNL     1      -9.356   7.920  66.935  1.00  0.00    -0.209 A  
BRANCH  15  18
HETATM   18  C   UNL     1      -9.959   9.360  70.434  1.00  0.00    -0.306 C  
BRANCH  18  19
HETATM   19  C   UNL     1     -11.474   9.122  70.408  1.00  0.00    -0.194 C  
HETATM   20  S   UNL     1     -12.102   8.162  71.834  1.00  0.00    -0.343 SA 
HETATM   21  C   UNL     1     -13.379   9.300  72.152  1.00  0.00    -0.468 C  
HETATM   22  N   UNL     1     -13.178  10.434  71.445  1.00  0.00    -0.380 N  
HETATM   23  O   UNL     1     -14.328   9.076  72.882  1.00  0.00    -0.550 OA 
HETATM   24  C   UNL     1     -12.249  10.421  70.448  1.00  0.00    -0.303 C  
HETATM   25  H   UNL     1     -13.709  11.280  71.653  1.00  0.00     0.000 HD 
HETATM   26  O   UNL     1     -12.121  11.335  69.645  1.00  0.00    -0.315 OA 
ENDBRANCH  18  19
ENDBRANCH  15  18
ENDBRANCH  11  12
ENDBRANCH  10  11
ENDBRANCH   9  10
ENDBRANCH   6   9
ENDBRANCH   2   3
TORSDOF 7
ENDMDL
MODEL       97
REMARK 921   NORMALIZED FREE ENERGY PREDICTED BY IDOCK:   -4.90 KCAL/MOL
REMARK 922        TOTAL FREE ENERGY PREDICTED BY IDOCK:   -8.05 KCAL/MOL
REMARK 923 INTER-LIGAND FREE ENERGY PREDICTED BY IDOCK:   -7.53 KCAL/MOL
REMARK 924 INTRA-LIGAND FREE ENERGY PREDICTED BY IDOCK:   -0.51 KCAL/MOL
REMARK 927      BINDING AFFINITY PREDICTED BY RF-SCORE:    0.00 PKD
ROOT
HETATM    1  C   UNL     1      -5.143  20.993  66.557  1.00  0.00    -0.230 C  
HETATM    2  C   UNL     1      -6.320  21.313  67.467  1.00  0.00    -0.416 C  
ENDROOT
BRANCH   2   3
HETATM    3  C   UNL     1      -7.348  20.219  67.453  1.00  0.00    -0.343 A  
HETATM    4  C   UNL     1      -8.293  20.145  66.442  1.00  0.00    -0.241 A  
HETATM    5  N   UNL     1      -9.264  19.210  66.386  1.00  0.00    -0.339 NA 
HETATM    6  C   UNL     1      -9.320  18.277  67.371  1.00  0.00    -0.261 A  
HETATM    7  C   UNL     1      -8.420  18.279  68.429  1.00  0.00    -0.319 A  
HETATM    8  C   UNL     1      -7.426  19.261  68.466  1.00  0.00    -0.360 A  
BRANCH   6   9
HETATM    9  C   UNL     1     -10.435  17.250  67.286  1.00  0.00    -0.319 C  
BRANCH   9  10
HETATM   10  C   UNL     1     -10.420  16.601  65.904  1.00  0.00    -0.313 C  
BRANCH  10  11
HETATM   11  O   UNL     1      -9.447  15.558  65.757  1.00  0.00    -0.333 OA 
BRANCH  11  12
HETATM   12  C   UNL     1      -9.837  14.372  66.357  1.00  0.00    -0.295 A  
HETATM   13  C   UNL     1      -9.768  14.115  67.729  1.00  0.00    -0.223 A  
HETATM   14  C   UNL     1     -10.244  12.921  68.263  1.00  0.00    -0.245 A  
HETATM   15  C   UNL     1     -10.821  11.957  67.435  1.00  0.00    -0.289 A  
HETATM   16  C   UNL     1     -10.840  12.180  66.051  1.00  0.00    -0.318 A  
HETATM   17  C   UNL     1     -10.353  13.386  65.517  1.00  0.00    -0.302 A  
BRANCH  15  18
HETATM   18  C   UNL     1     -11.477  10.744  68.054  1.00  0.00    -0.333 C  
BRANCH  18  19
HETATM   19  C   UNL     1     -11.091  10.564  69.527  1.00  0.00    -0.268 C  
HETATM   20  S   UNL     1     -12.431  10.973  70.705  1.00  0.00    -0.400 SA 
HETATM   21  C   UNL     1     -12.223   9.492  71.594  1.00  0.00    -0.398 C  
HETATM   22  N   UNL     1     -11.429   8.643  70.904  1.00  0.00    -0.274 N  
HETATM   23  O   UNL     1     -12.704   9.281  72.692  1.00  0.00    -0.303 OA 
HETATM   24  C   UNL     1     -10.726   9.130  69.843  1.00  0.00    -0.231 C  
HETATM   25  H   UNL     1     -11.357   7.661  71.171  1.00  0.00     0.000 HD 
HETATM   26  O   UNL     1      -9.854   8.490  69.271  1.00  0.00    -0.178 OA 
ENDBRANCH  18  19
ENDBRANCH  15  18
ENDBRANCH  11  12
ENDBRANCH  10  11
ENDBRANCH   9  10
ENDBRANCH   6   9
ENDBRANCH   2   3
TORSDOF 7
ENDMDL
MODEL       98
REMARK 921   NORMALIZED FREE ENERGY PREDICTED BY IDOCK:   -4.89 KCAL/MOL
REMARK 922        TOTAL FREE ENERGY PREDICTED BY IDOCK:   -8.04 KCAL/MOL
REMARK 923 INTER-LIGAND FREE ENERGY PREDICTED BY IDOCK:   -7.41 KCAL/MOL
REMARK 924 INTRA-LIGAND FREE ENERGY PREDICTED BY IDOCK:   -0.63 KCAL/MOL
REMARK 927      BINDING AFFINITY PREDICTED BY RF-SCORE:    0.00 PKD
ROOT
HETATM    1  C   UNL     1      -9.789   3.421  73.967  1.00  0.00    -0.155 C  
HETATM    2  C   UNL     1     -10.848   4.502  73.808  1.00  0.00    -0.360 C  
ENDROOT
BRANCH   2   3
HETATM    3  C   UNL     1     -10.855   5.073  72.419  1.00  0.00    -0.234 A  
HETATM    4  C   UNL     1     -10.132   4.473  71.400  1.00  0.00    -0.160 A  
HETATM    5  N   UNL     1     -10.067   4.950  70.140  1.00  0.00    -0.260 NA 
HETATM    6  C   UNL     1     -10.755   6.082  69.842  1.00  0.00    -0.325 A  
HETATM    7  C   UNL     1     -11.499   6.757  70.802  1.00  0.00    -0.392 A  
HETATM    8  C   UNL     1     -11.547   6.243  72.101  1.00  0.00    -0.367 A  
BRANCH   6   9
HETATM    9  C   UNL     1     -10.647   6.601  68.420  1.00  0.00    -0.289 C  
BRANCH   9  10
HETATM   10  C   UNL     1     -10.073   8.016  68.440  1.00  0.00    -0.195 C  
BRANCH  10  11
HETATM   11  O   UNL     1      -9.980   8.628  67.147  1.00  0.00    -0.188 OA 
BRANCH  11  12
HETATM   12  C   UNL     1     -10.495   9.912  67.121  1.00  0.00    -0.242 A  
HETATM   13  C   UNL     1     -11.050  10.567  68.224  1.00  0.00    -0.340 A  
HETATM   14  C   UNL     1     -11.486  11.887  68.134  1.00  0.00    -0.384 A  
HETATM   15  C   UNL     1     -11.358  12.594  66.937  1.00  0.00    -0.373 A  
HETATM   16  C   UNL     1     -10.857  11.926  65.810  1.00  0.00    -0.341 A  
HETATM   17  C   UNL     1     -10.424  10.592  65.906  1.00  0.00    -0.243 A  
BRANCH  15  18
HETATM   18  C   UNL     1     -11.684  14.069  66.908  1.00  0.00    -0.435 C  
BRANCH  18  19
HETATM   19  C   UNL     1     -10.574  14.921  67.535  1.00  0.00    -0.266 C  
HETATM   20  S   UNL     1      -9.811  16.119  66.380  1.00  0.00    -0.306 SA 
HETATM   21  C   UNL     1      -9.966  17.437  67.503  1.00  0.00    -0.298 C  
HETATM   22  N   UNL     1     -10.774  17.083  68.528  1.00  0.00    -0.362 N  
HETATM   23  O   UNL     1      -9.395  18.507  67.385  1.00  0.00    -0.275 OA 
HETATM   24  C   UNL     1     -11.090  15.767  68.679  1.00  0.00    -0.327 C  
HETATM   25  H   UNL     1     -11.138  17.785  69.173  1.00  0.00     0.000 HD 
HETATM   26  O   UNL     1     -11.663  15.328  69.667  1.00  0.00    -0.292 OA 
ENDBRANCH  18  19
ENDBRANCH  15  18
ENDBRANCH  11  12
ENDBRANCH  10  11
ENDBRANCH   9  10
ENDBRANCH   6   9
ENDBRANCH   2   3
TORSDOF 7
ENDMDL
MODEL       99
REMARK 921   NORMALIZED FREE ENERGY PREDICTED BY IDOCK:   -4.89 KCAL/MOL
REMARK 922        TOTAL FREE ENERGY PREDICTED BY IDOCK:   -8.04 KCAL/MOL
REMARK 923 INTER-LIGAND FREE ENERGY PREDICTED BY IDOCK:   -6.62 KCAL/MOL
REMARK 924 INTRA-LIGAND FREE ENERGY PREDICTED BY IDOCK:   -1.42 KCAL/MOL
REMARK 927      BINDING AFFINITY PREDICTED BY RF-SCORE:    0.00 PKD
ROOT
HETATM    1  C   UNL     1     -14.069   7.517  71.677  1.00  0.00    -0.562 C  
HETATM    2  C   UNL     1     -12.915   8.389  72.149  1.00  0.00    -0.370 C  
ENDROOT
BRANCH   2   3
HETATM    3  C   UNL     1     -11.626   8.022  71.470  1.00  0.00    -0.313 A  
HETATM    4  C   UNL     1     -11.561   6.941  70.606  1.00  0.00    -0.353 A  
HETATM    5  N   UNL     1     -10.431   6.536  69.990  1.00  0.00    -0.200 NA 
HETATM    6  C   UNL     1      -9.286   7.230  70.219  1.00  0.00    -0.158 A  
HETATM    7  C   UNL     1      -9.255   8.321  71.077  1.00  0.00    -0.191 A  
HETATM    8  C   UNL     1     -10.439   8.718  71.707  1.00  0.00    -0.417 A  
BRANCH   6   9
HETATM    9  C   UNL     1      -8.031   6.738  69.523  1.00  0.00    -0.125 C  
BRANCH   9  10
HETATM   10  C   UNL     1      -7.309   7.922  68.884  1.00  0.00    -0.085 C  
BRANCH  10  11
HETATM   11  O   UNL     1      -7.830   8.306  67.605  1.00  0.00    -0.104 OA 
BRANCH  11  12
HETATM   12  C   UNL     1      -8.787   9.301  67.692  1.00  0.00    -0.119 A  
HETATM   13  C   UNL     1     -10.123   9.156  67.305  1.00  0.00    -0.295 A  
HETATM   14  C   UNL     1     -11.042  10.186  67.488  1.00  0.00    -0.251 A  
HETATM   15  C   UNL     1     -10.650  11.386  68.084  1.00  0.00    -0.220 A  
HETATM   16  C   UNL     1      -9.300  11.563  68.420  1.00  0.00    -0.194 A  
HETATM   17  C   UNL     1      -8.376  10.521  68.228  1.00  0.00    -0.122 A  
BRANCH  15  18
HETATM   18  C   UNL     1     -11.697  12.423  68.421  1.00  0.00    -0.386 C  
BRANCH  18  19
HETATM   19  C   UNL     1     -11.427  13.101  69.769  1.00  0.00    -0.145 C  
HETATM   20  S   UNL     1     -11.421  14.930  69.696  1.00  0.00    -0.312 SA 
HETATM   21  C   UNL     1     -12.488  15.078  71.062  1.00  0.00    -0.338 C  
HETATM   22  N   UNL     1     -13.029  13.876  71.361  1.00  0.00    -0.344 N  
HETATM   23  O   UNL     1     -12.681  16.116  71.669  1.00  0.00    -0.382 OA 
HETATM   24  C   UNL     1     -12.490  12.762  70.792  1.00  0.00    -0.271 C  
HETATM   25  H   UNL     1     -13.823  13.805  71.998  1.00  0.00     0.000 HD 
HETATM   26  O   UNL     1     -12.792  11.626  71.134  1.00  0.00    -0.364 OA 
ENDBRANCH  18  19
ENDBRANCH  15  18
ENDBRANCH  11  12
ENDBRANCH  10  11
ENDBRANCH   9  10
ENDBRANCH   6   9
ENDBRANCH   2   3
TORSDOF 7
ENDMDL
MODEL      100
REMARK 921   NORMALIZED FREE ENERGY PREDICTED BY IDOCK:   -4.89 KCAL/MOL
REMARK 922        TOTAL FREE ENERGY PREDICTED BY IDOCK:   -8.03 KCAL/MOL
REMARK 923 INTER-LIGAND FREE ENERGY PREDICTED BY IDOCK:   -7.17 KCAL/MOL
REMARK 924 INTRA-LIGAND FREE ENERGY PREDICTED BY IDOCK:   -0.86 KCAL/MOL
REMARK 927      BINDING AFFINITY PREDICTED BY RF-SCORE:    0.00 PKD
ROOT
HETATM    1  C   UNL     1     -12.009  15.499  70.164  1.00  0.00    -0.389 C  
HETATM    2  C   UNL     1     -10.776  15.285  69.298  1.00  0.00    -0.252 C  
ENDROOT
BRANCH   2   3
HETATM    3  C   UNL     1     -11.142  15.016  67.867  1.00  0.00    -0.310 A  
HETATM    4  C   UNL     1     -12.071  14.041  67.542  1.00  0.00    -0.326 A  
HETATM    5  N   UNL     1     -12.420  13.724  66.278  1.00  0.00    -0.424 NA 
HETATM    6  C   UNL     1     -11.837  14.404  65.257  1.00  0.00    -0.373 A  
HETATM    7  C   UNL     1     -10.887  15.392  65.487  1.00  0.00    -0.384 A  
HETATM    8  C   UNL     1     -10.540  15.697  66.806  1.00  0.00    -0.307 A  
BRANCH   6   9
HETATM    9  C   UNL     1     -12.240  14.011  63.847  1.00  0.00    -0.336 C  
BRANCH   9  10
HETATM   10  C   UNL     1     -11.766  12.587  63.563  1.00  0.00    -0.518 C  
BRANCH  10  11
HETATM   11  O   UNL     1     -10.351  12.404  63.698  1.00  0.00    -0.424 OA 
BRANCH  11  12
HETATM   12  C   UNL     1     -10.022  11.237  64.366  1.00  0.00    -0.288 A  
HETATM   13  C   UNL     1      -9.244  10.207  63.830  1.00  0.00    -0.322 A  
HETATM   14  C   UNL     1      -8.899   9.093  64.592  1.00  0.00    -0.183 A  
HETATM   15  C   UNL     1      -9.310   8.992  65.922  1.00  0.00    -0.306 A  
HETATM   16  C   UNL     1     -10.141   9.992  66.449  1.00  0.00    -0.307 A  
HETATM   17  C   UNL     1     -10.489  11.111  65.673  1.00  0.00    -0.308 A  
BRANCH  15  18
HETATM   18  C   UNL     1      -8.789   7.859  66.776  1.00  0.00    -0.154 C  
BRANCH  18  19
HETATM   19  C   UNL     1      -9.491   7.789  68.138  1.00  0.00    -0.146 C  
HETATM   20  S   UNL     1     -10.691   6.415  68.288  1.00  0.00    -0.307 SA 
HETATM   21  C   UNL     1     -10.037   5.892  69.813  1.00  0.00    -0.197 C  
HETATM   22  N   UNL     1      -8.853   6.502  70.046  1.00  0.00    -0.143 N  
HETATM   23  O   UNL     1     -10.595   5.114  70.565  1.00  0.00    -0.242 OA 
HETATM   24  C   UNL     1      -8.508   7.565  69.266  1.00  0.00    -0.136 C  
HETATM   25  H   UNL     1      -8.233   6.175  70.786  1.00  0.00     0.000 HD 
HETATM   26  O   UNL     1      -7.549   8.286  69.510  1.00  0.00    -0.090 OA 
ENDBRANCH  18  19
ENDBRANCH  15  18
ENDBRANCH  11  12
ENDBRANCH  10  11
ENDBRANCH   9  10
ENDBRANCH   6   9
ENDBRANCH   2   3
TORSDOF 7
ENDMDL
MODEL      101
REMARK 921   NORMALIZED FREE ENERGY PREDICTED BY IDOCK:   -4.88 KCAL/MOL
REMARK 922        TOTAL FREE ENERGY PREDICTED BY IDOCK:   -8.02 KCAL/MOL
REMARK 923 INTER-LIGAND FREE ENERGY PREDICTED BY IDOCK:   -7.37 KCAL/MOL
REMARK 924 INTRA-LIGAND FREE ENERGY PREDICTED BY IDOCK:   -0.65 KCAL/MOL
REMARK 927      BINDING AFFINITY PREDICTED BY RF-SCORE:    0.00 PKD
ROOT
HETATM    1  C   UNL     1     -10.206  20.022  69.428  1.00  0.00    -0.102 C  
HETATM    2  C   UNL     1      -8.979  19.371  68.807  1.00  0.00    -0.396 C  
ENDROOT
BRANCH   2   3
HETATM    3  C   UNL     1      -9.354  18.292  67.833  1.00  0.00    -0.284 A  
HETATM    4  C   UNL     1      -8.657  18.132  66.646  1.00  0.00    -0.267 A  
HETATM    5  N   UNL     1      -8.961  17.207  65.713  1.00  0.00    -0.501 NA 
HETATM    6  C   UNL     1     -10.007  16.373  65.946  1.00  0.00    -0.332 A  
HETATM    7  C   UNL     1     -10.769  16.467  67.104  1.00  0.00    -0.233 A  
HETATM    8  C   UNL     1     -10.435  17.436  68.054  1.00  0.00    -0.383 A  
BRANCH   6   9
HETATM    9  C   UNL     1     -10.332  15.356  64.868  1.00  0.00    -0.256 C  
BRANCH   9  10
HETATM   10  C   UNL     1     -11.757  15.586  64.368  1.00  0.00    -0.242 C  
BRANCH  10  11
HETATM   11  O   UNL     1     -12.448  14.386  63.999  1.00  0.00    -0.748 OA 
BRANCH  11  12
HETATM   12  C   UNL     1     -12.023  13.279  64.714  1.00  0.00    -0.388 A  
HETATM   13  C   UNL     1     -11.304  12.211  64.172  1.00  0.00    -0.449 A  
HETATM   14  C   UNL     1     -10.853  11.165  64.973  1.00  0.00    -0.244 A  
HETATM   15  C   UNL     1     -11.094  11.173  66.348  1.00  0.00    -0.204 A  
HETATM   16  C   UNL     1     -11.866  12.211  66.891  1.00  0.00    -0.295 A  
HETATM   17  C   UNL     1     -12.323  13.260  66.075  1.00  0.00    -0.449 A  
BRANCH  15  18
HETATM   18  C   UNL     1     -10.456  10.116  67.219  1.00  0.00    -0.313 C  
BRANCH  18  19
HETATM   19  C   UNL     1      -9.700  10.723  68.408  1.00  0.00    -0.174 C  
HETATM   20  S   UNL     1      -9.764   9.707  69.929  1.00  0.00    -0.243 SA 
HETATM   21  C   UNL     1      -8.045   9.809  70.176  1.00  0.00    -0.182 C  
HETATM   22  N   UNL     1      -7.445  10.307  69.072  1.00  0.00    -0.088 N  
HETATM   23  O   UNL     1      -7.484   9.504  71.213  1.00  0.00    -0.332 OA 
HETATM   24  C   UNL     1      -8.225  10.883  68.114  1.00  0.00    -0.121 C  
HETATM   25  H   UNL     1      -6.433  10.253  68.958  1.00  0.00     0.000 HD 
HETATM   26  O   UNL     1      -7.765  11.513  67.171  1.00  0.00    -0.143 OA 
ENDBRANCH  18  19
ENDBRANCH  15  18
ENDBRANCH  11  12
ENDBRANCH  10  11
ENDBRANCH   9  10
ENDBRANCH   6   9
ENDBRANCH   2   3
TORSDOF 7
ENDMDL
MODEL      102
REMARK 921   NORMALIZED FREE ENERGY PREDICTED BY IDOCK:   -4.88 KCAL/MOL
REMARK 922        TOTAL FREE ENERGY PREDICTED BY IDOCK:   -8.02 KCAL/MOL
REMARK 923 INTER-LIGAND FREE ENERGY PREDICTED BY IDOCK:   -7.28 KCAL/MOL
REMARK 924 INTRA-LIGAND FREE ENERGY PREDICTED BY IDOCK:   -0.74 KCAL/MOL
REMARK 927      BINDING AFFINITY PREDICTED BY RF-SCORE:    0.00 PKD
ROOT
HETATM    1  C   UNL     1      -7.398   8.992  65.191  1.00  0.00    -0.096 C  
HETATM    2  C   UNL     1      -8.019   9.940  64.176  1.00  0.00    -0.150 C  
ENDROOT
BRANCH   2   3
HETATM    3  C   UNL     1      -8.946  10.925  64.829  1.00  0.00    -0.155 A  
HETATM    4  C   UNL     1      -8.642  11.476  66.064  1.00  0.00    -0.046 A  
HETATM    5  N   UNL     1      -9.444  12.339  66.721  1.00  0.00    -0.216 NA 
HETATM    6  C   UNL     1     -10.618  12.701  66.141  1.00  0.00    -0.258 A  
HETATM    7  C   UNL     1     -11.009  12.191  64.910  1.00  0.00    -0.355 A  
HETATM    8  C   UNL     1     -10.162  11.295  64.251  1.00  0.00    -0.383 A  
BRANCH   6   9
HETATM    9  C   UNL     1     -11.503  13.660  66.915  1.00  0.00    -0.369 C  
BRANCH   9  10
HETATM   10  C   UNL     1     -11.900  13.021  68.245  1.00  0.00    -0.343 C  
BRANCH  10  11
HETATM   11  O   UNL     1     -12.191  11.620  68.157  1.00  0.00    -0.537 OA 
BRANCH  11  12
HETATM   12  C   UNL     1     -11.792  10.917  69.281  1.00  0.00    -0.324 A  
HETATM   13  C   UNL     1     -12.469  10.923  70.504  1.00  0.00    -0.438 A  
HETATM   14  C   UNL     1     -12.040  10.133  71.568  1.00  0.00    -0.442 A  
HETATM   15  C   UNL     1     -10.929   9.300  71.428  1.00  0.00    -0.429 A  
HETATM   16  C   UNL     1     -10.209   9.333  70.225  1.00  0.00    -0.270 A  
HETATM   17  C   UNL     1     -10.643  10.136  69.156  1.00  0.00    -0.247 A  
BRANCH  15  18
HETATM   18  C   UNL     1     -10.581   8.334  72.537  1.00  0.00    -0.407 C  
BRANCH  18  19
HETATM   19  C   UNL     1     -10.647   6.873  72.075  1.00  0.00    -0.212 C  
HETATM   20  S   UNL     1      -9.661   5.722  73.101  1.00  0.00    -0.147 SA 
HETATM   21  C   UNL     1     -10.977   4.597  73.264  1.00  0.00    -0.303 C  
HETATM   22  N   UNL     1     -12.129   5.164  72.839  1.00  0.00    -0.370 N  
HETATM   23  O   UNL     1     -10.855   3.456  73.671  1.00  0.00    -0.197 OA 
HETATM   24  C   UNL     1     -12.057   6.327  72.133  1.00  0.00    -0.252 C  
HETATM   25  H   UNL     1     -13.030   4.732  73.043  1.00  0.00     0.000 HD 
HETATM   26  O   UNL     1     -13.020   6.820  71.560  1.00  0.00    -0.331 OA 
ENDBRANCH  18  19
ENDBRANCH  15  18
ENDBRANCH  11  12
ENDBRANCH  10  11
ENDBRANCH   9  10
ENDBRANCH   6   9
ENDBRANCH   2   3
TORSDOF 7
ENDMDL
MODEL      103
REMARK 921   NORMALIZED FREE ENERGY PREDICTED BY IDOCK:   -4.88 KCAL/MOL
REMARK 922        TOTAL FREE ENERGY PREDICTED BY IDOCK:   -8.02 KCAL/MOL
REMARK 923 INTER-LIGAND FREE ENERGY PREDICTED BY IDOCK:   -7.29 KCAL/MOL
REMARK 924 INTRA-LIGAND FREE ENERGY PREDICTED BY IDOCK:   -0.73 KCAL/MOL
REMARK 927      BINDING AFFINITY PREDICTED BY RF-SCORE:    0.00 PKD
ROOT
HETATM    1  C   UNL     1     -10.366  19.417  69.443  1.00  0.00     0.143 C  
HETATM    2  C   UNL     1      -9.828  19.658  68.041  1.00  0.00    -0.524 C  
ENDROOT
BRANCH   2   3
HETATM    3  C   UNL     1     -10.133  18.510  67.122  1.00  0.00    -0.378 A  
HETATM    4  C   UNL     1     -10.590  18.734  65.833  1.00  0.00    -0.352 A  
HETATM    5  N   UNL     1     -10.915  17.751  64.969  1.00  0.00    -0.696 NA 
HETATM    6  C   UNL     1     -10.781  16.462  65.375  1.00  0.00    -0.296 A  
HETATM    7  C   UNL     1     -10.340  16.143  66.653  1.00  0.00    -0.297 A  
HETATM    8  C   UNL     1     -10.014  17.181  67.531  1.00  0.00    -0.279 A  
BRANCH   6   9
HETATM    9  C   UNL     1     -11.171  15.382  64.383  1.00  0.00    -0.215 C  
BRANCH   9  10
HETATM   10  C   UNL     1     -12.428  14.670  64.878  1.00  0.00    -0.257 C  
BRANCH  10  11
HETATM   11  O   UNL     1     -12.663  13.398  64.258  1.00  0.00    -0.644 OA 
BRANCH  11  12
HETATM   12  C   UNL     1     -11.763  12.429  64.664  1.00  0.00    -0.365 A  
HETATM   13  C   UNL     1     -11.512  12.084  65.995  1.00  0.00    -0.399 A  
HETATM   14  C   UNL     1     -10.640  11.048  66.320  1.00  0.00    -0.295 A  
HETATM   15  C   UNL     1     -10.009  10.314  65.313  1.00  0.00    -0.387 A  
HETATM   16  C   UNL     1     -10.208  10.692  63.978  1.00  0.00    -0.334 A  
HETATM   17  C   UNL     1     -11.085  11.742  63.657  1.00  0.00    -0.518 A  
BRANCH  15  18
HETATM   18  C   UNL     1      -9.198   9.093  65.683  1.00  0.00    -0.296 C  
BRANCH  18  19
HETATM   19  C   UNL     1      -9.178   8.847  67.197  1.00  0.00    -0.139 C  
HETATM   20  S   UNL     1     -10.458   7.675  67.778  1.00  0.00    -0.198 SA 
HETATM   21  C   UNL     1      -9.316   6.748  68.706  1.00  0.00    -0.132 C  
HETATM   22  N   UNL     1      -8.053   7.105  68.380  1.00  0.00    -0.123 N  
HETATM   23  O   UNL     1      -9.627   5.925  69.548  1.00  0.00    -0.135 OA 
HETATM   24  C   UNL     1      -7.868   8.242  67.652  1.00  0.00    -0.106 C  
HETATM   25  H   UNL     1      -7.258   6.537  68.672  1.00  0.00     0.000 HD 
HETATM   26  O   UNL     1      -6.766   8.738  67.460  1.00  0.00    -0.065 OA 
ENDBRANCH  18  19
ENDBRANCH  15  18
ENDBRANCH  11  12
ENDBRANCH  10  11
ENDBRANCH   9  10
ENDBRANCH   6   9
ENDBRANCH   2   3
TORSDOF 7
ENDMDL
MODEL      104
REMARK 921   NORMALIZED FREE ENERGY PREDICTED BY IDOCK:   -4.87 KCAL/MOL
REMARK 922        TOTAL FREE ENERGY PREDICTED BY IDOCK:   -8.01 KCAL/MOL
REMARK 923 INTER-LIGAND FREE ENERGY PREDICTED BY IDOCK:   -7.59 KCAL/MOL
REMARK 924 INTRA-LIGAND FREE ENERGY PREDICTED BY IDOCK:   -0.42 KCAL/MOL
REMARK 927      BINDING AFFINITY PREDICTED BY RF-SCORE:    0.00 PKD
ROOT
HETATM    1  C   UNL     1     -10.113  19.313  66.717  1.00  0.00    -0.480 C  
HETATM    2  C   UNL     1     -10.205  17.863  66.268  1.00  0.00    -0.363 C  
ENDROOT
BRANCH   2   3
HETATM    3  C   UNL     1     -10.614  16.957  67.394  1.00  0.00    -0.294 A  
HETATM    4  C   UNL     1     -10.470  17.354  68.714  1.00  0.00    -0.333 A  
HETATM    5  N   UNL     1     -10.784  16.579  69.772  1.00  0.00    -0.326 NA 
HETATM    6  C   UNL     1     -11.281  15.337  69.539  1.00  0.00    -0.281 A  
HETATM    7  C   UNL     1     -11.450  14.851  68.249  1.00  0.00    -0.343 A  
HETATM    8  C   UNL     1     -11.113  15.672  67.169  1.00  0.00    -0.218 A  
BRANCH   6   9
HETATM    9  C   UNL     1     -11.609  14.486  70.752  1.00  0.00    -0.260 C  
BRANCH   9  10
HETATM   10  C   UNL     1     -12.513  13.330  70.330  1.00  0.00    -0.185 C  
BRANCH  10  11
HETATM   11  O   UNL     1     -12.793  12.393  71.378  1.00  0.00    -0.367 OA 
BRANCH  11  12
HETATM   12  C   UNL     1     -12.388  11.106  71.071  1.00  0.00    -0.382 A  
HETATM   13  C   UNL     1     -11.572  10.767  69.988  1.00  0.00    -0.417 A  
HETATM   14  C   UNL     1     -11.151   9.455  69.785  1.00  0.00    -0.193 A  
HETATM   15  C   UNL     1     -11.523   8.448  70.677  1.00  0.00    -0.235 A  
HETATM   16  C   UNL     1     -12.390   8.768  71.732  1.00  0.00    -0.412 A  
HETATM   17  C   UNL     1     -12.815  10.093  71.928  1.00  0.00    -0.526 A  
BRANCH  15  18
HETATM   18  C   UNL     1     -10.923   7.069  70.530  1.00  0.00    -0.297 C  
BRANCH  18  19
HETATM   19  C   UNL     1      -9.741   6.847  71.482  1.00  0.00    -0.162 C  
HETATM   20  S   UNL     1      -8.725   8.342  71.770  1.00  0.00    -0.181 SA 
HETATM   21  C   UNL     1      -8.753   8.137  73.497  1.00  0.00    -0.249 C  
HETATM   22  N   UNL     1      -9.674   7.210  73.841  1.00  0.00    -0.276 N  
HETATM   23  O   UNL     1      -8.018   8.728  74.267  1.00  0.00    -0.378 OA 
HETATM   24  C   UNL     1     -10.199   6.422  72.860  1.00  0.00    -0.191 C  
HETATM   25  H   UNL     1      -9.971   7.101  74.811  1.00  0.00     0.000 HD 
HETATM   26  O   UNL     1     -10.900   5.446  73.092  1.00  0.00    -0.239 OA 
ENDBRANCH  18  19
ENDBRANCH  15  18
ENDBRANCH  11  12
ENDBRANCH  10  11
ENDBRANCH   9  10
ENDBRANCH   6   9
ENDBRANCH   2   3
TORSDOF 7
ENDMDL
MODEL      105
REMARK 921   NORMALIZED FREE ENERGY PREDICTED BY IDOCK:   -4.85 KCAL/MOL
REMARK 922        TOTAL FREE ENERGY PREDICTED BY IDOCK:   -7.98 KCAL/MOL
REMARK 923 INTER-LIGAND FREE ENERGY PREDICTED BY IDOCK:   -7.47 KCAL/MOL
REMARK 924 INTRA-LIGAND FREE ENERGY PREDICTED BY IDOCK:   -0.51 KCAL/MOL
REMARK 927      BINDING AFFINITY PREDICTED BY RF-SCORE:    0.00 PKD
ROOT
HETATM    1  C   UNL     1      -9.930  19.270  67.451  1.00  0.00    -0.462 C  
HETATM    2  C   UNL     1      -9.106  17.995  67.554  1.00  0.00    -0.253 C  
ENDROOT
BRANCH   2   3
HETATM    3  C   UNL     1      -9.846  16.809  67.007  1.00  0.00    -0.262 A  
HETATM    4  C   UNL     1      -9.769  16.481  65.662  1.00  0.00    -0.089 A  
HETATM    5  N   UNL     1     -10.433  15.451  65.099  1.00  0.00    -0.410 NA 
HETATM    6  C   UNL     1     -11.220  14.678  65.891  1.00  0.00    -0.336 A  
HETATM    7  C   UNL     1     -11.365  14.938  67.248  1.00  0.00    -0.355 A  
HETATM    8  C   UNL     1     -10.669  16.014  67.807  1.00  0.00    -0.323 A  
BRANCH   6   9
HETATM    9  C   UNL     1     -11.965  13.539  65.222  1.00  0.00    -0.397 C  
BRANCH   9  10
HETATM   10  C   UNL     1     -11.997  12.334  66.161  1.00  0.00    -0.249 C  
BRANCH  10  11
HETATM   11  O   UNL     1     -10.873  11.455  66.024  1.00  0.00    -0.279 OA 
BRANCH  11  12
HETATM   12  C   UNL     1     -10.587  10.763  67.188  1.00  0.00    -0.256 A  
HETATM   13  C   UNL     1      -9.821   9.596  67.250  1.00  0.00    -0.225 A  
HETATM   14  C   UNL     1      -9.520   8.996  68.470  1.00  0.00    -0.148 A  
HETATM   15  C   UNL     1      -9.965   9.563  69.666  1.00  0.00    -0.220 A  
HETATM   16  C   UNL     1     -10.784  10.699  69.609  1.00  0.00    -0.290 A  
HETATM   17  C   UNL     1     -11.089  11.297  68.374  1.00  0.00    -0.296 A  
BRANCH  15  18
HETATM   18  C   UNL     1      -9.491   8.988  70.981  1.00  0.00    -0.342 C  
BRANCH  18  19
HETATM   19  C   UNL     1     -10.548   8.092  71.637  1.00  0.00    -0.227 C  
HETATM   20  S   UNL     1     -12.105   8.958  72.056  1.00  0.00    -0.367 SA 
HETATM   21  C   UNL     1     -13.091   7.734  71.314  1.00  0.00    -0.206 C  
HETATM   22  N   UNL     1     -12.324   6.906  70.570  1.00  0.00    -0.601 N  
HETATM   23  O   UNL     1     -14.294   7.631  71.479  1.00  0.00    -0.433 OA 
HETATM   24  C   UNL     1     -10.972   6.961  70.725  1.00  0.00    -0.259 C  
HETATM   25  H   UNL     1     -12.747   6.255  69.908  1.00  0.00     0.000 HD 
HETATM   26  O   UNL     1     -10.210   6.139  70.232  1.00  0.00    -0.184 OA 
ENDBRANCH  18  19
ENDBRANCH  15  18
ENDBRANCH  11  12
ENDBRANCH  10  11
ENDBRANCH   9  10
ENDBRANCH   6   9
ENDBRANCH   2   3
TORSDOF 7
ENDMDL
MODEL      106
REMARK 921   NORMALIZED FREE ENERGY PREDICTED BY IDOCK:   -4.85 KCAL/MOL
REMARK 922        TOTAL FREE ENERGY PREDICTED BY IDOCK:   -7.98 KCAL/MOL
REMARK 923 INTER-LIGAND FREE ENERGY PREDICTED BY IDOCK:   -7.31 KCAL/MOL
REMARK 924 INTRA-LIGAND FREE ENERGY PREDICTED BY IDOCK:   -0.67 KCAL/MOL
REMARK 927      BINDING AFFINITY PREDICTED BY RF-SCORE:    0.00 PKD
ROOT
HETATM    1  C   UNL     1     -14.141   8.833  72.307  1.00  0.00    -0.511 C  
HETATM    2  C   UNL     1     -13.228  10.022  72.047  1.00  0.00    -0.545 C  
ENDROOT
BRANCH   2   3
HETATM    3  C   UNL     1     -12.211   9.720  70.985  1.00  0.00    -0.436 A  
HETATM    4  C   UNL     1     -11.909  10.652  70.005  1.00  0.00    -0.322 A  
HETATM    5  N   UNL     1     -11.032  10.434  69.003  1.00  0.00    -0.225 NA 
HETATM    6  C   UNL     1     -10.396   9.236  68.950  1.00  0.00    -0.214 A  
HETATM    7  C   UNL     1     -10.642   8.238  69.885  1.00  0.00    -0.232 A  
HETATM    8  C   UNL     1     -11.559   8.487  70.910  1.00  0.00    -0.295 A  
BRANCH   6   9
HETATM    9  C   UNL     1      -9.428   9.018  67.801  1.00  0.00    -0.162 C  
BRANCH   9  10
HETATM   10  C   UNL     1     -10.201   9.003  66.484  1.00  0.00    -0.248 C  
BRANCH  10  11
HETATM   11  O   UNL     1      -9.699   9.916  65.500  1.00  0.00    -0.263 OA 
BRANCH  11  12
HETATM   12  C   UNL     1      -9.828  11.241  65.882  1.00  0.00    -0.232 A  
HETATM   13  C   UNL     1      -8.873  11.954  66.611  1.00  0.00    -0.191 A  
HETATM   14  C   UNL     1      -9.046  13.306  66.897  1.00  0.00    -0.235 A  
HETATM   15  C   UNL     1     -10.177  13.985  66.441  1.00  0.00    -0.293 A  
HETATM   16  C   UNL     1     -11.169  13.264  65.761  1.00  0.00    -0.313 A  
HETATM   17  C   UNL     1     -10.990  11.898  65.480  1.00  0.00    -0.347 A  
BRANCH  15  18
HETATM   18  C   UNL     1     -10.266  15.484  66.622  1.00  0.00    -0.280 C  
BRANCH  18  19
HETATM   19  C   UNL     1     -10.924  15.869  67.952  1.00  0.00    -0.327 C  
HETATM   20  S   UNL     1     -12.080  14.609  68.605  1.00  0.00    -0.134 SA 
HETATM   21  C   UNL     1     -11.367  14.647  70.191  1.00  0.00    -0.225 C  
HETATM   22  N   UNL     1     -10.194  15.319  70.158  1.00  0.00    -0.491 N  
HETATM   23  O   UNL     1     -11.880  14.162  71.183  1.00  0.00    -0.298 OA 
HETATM   24  C   UNL     1      -9.902  16.060  69.052  1.00  0.00    -0.239 C  
HETATM   25  H   UNL     1      -9.543  15.274  70.942  1.00  0.00     0.000 HD 
HETATM   26  O   UNL     1      -8.958  16.837  69.000  1.00  0.00    -0.257 OA 
ENDBRANCH  18  19
ENDBRANCH  15  18
ENDBRANCH  11  12
ENDBRANCH  10  11
ENDBRANCH   9  10
ENDBRANCH   6   9
ENDBRANCH   2   3
TORSDOF 7
ENDMDL
MODEL      107
REMARK 921   NORMALIZED FREE ENERGY PREDICTED BY IDOCK:   -4.85 KCAL/MOL
REMARK 922        TOTAL FREE ENERGY PREDICTED BY IDOCK:   -7.98 KCAL/MOL
REMARK 923 INTER-LIGAND FREE ENERGY PREDICTED BY IDOCK:   -7.20 KCAL/MOL
REMARK 924 INTRA-LIGAND FREE ENERGY PREDICTED BY IDOCK:   -0.78 KCAL/MOL
REMARK 927      BINDING AFFINITY PREDICTED BY RF-SCORE:    0.00 PKD
ROOT
HETATM    1  C   UNL     1      -9.510   7.752  67.074  1.00  0.00    -0.210 C  
HETATM    2  C   UNL     1      -9.455   7.567  68.584  1.00  0.00    -0.146 C  
ENDROOT
BRANCH   2   3
HETATM    3  C   UNL     1     -10.410   8.485  69.292  1.00  0.00    -0.227 A  
HETATM    4  C   UNL     1     -10.644   9.767  68.821  1.00  0.00    -0.219 A  
HETATM    5  N   UNL     1     -11.462  10.653  69.426  1.00  0.00    -0.269 NA 
HETATM    6  C   UNL     1     -12.104  10.271  70.559  1.00  0.00    -0.310 A  
HETATM    7  C   UNL     1     -11.923   9.008  71.109  1.00  0.00    -0.356 A  
HETATM    8  C   UNL     1     -11.067   8.110  70.466  1.00  0.00    -0.257 A  
BRANCH   6   9
HETATM    9  C   UNL     1     -13.003  11.298  71.222  1.00  0.00    -0.427 C  
BRANCH   9  10
HETATM   10  C   UNL     1     -12.293  12.650  71.250  1.00  0.00    -0.053 C  
BRANCH  10  11
HETATM   11  O   UNL     1     -13.094  13.741  70.778  1.00  0.00    -0.224 OA 
BRANCH  11  12
HETATM   12  C   UNL     1     -12.390  14.612  69.964  1.00  0.00    -0.315 A  
HETATM   13  C   UNL     1     -11.877  15.845  70.375  1.00  0.00    -0.358 A  
HETATM   14  C   UNL     1     -11.119  16.634  69.513  1.00  0.00    -0.158 A  
HETATM   15  C   UNL     1     -10.838  16.196  68.218  1.00  0.00    -0.326 A  
HETATM   16  C   UNL     1     -11.398  14.988  67.778  1.00  0.00    -0.340 A  
HETATM   17  C   UNL     1     -12.166  14.199  68.651  1.00  0.00    -0.216 A  
BRANCH  15  18
HETATM   18  C   UNL     1      -9.880  16.990  67.359  1.00  0.00    -0.262 C  
BRANCH  18  19
HETATM   19  C   UNL     1      -9.499  18.329  68.001  1.00  0.00    -0.290 C  
HETATM   20  S   UNL     1      -7.695  18.589  68.167  1.00  0.00    -0.293 SA 
HETATM   21  C   UNL     1      -7.769  20.180  67.469  1.00  0.00    -0.307 C  
HETATM   22  N   UNL     1      -8.978  20.383  66.899  1.00  0.00    -0.518 N  
HETATM   23  O   UNL     1      -6.865  20.994  67.525  1.00  0.00    -0.349 OA 
HETATM   24  C   UNL     1      -9.982  19.505  67.180  1.00  0.00    -0.373 C  
HETATM   25  H   UNL     1      -9.136  21.173  66.274  1.00  0.00     0.000 HD 
HETATM   26  O   UNL     1     -11.147  19.699  66.858  1.00  0.00    -0.396 OA 
ENDBRANCH  18  19
ENDBRANCH  15  18
ENDBRANCH  11  12
ENDBRANCH  10  11
ENDBRANCH   9  10
ENDBRANCH   6   9
ENDBRANCH   2   3
TORSDOF 7
ENDMDL
MODEL      108
REMARK 921   NORMALIZED FREE ENERGY PREDICTED BY IDOCK:   -4.83 KCAL/MOL
REMARK 922        TOTAL FREE ENERGY PREDICTED BY IDOCK:   -7.94 KCAL/MOL
REMARK 923 INTER-LIGAND FREE ENERGY PREDICTED BY IDOCK:   -6.92 KCAL/MOL
REMARK 924 INTRA-LIGAND FREE ENERGY PREDICTED BY IDOCK:   -1.03 KCAL/MOL
REMARK 927      BINDING AFFINITY PREDICTED BY RF-SCORE:    0.00 PKD
ROOT
HETATM    1  C   UNL     1     -11.066  16.137  68.789  1.00  0.00    -0.354 C  
HETATM    2  C   UNL     1     -11.956  14.932  68.524  1.00  0.00    -0.275 C  
ENDROOT
BRANCH   2   3
HETATM    3  C   UNL     1     -11.651  14.297  67.197  1.00  0.00    -0.402 A  
HETATM    4  C   UNL     1     -12.238  13.096  66.832  1.00  0.00    -0.222 A  
HETATM    5  N   UNL     1     -11.984  12.455  65.673  1.00  0.00    -0.530 NA 
HETATM    6  C   UNL     1     -11.109  13.019  64.801  1.00  0.00    -0.322 A  
HETATM    7  C   UNL     1     -10.466  14.217  65.087  1.00  0.00    -0.422 A  
HETATM    8  C   UNL     1     -10.743  14.859  66.297  1.00  0.00    -0.320 A  
BRANCH   6   9
HETATM    9  C   UNL     1     -10.834  12.264  63.514  1.00  0.00    -0.508 C  
BRANCH   9  10
HETATM   10  C   UNL     1     -10.332  10.861  63.848  1.00  0.00    -0.329 C  
BRANCH  10  11
HETATM   11  O   UNL     1      -8.995  10.825  64.363  1.00  0.00    -0.191 OA 
BRANCH  11  12
HETATM   12  C   UNL     1      -8.874  10.027  65.488  1.00  0.00    -0.165 A  
HETATM   13  C   UNL     1      -7.701   9.875  66.232  1.00  0.00    -0.105 A  
HETATM   14  C   UNL     1      -7.678   9.107  67.394  1.00  0.00    -0.092 A  
HETATM   15  C   UNL     1      -8.841   8.485  67.852  1.00  0.00    -0.137 A  
HETATM   16  C   UNL     1     -10.007   8.583  67.080  1.00  0.00    -0.304 A  
HETATM   17  C   UNL     1     -10.022   9.355  65.906  1.00  0.00    -0.327 A  
BRANCH  15  18
HETATM   18  C   UNL     1      -8.831   7.794  69.197  1.00  0.00    -0.138 C  
BRANCH  18  19
HETATM   19  C   UNL     1      -9.618   8.577  70.255  1.00  0.00    -0.167 C  
HETATM   20  S   UNL     1     -11.214   7.809  70.717  1.00  0.00    -0.270 SA 
HETATM   21  C   UNL     1     -10.889   7.946  72.420  1.00  0.00    -0.317 C  
HETATM   22  N   UNL     1      -9.592   8.266  72.622  1.00  0.00    -0.276 N  
HETATM   23  O   UNL     1     -11.730   7.804  73.290  1.00  0.00    -0.188 OA 
HETATM   24  C   UNL     1      -8.854   8.688  71.557  1.00  0.00    -0.219 C  
HETATM   25  H   UNL     1      -9.174   8.194  73.550  1.00  0.00     0.000 HD 
HETATM   26  O   UNL     1      -7.732   9.164  71.669  1.00  0.00    -0.338 OA 
ENDBRANCH  18  19
ENDBRANCH  15  18
ENDBRANCH  11  12
ENDBRANCH  10  11
ENDBRANCH   9  10
ENDBRANCH   6   9
ENDBRANCH   2   3
TORSDOF 7
ENDMDL
MODEL      109
REMARK 921   NORMALIZED FREE ENERGY PREDICTED BY IDOCK:   -4.82 KCAL/MOL
REMARK 922        TOTAL FREE ENERGY PREDICTED BY IDOCK:   -7.94 KCAL/MOL
REMARK 923 INTER-LIGAND FREE ENERGY PREDICTED BY IDOCK:   -6.93 KCAL/MOL
REMARK 924 INTRA-LIGAND FREE ENERGY PREDICTED BY IDOCK:   -1.01 KCAL/MOL
REMARK 927      BINDING AFFINITY PREDICTED BY RF-SCORE:    0.00 PKD
ROOT
HETATM    1  C   UNL     1     -12.127  13.696  66.628  1.00  0.00    -0.459 C  
HETATM    2  C   UNL     1     -12.468  13.121  65.261  1.00  0.00    -0.550 C  
ENDROOT
BRANCH   2   3
HETATM    3  C   UNL     1     -11.433  12.135  64.799  1.00  0.00    -0.377 A  
HETATM    4  C   UNL     1     -10.852  11.245  65.688  1.00  0.00    -0.177 A  
HETATM    5  N   UNL     1      -9.894  10.358  65.348  1.00  0.00    -0.263 NA 
HETATM    6  C   UNL     1      -9.476  10.322  64.056  1.00  0.00    -0.300 A  
HETATM    7  C   UNL     1      -9.996  11.183  63.098  1.00  0.00    -0.393 A  
HETATM    8  C   UNL     1     -10.984  12.096  63.478  1.00  0.00    -0.521 A  
BRANCH   6   9
HETATM    9  C   UNL     1      -8.387   9.324  63.712  1.00  0.00    -0.180 C  
BRANCH   9  10
HETATM   10  C   UNL     1      -7.676   8.888  64.992  1.00  0.00    -0.103 C  
BRANCH  10  11
HETATM   11  O   UNL     1      -7.872   7.509  65.329  1.00  0.00    -0.104 OA 
BRANCH  11  12
HETATM   12  C   UNL     1      -8.377   7.335  66.606  1.00  0.00    -0.121 A  
HETATM   13  C   UNL     1      -7.627   7.444  67.780  1.00  0.00    -0.107 A  
HETATM   14  C   UNL     1      -8.224   7.322  69.032  1.00  0.00    -0.125 A  
HETATM   15  C   UNL     1      -9.599   7.106  69.140  1.00  0.00    -0.154 A  
HETATM   16  C   UNL     1     -10.350   6.937  67.968  1.00  0.00    -0.230 A  
HETATM   17  C   UNL     1      -9.740   7.055  66.708  1.00  0.00    -0.241 A  
BRANCH  15  18
HETATM   18  C   UNL     1     -10.250   7.141  70.504  1.00  0.00    -0.206 C  
BRANCH  18  19
HETATM   19  C   UNL     1     -11.621   7.828  70.475  1.00  0.00    -0.158 C  
HETATM   20  S   UNL     1     -12.816   7.157  71.688  1.00  0.00    -0.347 SA 
HETATM   21  C   UNL     1     -13.244   8.738  72.275  1.00  0.00    -0.412 C  
HETATM   22  N   UNL     1     -12.368   9.658  71.814  1.00  0.00    -0.387 N  
HETATM   23  O   UNL     1     -14.216   8.968  72.971  1.00  0.00    -0.444 OA 
HETATM   24  C   UNL     1     -11.521   9.300  70.809  1.00  0.00    -0.292 C  
HETATM   25  H   UNL     1     -12.341  10.598  72.209  1.00  0.00     0.000 HD 
HETATM   26  O   UNL     1     -10.820  10.105  70.210  1.00  0.00    -0.282 OA 
ENDBRANCH  18  19
ENDBRANCH  15  18
ENDBRANCH  11  12
ENDBRANCH  10  11
ENDBRANCH   9  10
ENDBRANCH   6   9
ENDBRANCH   2   3
TORSDOF 7
ENDMDL
MODEL      110
REMARK 921   NORMALIZED FREE ENERGY PREDICTED BY IDOCK:   -4.82 KCAL/MOL
REMARK 922        TOTAL FREE ENERGY PREDICTED BY IDOCK:   -7.93 KCAL/MOL
REMARK 923 INTER-LIGAND FREE ENERGY PREDICTED BY IDOCK:   -7.92 KCAL/MOL
REMARK 924 INTRA-LIGAND FREE ENERGY PREDICTED BY IDOCK:   -0.01 KCAL/MOL
REMARK 927      BINDING AFFINITY PREDICTED BY RF-SCORE:    0.00 PKD
ROOT
HETATM    1  C   UNL     1     -13.915   9.062  72.477  1.00  0.00    -0.472 C  
HETATM    2  C   UNL     1     -12.531   8.723  71.942  1.00  0.00    -0.434 C  
ENDROOT
BRANCH   2   3
HETATM    3  C   UNL     1     -12.046   9.753  70.964  1.00  0.00    -0.434 A  
HETATM    4  C   UNL     1     -11.093   9.434  70.010  1.00  0.00    -0.221 A  
HETATM    5  N   UNL     1     -10.588  10.317  69.124  1.00  0.00    -0.215 NA 
HETATM    6  C   UNL     1     -11.043  11.596  69.156  1.00  0.00    -0.245 A  
HETATM    7  C   UNL     1     -11.990  12.009  70.084  1.00  0.00    -0.401 A  
HETATM    8  C   UNL     1     -12.494  11.075  70.994  1.00  0.00    -0.512 A  
BRANCH   6   9
HETATM    9  C   UNL     1     -10.442  12.567  68.157  1.00  0.00    -0.238 C  
BRANCH   9  10
HETATM   10  C   UNL     1     -11.332  13.804  68.055  1.00  0.00    -0.288 C  
BRANCH  10  11
HETATM   11  O   UNL     1     -11.050  14.810  69.036  1.00  0.00    -0.234 OA 
BRANCH  11  12
HETATM   12  C   UNL     1     -10.727  16.033  68.474  1.00  0.00    -0.287 A  
HETATM   13  C   UNL     1     -10.518  17.211  69.198  1.00  0.00    -0.296 A  
HETATM   14  C   UNL     1     -10.129  18.388  68.563  1.00  0.00    -0.413 A  
HETATM   15  C   UNL     1      -9.920  18.410  67.183  1.00  0.00    -0.350 A  
HETATM   16  C   UNL     1     -10.185  17.251  66.441  1.00  0.00    -0.333 A  
HETATM   17  C   UNL     1     -10.583  16.067  67.087  1.00  0.00    -0.305 A  
BRANCH  15  18
HETATM   18  C   UNL     1      -9.341  19.651  66.542  1.00  0.00    -0.464 C  
BRANCH  18  19
HETATM   19  C   UNL     1      -7.852  19.829  66.863  1.00  0.00    -0.284 C  
HETATM   20  S   UNL     1      -7.476  19.868  68.654  1.00  0.00    -0.184 SA 
HETATM   21  C   UNL     1      -6.192  18.705  68.501  1.00  0.00    -0.214 C  
HETATM   22  N   UNL     1      -6.232  18.126  67.281  1.00  0.00    -0.165 N  
HETATM   23  O   UNL     1      -5.365  18.483  69.366  1.00  0.00    -0.194 OA 
HETATM   24  C   UNL     1      -7.018  18.689  66.321  1.00  0.00    -0.236 C  
HETATM   25  H   UNL     1      -5.688  17.286  67.082  1.00  0.00     0.000 HD 
HETATM   26  O   UNL     1      -6.986  18.346  65.146  1.00  0.00    -0.501 OA 
ENDBRANCH  18  19
ENDBRANCH  15  18
ENDBRANCH  11  12
ENDBRANCH  10  11
ENDBRANCH   9  10
ENDBRANCH   6   9
ENDBRANCH   2   3
TORSDOF 7
ENDMDL
MODEL      111
REMARK 921   NORMALIZED FREE ENERGY PREDICTED BY IDOCK:   -4.79 KCAL/MOL
REMARK 922        TOTAL FREE ENERGY PREDICTED BY IDOCK:   -7.90 KCAL/MOL
REMARK 923 INTER-LIGAND FREE ENERGY PREDICTED BY IDOCK:   -7.21 KCAL/MOL
REMARK 924 INTRA-LIGAND FREE ENERGY PREDICTED BY IDOCK:   -0.69 KCAL/MOL
REMARK 927      BINDING AFFINITY PREDICTED BY RF-SCORE:    0.00 PKD
ROOT
HETATM    1  C   UNL     1      -8.022   2.527  73.562  1.00  0.00    -0.058 C  
HETATM    2  C   UNL     1      -9.029   3.466  74.210  1.00  0.00    -0.094 C  
ENDROOT
BRANCH   2   3
HETATM    3  C   UNL     1      -9.766   4.283  73.188  1.00  0.00    -0.159 A  
HETATM    4  C   UNL     1      -9.329   4.339  71.874  1.00  0.00    -0.131 A  
HETATM    5  N   UNL     1      -9.923   5.078  70.915  1.00  0.00    -0.203 NA 
HETATM    6  C   UNL     1     -11.021   5.806  71.245  1.00  0.00    -0.230 A  
HETATM    7  C   UNL     1     -11.524   5.817  72.540  1.00  0.00    -0.349 A  
HETATM    8  C   UNL     1     -10.887   5.047  73.517  1.00  0.00    -0.369 A  
BRANCH   6   9
HETATM    9  C   UNL     1     -11.654   6.638  70.146  1.00  0.00    -0.446 C  
BRANCH   9  10
HETATM   10  C   UNL     1     -10.615   7.605  69.581  1.00  0.00    -0.243 C  
BRANCH  10  11
HETATM   11  O   UNL     1     -10.319   8.713  70.440  1.00  0.00    -0.191 OA 
BRANCH  11  12
HETATM   12  C   UNL     1     -10.805   9.915  69.954  1.00  0.00    -0.278 A  
HETATM   13  C   UNL     1     -11.751  10.711  70.606  1.00  0.00    -0.454 A  
HETATM   14  C   UNL     1     -12.139  11.943  70.083  1.00  0.00    -0.382 A  
HETATM   15  C   UNL     1     -11.572  12.418  68.900  1.00  0.00    -0.364 A  
HETATM   16  C   UNL     1     -10.667  11.600  68.209  1.00  0.00    -0.246 A  
HETATM   17  C   UNL     1     -10.284  10.356  68.739  1.00  0.00    -0.201 A  
BRANCH  15  18
HETATM   18  C   UNL     1     -11.885  13.824  68.440  1.00  0.00    -0.411 C  
BRANCH  18  19
HETATM   19  C   UNL     1     -10.821  14.370  67.480  1.00  0.00    -0.282 C  
HETATM   20  S   UNL     1     -11.371  14.471  65.737  1.00  0.00    -0.339 SA 
HETATM   21  C   UNL     1     -10.815  16.109  65.562  1.00  0.00    -0.270 C  
HETATM   22  N   UNL     1     -10.512  16.630  66.772  1.00  0.00    -0.288 N  
HETATM   23  O   UNL     1     -10.690  16.678  64.492  1.00  0.00    -0.741 OA 
HETATM   24  C   UNL     1     -10.413  15.783  67.836  1.00  0.00    -0.270 C  
HETATM   25  H   UNL     1     -10.362  17.632  66.887  1.00  0.00     0.000 HD 
HETATM   26  O   UNL     1      -9.976  16.130  68.925  1.00  0.00    -0.212 OA 
ENDBRANCH  18  19
ENDBRANCH  15  18
ENDBRANCH  11  12
ENDBRANCH  10  11
ENDBRANCH   9  10
ENDBRANCH   6   9
ENDBRANCH   2   3
TORSDOF 7
ENDMDL
MODEL      112
REMARK 921   NORMALIZED FREE ENERGY PREDICTED BY IDOCK:   -4.79 KCAL/MOL
REMARK 922        TOTAL FREE ENERGY PREDICTED BY IDOCK:   -7.89 KCAL/MOL
REMARK 923 INTER-LIGAND FREE ENERGY PREDICTED BY IDOCK:   -8.32 KCAL/MOL
REMARK 924 INTRA-LIGAND FREE ENERGY PREDICTED BY IDOCK:    0.43 KCAL/MOL
REMARK 927      BINDING AFFINITY PREDICTED BY RF-SCORE:    0.00 PKD
ROOT
HETATM    1  C   UNL     1      -6.712   8.254  66.485  1.00  0.00    -0.063 C  
HETATM    2  C   UNL     1      -6.496   8.055  67.978  1.00  0.00    -0.056 C  
ENDROOT
BRANCH   2   3
HETATM    3  C   UNL     1      -7.702   8.462  68.774  1.00  0.00    -0.102 A  
HETATM    4  C   UNL     1      -7.568   9.181  69.950  1.00  0.00    -0.080 A  
HETATM    5  N   UNL     1      -8.605   9.550  70.731  1.00  0.00    -0.253 NA 
HETATM    6  C   UNL     1      -9.860   9.207  70.342  1.00  0.00    -0.218 A  
HETATM    7  C   UNL     1     -10.090   8.478  69.182  1.00  0.00    -0.207 A  
HETATM    8  C   UNL     1      -8.997   8.104  68.393  1.00  0.00    -0.136 A  
BRANCH   6   9
HETATM    9  C   UNL     1     -11.002   9.623  71.251  1.00  0.00    -0.399 C  
BRANCH   9  10
HETATM   10  C   UNL     1     -12.056  10.365  70.432  1.00  0.00    -0.315 C  
BRANCH  10  11
HETATM   11  O   UNL     1     -12.330  11.693  70.897  1.00  0.00    -0.374 OA 
BRANCH  11  12
HETATM   12  C   UNL     1     -12.028  12.664  69.959  1.00  0.00    -0.306 A  
HETATM   13  C   UNL     1     -12.509  13.976  69.990  1.00  0.00    -0.339 A  
HETATM   14  C   UNL     1     -12.103  14.915  69.045  1.00  0.00    -0.248 A  
HETATM   15  C   UNL     1     -11.187  14.567  68.051  1.00  0.00    -0.308 A  
HETATM   16  C   UNL     1     -10.745  13.238  67.976  1.00  0.00    -0.254 A  
HETATM   17  C   UNL     1     -11.163  12.294  68.930  1.00  0.00    -0.323 A  
BRANCH  15  18
HETATM   18  C   UNL     1     -10.638  15.641  67.139  1.00  0.00    -0.308 C  
BRANCH  18  19
HETATM   19  C   UNL     1     -10.481  15.150  65.695  1.00  0.00    -0.359 C  
HETATM   20  S   UNL     1     -11.190  13.491  65.390  1.00  0.00    -0.294 SA 
HETATM   21  C   UNL     1     -12.048  14.019  63.973  1.00  0.00    -0.376 C  
HETATM   22  N   UNL     1     -12.041  15.369  63.900  1.00  0.00    -0.981 N  
HETATM   23  O   UNL     1     -12.548  13.266  63.156  1.00  0.00    -0.666 OA 
HETATM   24  C   UNL     1     -11.191  16.057  64.712  1.00  0.00    -0.339 C  
HETATM   25  H   UNL     1     -12.657  15.861  63.253  1.00  0.00     0.000 HD 
HETATM   26  O   UNL     1     -10.985  17.258  64.598  1.00  0.00    -1.013 OA 
ENDBRANCH  18  19
ENDBRANCH  15  18
ENDBRANCH  11  12
ENDBRANCH  10  11
ENDBRANCH   9  10
ENDBRANCH   6   9
ENDBRANCH   2   3
TORSDOF 7
ENDMDL
MODEL      113
REMARK 921   NORMALIZED FREE ENERGY PREDICTED BY IDOCK:   -4.79 KCAL/MOL
REMARK 922        TOTAL FREE ENERGY PREDICTED BY IDOCK:   -7.89 KCAL/MOL
REMARK 923 INTER-LIGAND FREE ENERGY PREDICTED BY IDOCK:   -7.04 KCAL/MOL
REMARK 924 INTRA-LIGAND FREE ENERGY PREDICTED BY IDOCK:   -0.84 KCAL/MOL
REMARK 927      BINDING AFFINITY PREDICTED BY RF-SCORE:    0.00 PKD
ROOT
HETATM    1  C   UNL     1     -11.947  16.200  72.003  1.00  0.00    -0.607 C  
HETATM    2  C   UNL     1     -12.542  15.489  70.796  1.00  0.00    -0.505 C  
ENDROOT
BRANCH   2   3
HETATM    3  C   UNL     1     -12.689  14.014  71.036  1.00  0.00    -0.431 A  
HETATM    4  C   UNL     1     -13.424  13.539  72.110  1.00  0.00    -0.537 A  
HETATM    5  N   UNL     1     -13.569  12.230  72.403  1.00  0.00    -0.289 NA 
HETATM    6  C   UNL     1     -12.969  11.317  71.597  1.00  0.00    -0.432 A  
HETATM    7  C   UNL     1     -12.204  11.702  70.503  1.00  0.00    -0.451 A  
HETATM    8  C   UNL     1     -12.066  13.064  70.224  1.00  0.00    -0.388 A  
BRANCH   6   9
HETATM    9  C   UNL     1     -13.139   9.854  71.965  1.00  0.00    -0.545 C  
BRANCH   9  10
HETATM   10  C   UNL     1     -12.546   8.982  70.860  1.00  0.00    -0.030 C  
BRANCH  10  11
HETATM   11  O   UNL     1     -11.261   8.430  71.176  1.00  0.00    -0.249 OA 
BRANCH  11  12
HETATM   12  C   UNL     1     -10.287   8.775  70.255  1.00  0.00    -0.203 A  
HETATM   13  C   UNL     1     -10.446   8.709  68.868  1.00  0.00    -0.211 A  
HETATM   14  C   UNL     1      -9.440   9.139  68.006  1.00  0.00    -0.157 A  
HETATM   15  C   UNL     1      -8.252   9.667  68.515  1.00  0.00    -0.105 A  
HETATM   16  C   UNL     1      -8.060   9.682  69.903  1.00  0.00    -0.180 A  
HETATM   17  C   UNL     1      -9.077   9.241  70.768  1.00  0.00    -0.306 A  
BRANCH  15  18
HETATM   18  C   UNL     1      -7.246  10.277  67.566  1.00  0.00    -0.088 C  
BRANCH  18  19
HETATM   19  C   UNL     1      -7.674  11.669  67.084  1.00  0.00    -0.159 C  
HETATM   20  S   UNL     1      -9.335  11.714  66.317  1.00  0.00    -0.218 SA 
HETATM   21  C   UNL     1      -9.836  13.079  67.270  1.00  0.00    -0.227 C  
HETATM   22  N   UNL     1      -8.954  13.297  68.271  1.00  0.00    -0.214 N  
HETATM   23  O   UNL     1     -10.824  13.751  67.036  1.00  0.00    -0.281 OA 
HETATM   24  C   UNL     1      -7.750  12.661  68.224  1.00  0.00    -0.135 C  
HETATM   25  H   UNL     1      -9.183  13.923  69.044  1.00  0.00     0.000 HD 
HETATM   26  O   UNL     1      -6.826  12.926  68.981  1.00  0.00    -0.097 OA 
ENDBRANCH  18  19
ENDBRANCH  15  18
ENDBRANCH  11  12
ENDBRANCH  10  11
ENDBRANCH   9  10
ENDBRANCH   6   9
ENDBRANCH   2   3
TORSDOF 7
ENDMDL
MODEL      114
REMARK 921   NORMALIZED FREE ENERGY PREDICTED BY IDOCK:   -4.77 KCAL/MOL
REMARK 922        TOTAL FREE ENERGY PREDICTED BY IDOCK:   -7.87 KCAL/MOL
REMARK 923 INTER-LIGAND FREE ENERGY PREDICTED BY IDOCK:   -7.33 KCAL/MOL
REMARK 924 INTRA-LIGAND FREE ENERGY PREDICTED BY IDOCK:   -0.54 KCAL/MOL
REMARK 927      BINDING AFFINITY PREDICTED BY RF-SCORE:    0.00 PKD
ROOT
HETATM    1  C   UNL     1      -9.206  10.533  64.572  1.00  0.00    -0.278 C  
HETATM    2  C   UNL     1     -10.045  11.718  64.118  1.00  0.00    -0.344 C  
ENDROOT
BRANCH   2   3
HETATM    3  C   UNL     1     -10.639  12.457  65.282  1.00  0.00    -0.322 A  
HETATM    4  C   UNL     1      -9.875  12.756  66.399  1.00  0.00    -0.269 A  
HETATM    5  N   UNL     1     -10.353  13.387  67.491  1.00  0.00    -0.225 NA 
HETATM    6  C   UNL     1     -11.658  13.762  67.502  1.00  0.00    -0.354 A  
HETATM    7  C   UNL     1     -12.501  13.495  66.431  1.00  0.00    -0.349 A  
HETATM    8  C   UNL     1     -11.983  12.836  65.313  1.00  0.00    -0.473 A  
BRANCH   6   9
HETATM    9  C   UNL     1     -12.166  14.454  68.753  1.00  0.00    -0.200 C  
BRANCH   9  10
HETATM   10  C   UNL     1     -11.709  13.674  69.985  1.00  0.00    -0.249 C  
BRANCH  10  11
HETATM   11  O   UNL     1     -12.762  12.971  70.656  1.00  0.00    -0.214 OA 
BRANCH  11  12
HETATM   12  C   UNL     1     -12.460  11.639  70.883  1.00  0.00    -0.341 A  
HETATM   13  C   UNL     1     -12.992  10.869  71.920  1.00  0.00    -0.502 A  
HETATM   14  C   UNL     1     -12.690   9.515  72.040  1.00  0.00    -0.479 A  
HETATM   15  C   UNL     1     -11.859   8.890  71.108  1.00  0.00    -0.353 A  
HETATM   16  C   UNL     1     -11.273   9.668  70.099  1.00  0.00    -0.302 A  
HETATM   17  C   UNL     1     -11.578  11.036  69.987  1.00  0.00    -0.427 A  
BRANCH  15  18
HETATM   18  C   UNL     1     -11.677   7.391  71.164  1.00  0.00    -0.322 C  
BRANCH  18  19
HETATM   19  C   UNL     1     -10.241   6.994  71.527  1.00  0.00    -0.198 C  
HETATM   20  S   UNL     1      -8.973   7.663  70.390  1.00  0.00    -0.152 SA 
HETATM   21  C   UNL     1      -7.987   8.255  71.695  1.00  0.00    -0.128 C  
HETATM   22  N   UNL     1      -8.679   8.215  72.856  1.00  0.00    -0.204 N  
HETATM   23  O   UNL     1      -6.831   8.616  71.569  1.00  0.00    -0.072 OA 
HETATM   24  C   UNL     1      -9.843   7.508  72.893  1.00  0.00    -0.219 C  
HETATM   25  H   UNL     1      -8.338   8.703  73.684  1.00  0.00     0.000 HD 
HETATM   26  O   UNL     1     -10.444   7.268  73.931  1.00  0.00    -0.353 OA 
ENDBRANCH  18  19
ENDBRANCH  15  18
ENDBRANCH  11  12
ENDBRANCH  10  11
ENDBRANCH   9  10
ENDBRANCH   6   9
ENDBRANCH   2   3
TORSDOF 7
ENDMDL
MODEL      115
REMARK 921   NORMALIZED FREE ENERGY PREDICTED BY IDOCK:   -4.77 KCAL/MOL
REMARK 922        TOTAL FREE ENERGY PREDICTED BY IDOCK:   -7.86 KCAL/MOL
REMARK 923 INTER-LIGAND FREE ENERGY PREDICTED BY IDOCK:   -7.14 KCAL/MOL
REMARK 924 INTRA-LIGAND FREE ENERGY PREDICTED BY IDOCK:   -0.72 KCAL/MOL
REMARK 927      BINDING AFFINITY PREDICTED BY RF-SCORE:    0.00 PKD
ROOT
HETATM    1  C   UNL     1     -13.784   7.016  71.585  1.00  0.00    -0.348 C  
HETATM    2  C   UNL     1     -12.316   7.344  71.814  1.00  0.00    -0.365 C  
ENDROOT
BRANCH   2   3
HETATM    3  C   UNL     1     -11.876   8.526  71.000  1.00  0.00    -0.290 A  
HETATM    4  C   UNL     1     -10.806   8.428  70.124  1.00  0.00    -0.236 A  
HETATM    5  N   UNL     1     -10.338   9.457  69.389  1.00  0.00    -0.204 NA 
HETATM    6  C   UNL     1     -10.951  10.663  69.501  1.00  0.00    -0.272 A  
HETATM    7  C   UNL     1     -12.025  10.857  70.361  1.00  0.00    -0.453 A  
HETATM    8  C   UNL     1     -12.488   9.776  71.115  1.00  0.00    -0.443 A  
BRANCH   6   9
HETATM    9  C   UNL     1     -10.389  11.803  68.672  1.00  0.00    -0.228 C  
BRANCH   9  10
HETATM   10  C   UNL     1     -11.367  12.144  67.549  1.00  0.00    -0.326 C  
BRANCH  10  11
HETATM   11  O   UNL     1     -12.224  13.256  67.838  1.00  0.00    -0.275 OA 
BRANCH  11  12
HETATM   12  C   UNL     1     -11.534  14.451  67.950  1.00  0.00    -0.321 A  
HETATM   13  C   UNL     1     -10.768  15.024  66.931  1.00  0.00    -0.308 A  
HETATM   14  C   UNL     1     -10.159  16.265  67.099  1.00  0.00    -0.268 A  
HETATM   15  C   UNL     1     -10.318  16.975  68.290  1.00  0.00    -0.347 A  
HETATM   16  C   UNL     1     -11.035  16.381  69.339  1.00  0.00    -0.325 A  
HETATM   17  C   UNL     1     -11.643  15.126  69.164  1.00  0.00    -0.343 A  
BRANCH  15  18
HETATM   18  C   UNL     1      -9.787  18.387  68.389  1.00  0.00    -0.396 C  
BRANCH  18  19
HETATM   19  C   UNL     1      -8.336  18.495  67.904  1.00  0.00    -0.265 C  
HETATM   20  S   UNL     1      -8.139  19.433  66.344  1.00  0.00    -0.328 SA 
HETATM   21  C   UNL     1      -6.856  20.413  66.990  1.00  0.00    -0.261 C  
HETATM   22  N   UNL     1      -6.779  20.254  68.331  1.00  0.00    -0.294 N  
HETATM   23  O   UNL     1      -6.120  21.108  66.314  1.00  0.00    -0.257 OA 
HETATM   24  C   UNL     1      -7.461  19.222  68.902  1.00  0.00    -0.361 C  
HETATM   25  H   UNL     1      -6.224  20.892  68.902  1.00  0.00     0.000 HD 
HETATM   26  O   UNL     1      -7.315  18.892  70.071  1.00  0.00     0.371 OA 
ENDBRANCH  18  19
ENDBRANCH  15  18
ENDBRANCH  11  12
ENDBRANCH  10  11
ENDBRANCH   9  10
ENDBRANCH   6   9
ENDBRANCH   2   3
TORSDOF 7
ENDMDL
MODEL      116
REMARK 921   NORMALIZED FREE ENERGY PREDICTED BY IDOCK:   -4.76 KCAL/MOL
REMARK 922        TOTAL FREE ENERGY PREDICTED BY IDOCK:   -7.85 KCAL/MOL
REMARK 923 INTER-LIGAND FREE ENERGY PREDICTED BY IDOCK:   -6.53 KCAL/MOL
REMARK 924 INTRA-LIGAND FREE ENERGY PREDICTED BY IDOCK:   -1.32 KCAL/MOL
REMARK 927      BINDING AFFINITY PREDICTED BY RF-SCORE:    0.00 PKD
ROOT
HETATM    1  C   UNL     1     -10.189   8.027  67.293  1.00  0.00    -0.345 C  
HETATM    2  C   UNL     1     -10.243   8.928  68.519  1.00  0.00    -0.223 C  
ENDROOT
BRANCH   2   3
HETATM    3  C   UNL     1      -9.018   9.788  68.631  1.00  0.00    -0.130 A  
HETATM    4  C   UNL     1      -8.359   9.931  69.841  1.00  0.00    -0.183 A  
HETATM    5  N   UNL     1      -7.275  10.714  70.021  1.00  0.00    -0.142 NA 
HETATM    6  C   UNL     1      -6.789  11.400  68.953  1.00  0.00    -0.089 A  
HETATM    7  C   UNL     1      -7.391  11.324  67.704  1.00  0.00    -0.100 A  
HETATM    8  C   UNL     1      -8.516  10.510  67.546  1.00  0.00    -0.118 A  
BRANCH   6   9
HETATM    9  C   UNL     1      -5.579  12.283  69.194  1.00  0.00    -0.066 C  
BRANCH   9  10
HETATM   10  C   UNL     1      -5.938  13.371  70.203  1.00  0.00    -0.139 C  
BRANCH  10  11
HETATM   11  O   UNL     1      -6.092  14.675  69.628  1.00  0.00    -0.104 OA 
BRANCH  11  12
HETATM   12  C   UNL     1      -7.226  14.785  68.841  1.00  0.00    -0.126 A  
HETATM   13  C   UNL     1      -8.519  14.459  69.261  1.00  0.00     0.171 A  
HETATM   14  C   UNL     1      -9.618  14.662  68.431  1.00  0.00    -0.217 A  
HETATM   15  C   UNL     1      -9.452  15.218  67.161  1.00  0.00    -0.223 A  
HETATM   16  C   UNL     1      -8.154  15.492  66.710  1.00  0.00    -0.247 A  
HETATM   17  C   UNL     1      -7.047  15.280  67.550  1.00  0.00    -0.224 A  
BRANCH  15  18
HETATM   18  C   UNL     1     -10.672  15.581  66.345  1.00  0.00    -0.303 C  
BRANCH  18  19
HETATM   19  C   UNL     1     -10.692  14.871  64.986  1.00  0.00    -0.431 C  
HETATM   20  S   UNL     1     -10.625  13.045  65.097  1.00  0.00    -0.324 SA 
HETATM   21  C   UNL     1     -11.964  12.840  64.006  1.00  0.00    -0.447 C  
HETATM   22  N   UNL     1     -12.587  14.023  63.806  1.00  0.00    -0.880 N  
HETATM   23  O   UNL     1     -12.262  11.783  63.480  1.00  0.00    -0.500 OA 
HETATM   24  C   UNL     1     -11.962  15.163  64.216  1.00  0.00    -0.262 C  
HETATM   25  H   UNL     1     -13.503  14.063  63.360  1.00  0.00     0.000 HD 
HETATM   26  O   UNL     1     -12.359  16.283  63.925  1.00  0.00    -0.874 OA 
ENDBRANCH  18  19
ENDBRANCH  15  18
ENDBRANCH  11  12
ENDBRANCH  10  11
ENDBRANCH   9  10
ENDBRANCH   6   9
ENDBRANCH   2   3
TORSDOF 7
ENDMDL
MODEL      117
REMARK 921   NORMALIZED FREE ENERGY PREDICTED BY IDOCK:   -4.76 KCAL/MOL
REMARK 922        TOTAL FREE ENERGY PREDICTED BY IDOCK:   -7.85 KCAL/MOL
REMARK 923 INTER-LIGAND FREE ENERGY PREDICTED BY IDOCK:   -7.17 KCAL/MOL
REMARK 924 INTRA-LIGAND FREE ENERGY PREDICTED BY IDOCK:   -0.68 KCAL/MOL
REMARK 927      BINDING AFFINITY PREDICTED BY RF-SCORE:    0.00 PKD
ROOT
HETATM    1  C   UNL     1     -10.282   2.828  72.483  1.00  0.00    -0.226 C  
HETATM    2  C   UNL     1      -9.463   4.063  72.139  1.00  0.00    -0.192 C  
ENDROOT
BRANCH   2   3
HETATM    3  C   UNL     1      -9.956   4.726  70.885  1.00  0.00    -0.283 A  
HETATM    4  C   UNL     1      -9.516   4.307  69.640  1.00  0.00    -0.188 A  
HETATM    5  N   UNL     1      -9.891   4.878  68.477  1.00  0.00    -0.154 NA 
HETATM    6  C   UNL     1     -10.759   5.922  68.520  1.00  0.00    -0.255 A  
HETATM    7  C   UNL     1     -11.245   6.416  69.724  1.00  0.00    -0.484 A  
HETATM    8  C   UNL     1     -10.837   5.809  70.915  1.00  0.00    -0.326 A  
BRANCH   6   9
HETATM    9  C   UNL     1     -11.147   6.552  67.195  1.00  0.00    -0.434 C  
BRANCH   9  10
HETATM   10  C   UNL     1      -9.944   7.290  66.613  1.00  0.00    -0.176 C  
BRANCH  10  11
HETATM   11  O   UNL     1      -9.406   8.302  67.475  1.00  0.00    -0.138 OA 
BRANCH  11  12
HETATM   12  C   UNL     1      -9.969   9.548  67.257  1.00  0.00    -0.189 A  
HETATM   13  C   UNL     1      -9.834  10.285  66.078  1.00  0.00    -0.292 A  
HETATM   14  C   UNL     1     -10.489  11.503  65.910  1.00  0.00    -0.303 A  
HETATM   15  C   UNL     1     -11.315  12.005  66.918  1.00  0.00    -0.400 A  
HETATM   16  C   UNL     1     -11.408  11.302  68.127  1.00  0.00    -0.372 A  
HETATM   17  C   UNL     1     -10.740  10.076  68.291  1.00  0.00    -0.280 A  
BRANCH  15  18
HETATM   18  C   UNL     1     -12.142  13.242  66.651  1.00  0.00    -0.421 C  
BRANCH  18  19
HETATM   19  C   UNL     1     -11.324  14.530  66.806  1.00  0.00    -0.352 C  
HETATM   20  S   UNL     1     -10.041  14.447  68.108  1.00  0.00    -0.231 SA 
HETATM   21  C   UNL     1      -8.806  15.074  67.057  1.00  0.00    -0.234 C  
HETATM   22  N   UNL     1      -9.239  15.071  65.776  1.00  0.00    -0.468 N  
HETATM   23  O   UNL     1      -7.725  15.484  67.441  1.00  0.00    -0.157 OA 
HETATM   24  C   UNL     1     -10.566  14.872  65.541  1.00  0.00    -0.357 C  
HETATM   25  H   UNL     1      -8.588  15.214  65.004  1.00  0.00     0.000 HD 
HETATM   26  O   UNL     1     -11.078  15.026  64.441  1.00  0.00    -0.261 OA 
ENDBRANCH  18  19
ENDBRANCH  15  18
ENDBRANCH  11  12
ENDBRANCH  10  11
ENDBRANCH   9  10
ENDBRANCH   6   9
ENDBRANCH   2   3
TORSDOF 7
ENDMDL
MODEL      118
REMARK 921   NORMALIZED FREE ENERGY PREDICTED BY IDOCK:   -4.76 KCAL/MOL
REMARK 922        TOTAL FREE ENERGY PREDICTED BY IDOCK:   -7.84 KCAL/MOL
REMARK 923 INTER-LIGAND FREE ENERGY PREDICTED BY IDOCK:   -6.88 KCAL/MOL
REMARK 924 INTRA-LIGAND FREE ENERGY PREDICTED BY IDOCK:   -0.97 KCAL/MOL
REMARK 927      BINDING AFFINITY PREDICTED BY RF-SCORE:    0.00 PKD
ROOT
HETATM    1  C   UNL     1      -6.646  19.860  65.027  1.00  0.00    -0.310 C  
HETATM    2  C   UNL     1      -7.176  20.460  66.321  1.00  0.00    -0.267 C  
ENDROOT
BRANCH   2   3
HETATM    3  C   UNL     1      -8.021  19.480  67.083  1.00  0.00    -0.298 A  
HETATM    4  C   UNL     1      -9.403  19.583  67.082  1.00  0.00    -0.326 A  
HETATM    5  N   UNL     1     -10.220  18.759  67.771  1.00  0.00    -0.373 NA 
HETATM    6  C   UNL     1      -9.662  17.761  68.505  1.00  0.00    -0.343 A  
HETATM    7  C   UNL     1      -8.286  17.589  68.572  1.00  0.00    -0.278 A  
HETATM    8  C   UNL     1      -7.461  18.458  67.852  1.00  0.00    -0.245 A  
BRANCH   6   9
HETATM    9  C   UNL     1     -10.609  16.864  69.279  1.00  0.00    -0.325 C  
BRANCH   9  10
HETATM   10  C   UNL     1     -11.532  16.138  68.303  1.00  0.00    -0.259 C  
BRANCH  10  11
HETATM   11  O   UNL     1     -10.845  15.439  67.257  1.00  0.00    -0.306 OA 
BRANCH  11  12
HETATM   12  C   UNL     1     -10.435  14.172  67.637  1.00  0.00    -0.245 A  
HETATM   13  C   UNL     1      -9.105  13.798  67.849  1.00  0.00    -0.193 A  
HETATM   14  C   UNL     1      -8.778  12.521  68.297  1.00  0.00    -0.171 A  
HETATM   15  C   UNL     1      -9.782  11.588  68.565  1.00  0.00    -0.191 A  
HETATM   16  C   UNL     1     -11.114  11.935  68.298  1.00  0.00    -0.289 A  
HETATM   17  C   UNL     1     -11.436  13.224  67.841  1.00  0.00    -0.341 A  
BRANCH  15  18
HETATM   18  C   UNL     1      -9.416  10.268  69.205  1.00  0.00    -0.225 C  
BRANCH  18  19
HETATM   19  C   UNL     1     -10.586   9.277  69.199  1.00  0.00    -0.212 C  
HETATM   20  S   UNL     1     -10.171   7.636  68.503  1.00  0.00    -0.200 SA 
HETATM   21  C   UNL     1     -10.872   6.787  69.849  1.00  0.00    -0.266 C  
HETATM   22  N   UNL     1     -11.131   7.649  70.858  1.00  0.00    -0.258 N  
HETATM   23  O   UNL     1     -11.120   5.595  69.852  1.00  0.00    -0.321 OA 
HETATM   24  C   UNL     1     -11.084   8.985  70.598  1.00  0.00    -0.265 C  
HETATM   25  H   UNL     1     -11.356   7.307  71.793  1.00  0.00     0.000 HD 
HETATM   26  O   UNL     1     -11.471   9.833  71.392  1.00  0.00    -0.371 OA 
ENDBRANCH  18  19
ENDBRANCH  15  18
ENDBRANCH  11  12
ENDBRANCH  10  11
ENDBRANCH   9  10
ENDBRANCH   6   9
ENDBRANCH   2   3
TORSDOF 7
ENDMDL
MODEL      119
REMARK 921   NORMALIZED FREE ENERGY PREDICTED BY IDOCK:   -4.75 KCAL/MOL
REMARK 922        TOTAL FREE ENERGY PREDICTED BY IDOCK:   -7.84 KCAL/MOL
REMARK 923 INTER-LIGAND FREE ENERGY PREDICTED BY IDOCK:   -6.99 KCAL/MOL
REMARK 924 INTRA-LIGAND FREE ENERGY PREDICTED BY IDOCK:   -0.85 KCAL/MOL
REMARK 927      BINDING AFFINITY PREDICTED BY RF-SCORE:    0.00 PKD
ROOT
HETATM    1  C   UNL     1     -11.377  15.696  70.326  1.00  0.00    -0.357 C  
HETATM    2  C   UNL     1     -10.316  16.014  69.283  1.00  0.00    -0.251 C  
ENDROOT
BRANCH   2   3
HETATM    3  C   UNL     1     -10.733  15.568  67.911  1.00  0.00    -0.294 A  
HETATM    4  C   UNL     1     -11.782  14.679  67.741  1.00  0.00    -0.359 A  
HETATM    5  N   UNL     1     -12.187  14.211  66.543  1.00  0.00    -0.457 NA 
HETATM    6  C   UNL     1     -11.537  14.639  65.429  1.00  0.00    -0.345 A  
HETATM    7  C   UNL     1     -10.468  15.522  65.504  1.00  0.00    -0.407 A  
HETATM    8  C   UNL     1     -10.066  15.988  66.759  1.00  0.00    -0.272 A  
BRANCH   6   9
HETATM    9  C   UNL     1     -12.008  14.080  64.099  1.00  0.00    -0.439 C  
BRANCH   9  10
HETATM   10  C   UNL     1     -11.717  12.582  64.048  1.00  0.00    -0.423 C  
BRANCH  10  11
HETATM   11  O   UNL     1     -10.355  12.239  64.335  1.00  0.00    -0.299 OA 
BRANCH  11  12
HETATM   12  C   UNL     1     -10.243  11.182  65.221  1.00  0.00    -0.280 A  
HETATM   13  C   UNL     1     -10.825  11.143  66.491  1.00  0.00    -0.302 A  
HETATM   14  C   UNL     1     -10.723  10.012  67.297  1.00  0.00    -0.309 A  
HETATM   15  C   UNL     1     -10.047   8.878  66.841  1.00  0.00    -0.343 A  
HETATM   16  C   UNL     1      -9.409   8.929  65.594  1.00  0.00    -0.259 A  
HETATM   17  C   UNL     1      -9.512  10.076  64.787  1.00  0.00    -0.366 A  
BRANCH  15  18
HETATM   18  C   UNL     1     -10.089   7.610  67.663  1.00  0.00    -0.249 C  
BRANCH  18  19
HETATM   19  C   UNL     1      -9.188   6.513  67.082  1.00  0.00    -0.128 C  
HETATM   20  S   UNL     1      -7.831   5.996  68.195  1.00  0.00    -0.107 SA 
HETATM   21  C   UNL     1      -8.185   4.306  67.989  1.00  0.00    -0.093 C  
HETATM   22  N   UNL     1      -9.382   4.152  67.380  1.00  0.00    -0.162 N  
HETATM   23  O   UNL     1      -7.435   3.405  68.319  1.00  0.00    -0.053 OA 
HETATM   24  C   UNL     1      -9.959   5.242  66.800  1.00  0.00    -0.199 C  
HETATM   25  H   UNL     1      -9.843   3.242  67.355  1.00  0.00     0.000 HD 
HETATM   26  O   UNL     1     -10.946   5.169  66.080  1.00  0.00    -0.237 OA 
ENDBRANCH  18  19
ENDBRANCH  15  18
ENDBRANCH  11  12
ENDBRANCH  10  11
ENDBRANCH   9  10
ENDBRANCH   6   9
ENDBRANCH   2   3
TORSDOF 7
ENDMDL
MODEL      120
REMARK 921   NORMALIZED FREE ENERGY PREDICTED BY IDOCK:   -4.75 KCAL/MOL
REMARK 922        TOTAL FREE ENERGY PREDICTED BY IDOCK:   -7.84 KCAL/MOL
REMARK 923 INTER-LIGAND FREE ENERGY PREDICTED BY IDOCK:   -7.18 KCAL/MOL
REMARK 924 INTRA-LIGAND FREE ENERGY PREDICTED BY IDOCK:   -0.66 KCAL/MOL
REMARK 927      BINDING AFFINITY PREDICTED BY RF-SCORE:    0.00 PKD
ROOT
HETATM    1  C   UNL     1      -7.920   2.841  68.312  1.00  0.00    -0.063 C  
HETATM    2  C   UNL     1      -8.915   2.443  69.392  1.00  0.00    -0.166 C  
ENDROOT
BRANCH   2   3
HETATM    3  C   UNL     1      -9.452   3.640  70.122  1.00  0.00    -0.258 A  
HETATM    4  C   UNL     1      -9.451   3.686  71.507  1.00  0.00    -0.150 A  
HETATM    5  N   UNL     1      -9.948   4.713  72.226  1.00  0.00    -0.170 NA 
HETATM    6  C   UNL     1     -10.475   5.774  71.561  1.00  0.00    -0.235 A  
HETATM    7  C   UNL     1     -10.527   5.809  70.173  1.00  0.00    -0.348 A  
HETATM    8  C   UNL     1     -10.010   4.730  69.451  1.00  0.00    -0.269 A  
BRANCH   6   9
HETATM    9  C   UNL     1     -11.040   6.904  72.401  1.00  0.00    -0.296 C  
BRANCH   9  10
HETATM   10  C   UNL     1     -11.773   7.891  71.494  1.00  0.00    -0.283 C  
BRANCH  10  11
HETATM   11  O   UNL     1     -11.941   9.195  72.064  1.00  0.00    -0.367 OA 
BRANCH  11  12
HETATM   12  C   UNL     1     -11.772  10.212  71.140  1.00  0.00    -0.366 A  
HETATM   13  C   UNL     1     -10.996  10.111  69.981  1.00  0.00    -0.364 A  
HETATM   14  C   UNL     1     -10.931  11.157  69.065  1.00  0.00    -0.286 A  
HETATM   15  C   UNL     1     -11.659  12.329  69.277  1.00  0.00    -0.383 A  
HETATM   16  C   UNL     1     -12.392  12.462  70.465  1.00  0.00    -0.346 A  
HETATM   17  C   UNL     1     -12.449  11.404  71.389  1.00  0.00    -0.370 A  
BRANCH  15  18
HETATM   18  C   UNL     1     -11.702  13.382  68.193  1.00  0.00    -0.397 C  
BRANCH  18  19
HETATM   19  C   UNL     1     -10.679  14.499  68.429  1.00  0.00    -0.243 C  
HETATM   20  S   UNL     1      -9.767  15.005  66.925  1.00  0.00    -0.246 SA 
HETATM   21  C   UNL     1     -10.061  16.696  67.206  1.00  0.00    -0.279 C  
HETATM   22  N   UNL     1     -10.997  16.851  68.169  1.00  0.00    -0.346 N  
HETATM   23  O   UNL     1      -9.475  17.596  66.633  1.00  0.00    -0.262 OA 
HETATM   24  C   UNL     1     -11.336  15.769  68.924  1.00  0.00    -0.356 C  
HETATM   25  H   UNL     1     -11.439  17.757  68.326  1.00  0.00     0.000 HD 
HETATM   26  O   UNL     1     -12.036  15.848  69.925  1.00  0.00    -0.334 OA 
ENDBRANCH  18  19
ENDBRANCH  15  18
ENDBRANCH  11  12
ENDBRANCH  10  11
ENDBRANCH   9  10
ENDBRANCH   6   9
ENDBRANCH   2   3
TORSDOF 7
ENDMDL
MODEL      121
REMARK 921   NORMALIZED FREE ENERGY PREDICTED BY IDOCK:   -4.75 KCAL/MOL
REMARK 922        TOTAL FREE ENERGY PREDICTED BY IDOCK:   -7.84 KCAL/MOL
REMARK 923 INTER-LIGAND FREE ENERGY PREDICTED BY IDOCK:   -6.92 KCAL/MOL
REMARK 924 INTRA-LIGAND FREE ENERGY PREDICTED BY IDOCK:   -0.92 KCAL/MOL
REMARK 927      BINDING AFFINITY PREDICTED BY RF-SCORE:    0.00 PKD
ROOT
HETATM    1  C   UNL     1      -5.893   7.199  73.759  1.00  0.00    -0.057 C  
HETATM    2  C   UNL     1      -6.619   8.001  72.690  1.00  0.00    -0.082 C  
ENDROOT
BRANCH   2   3
HETATM    3  C   UNL     1      -8.066   7.612  72.589  1.00  0.00    -0.148 A  
HETATM    4  C   UNL     1      -8.640   7.323  71.361  1.00  0.00    -0.115 A  
HETATM    5  N   UNL     1      -9.939   7.001  71.194  1.00  0.00    -0.184 NA 
HETATM    6  C   UNL     1     -10.737   6.944  72.292  1.00  0.00    -0.223 A  
HETATM    7  C   UNL     1     -10.250   7.227  73.562  1.00  0.00    -0.404 A  
HETATM    8  C   UNL     1      -8.901   7.563  73.707  1.00  0.00    -0.283 A  
BRANCH   6   9
HETATM    9  C   UNL     1     -12.196   6.594  72.067  1.00  0.00    -0.337 C  
BRANCH   9  10
HETATM   10  C   UNL     1     -12.868   7.711  71.270  1.00  0.00    -0.260 C  
BRANCH  10  11
HETATM   11  O   UNL     1     -12.990   8.947  71.985  1.00  0.00    -0.344 OA 
BRANCH  11  12
HETATM   12  C   UNL     1     -12.566  10.039  71.247  1.00  0.00    -0.393 A  
HETATM   13  C   UNL     1     -11.712   9.968  70.143  1.00  0.00    -0.285 A  
HETATM   14  C   UNL     1     -11.385  11.106  69.410  1.00  0.00    -0.352 A  
HETATM   15  C   UNL     1     -11.923  12.347  69.755  1.00  0.00    -0.359 A  
HETATM   16  C   UNL     1     -12.733  12.438  70.897  1.00  0.00    -0.273 A  
HETATM   17  C   UNL     1     -13.054  11.286  71.635  1.00  0.00    -0.513 A  
BRANCH  15  18
HETATM   18  C   UNL     1     -11.686  13.535  68.851  1.00  0.00    -0.379 C  
BRANCH  18  19
HETATM   19  C   UNL     1     -10.916  14.657  69.558  1.00  0.00    -0.245 C  
HETATM   20  S   UNL     1      -9.477  15.282  68.616  1.00  0.00    -0.213 SA 
HETATM   21  C   UNL     1      -9.944  16.943  68.829  1.00  0.00    -0.276 C  
HETATM   22  N   UNL     1     -11.207  17.014  69.307  1.00  0.00    -0.202 N  
HETATM   23  O   UNL     1      -9.214  17.892  68.608  1.00  0.00    -0.288 OA 
HETATM   24  C   UNL     1     -11.782  15.876  69.789  1.00  0.00    -0.318 C  
HETATM   25  H   UNL     1     -11.717  17.897  69.306  1.00  0.00     0.000 HD 
HETATM   26  O   UNL     1     -12.844  15.873  70.398  1.00  0.00    -0.385 OA 
ENDBRANCH  18  19
ENDBRANCH  15  18
ENDBRANCH  11  12
ENDBRANCH  10  11
ENDBRANCH   9  10
ENDBRANCH   6   9
ENDBRANCH   2   3
TORSDOF 7
ENDMDL
MODEL      122
REMARK 921   NORMALIZED FREE ENERGY PREDICTED BY IDOCK:   -4.74 KCAL/MOL
REMARK 922        TOTAL FREE ENERGY PREDICTED BY IDOCK:   -7.83 KCAL/MOL
REMARK 923 INTER-LIGAND FREE ENERGY PREDICTED BY IDOCK:   -7.40 KCAL/MOL
REMARK 924 INTRA-LIGAND FREE ENERGY PREDICTED BY IDOCK:   -0.43 KCAL/MOL
REMARK 927      BINDING AFFINITY PREDICTED BY RF-SCORE:    0.00 PKD
ROOT
HETATM    1  C   UNL     1      -8.626   3.557  68.373  1.00  0.00    -0.118 C  
HETATM    2  C   UNL     1      -9.688   4.100  69.318  1.00  0.00    -0.219 C  
ENDROOT
BRANCH   2   3
HETATM    3  C   UNL     1      -9.897   5.575  69.131  1.00  0.00    -0.227 A  
HETATM    4  C   UNL     1      -9.595   6.469  70.146  1.00  0.00    -0.160 A  
HETATM    5  N   UNL     1      -9.790   7.801  70.059  1.00  0.00    -0.180 NA 
HETATM    6  C   UNL     1     -10.303   8.305  68.907  1.00  0.00    -0.215 A  
HETATM    7  C   UNL     1     -10.644   7.483  67.840  1.00  0.00    -0.250 A  
HETATM    8  C   UNL     1     -10.436   6.105  67.958  1.00  0.00    -0.284 A  
BRANCH   6   9
HETATM    9  C   UNL     1     -10.524   9.805  68.848  1.00  0.00    -0.233 C  
BRANCH   9  10
HETATM   10  C   UNL     1     -11.250  10.160  67.552  1.00  0.00    -0.047 C  
BRANCH  10  11
HETATM   11  O   UNL     1     -12.018  11.368  67.624  1.00  0.00    -0.630 OA 
BRANCH  11  12
HETATM   12  C   UNL     1     -11.290  12.490  67.270  1.00  0.00    -0.315 A  
HETATM   13  C   UNL     1     -11.334  13.102  66.014  1.00  0.00    -0.337 A  
HETATM   14  C   UNL     1     -10.621  14.271  65.756  1.00  0.00    -0.315 A  
HETATM   15  C   UNL     1      -9.858  14.869  66.761  1.00  0.00    -0.254 A  
HETATM   16  C   UNL     1      -9.760  14.230  68.005  1.00  0.00    -0.223 A  
HETATM   17  C   UNL     1     -10.478  13.047  68.257  1.00  0.00    -0.258 A  
BRANCH  15  18
HETATM   18  C   UNL     1      -9.228  16.219  66.508  1.00  0.00    -0.299 C  
BRANCH  18  19
HETATM   19  C   UNL     1     -10.150  17.375  66.916  1.00  0.00    -0.314 C  
HETATM   20  S   UNL     1      -9.412  18.523  68.136  1.00  0.00    -0.331 SA 
HETATM   21  C   UNL     1      -9.852  19.929  67.212  1.00  0.00    -0.403 C  
HETATM   22  N   UNL     1     -10.252  19.566  65.973  1.00  0.00    -0.470 N  
HETATM   23  O   UNL     1      -9.830  21.067  67.647  1.00  0.00    -0.313 OA 
HETATM   24  C   UNL     1     -10.512  18.250  65.735  1.00  0.00    -0.213 C  
HETATM   25  H   UNL     1     -10.356  20.261  65.233  1.00  0.00     0.000 HD 
HETATM   26  O   UNL     1     -11.043  17.851  64.708  1.00  0.00    -0.785 OA 
ENDBRANCH  18  19
ENDBRANCH  15  18
ENDBRANCH  11  12
ENDBRANCH  10  11
ENDBRANCH   9  10
ENDBRANCH   6   9
ENDBRANCH   2   3
TORSDOF 7
ENDMDL
MODEL      123
REMARK 921   NORMALIZED FREE ENERGY PREDICTED BY IDOCK:   -4.74 KCAL/MOL
REMARK 922        TOTAL FREE ENERGY PREDICTED BY IDOCK:   -7.82 KCAL/MOL
REMARK 923 INTER-LIGAND FREE ENERGY PREDICTED BY IDOCK:   -7.14 KCAL/MOL
REMARK 924 INTRA-LIGAND FREE ENERGY PREDICTED BY IDOCK:   -0.68 KCAL/MOL
REMARK 927      BINDING AFFINITY PREDICTED BY RF-SCORE:    0.00 PKD
ROOT
HETATM    1  C   UNL     1      -8.149  18.726  68.339  1.00  0.00    -0.371 C  
HETATM    2  C   UNL     1      -9.668  18.684  68.422  1.00  0.00    -0.405 C  
ENDROOT
BRANCH   2   3
HETATM    3  C   UNL     1     -10.228  17.462  67.752  1.00  0.00    -0.345 A  
HETATM    4  C   UNL     1     -11.014  16.564  68.455  1.00  0.00    -0.350 A  
HETATM    5  N   UNL     1     -11.521  15.431  67.926  1.00  0.00    -0.327 NA 
HETATM    6  C   UNL     1     -11.255  15.151  66.623  1.00  0.00    -0.274 A  
HETATM    7  C   UNL     1     -10.468  15.990  65.844  1.00  0.00    -0.373 A  
HETATM    8  C   UNL     1      -9.952  17.155  66.418  1.00  0.00    -0.315 A  
BRANCH   6   9
HETATM    9  C   UNL     1     -11.827  13.862  66.065  1.00  0.00    -0.412 C  
BRANCH   9  10
HETATM   10  C   UNL     1     -11.119  12.672  66.711  1.00  0.00    -0.277 C  
BRANCH  10  11
HETATM   11  O   UNL     1     -12.007  11.660  67.202  1.00  0.00    -0.614 OA 
BRANCH  11  12
HETATM   12  C   UNL     1     -11.554  11.067  68.368  1.00  0.00    -0.302 A  
HETATM   13  C   UNL     1     -12.357  10.769  69.472  1.00  0.00    -0.208 A  
HETATM   14  C   UNL     1     -11.839  10.109  70.583  1.00  0.00    -0.431 A  
HETATM   15  C   UNL     1     -10.502   9.711  70.609  1.00  0.00    -0.379 A  
HETATM   16  C   UNL     1      -9.674  10.058  69.531  1.00  0.00    -0.253 A  
HETATM   17  C   UNL     1     -10.202  10.730  68.415  1.00  0.00    -0.192 A  
BRANCH  15  18
HETATM   18  C   UNL     1     -10.004   8.854  71.751  1.00  0.00    -0.397 C  
BRANCH  18  19
HETATM   19  C   UNL     1      -8.942   7.845  71.298  1.00  0.00    -0.135 C  
HETATM   20  S   UNL     1      -7.671   7.482  72.564  1.00  0.00    -0.100 SA 
HETATM   21  C   UNL     1      -7.834   5.762  72.363  1.00  0.00    -0.103 C  
HETATM   22  N   UNL     1      -8.936   5.481  71.633  1.00  0.00    -0.136 N  
HETATM   23  O   UNL     1      -7.041   4.945  72.796  1.00  0.00    -0.074 OA 
HETATM   24  C   UNL     1      -9.550   6.499  70.967  1.00  0.00    -0.175 C  
HETATM   25  H   UNL     1      -9.301   4.529  71.582  1.00  0.00     0.000 HD 
HETATM   26  O   UNL     1     -10.440   6.318  70.147  1.00  0.00    -0.195 OA 
ENDBRANCH  18  19
ENDBRANCH  15  18
ENDBRANCH  11  12
ENDBRANCH  10  11
ENDBRANCH   9  10
ENDBRANCH   6   9
ENDBRANCH   2   3
TORSDOF 7
ENDMDL
MODEL      124
REMARK 921   NORMALIZED FREE ENERGY PREDICTED BY IDOCK:   -4.73 KCAL/MOL
REMARK 922        TOTAL FREE ENERGY PREDICTED BY IDOCK:   -7.80 KCAL/MOL
REMARK 923 INTER-LIGAND FREE ENERGY PREDICTED BY IDOCK:   -7.12 KCAL/MOL
REMARK 924 INTRA-LIGAND FREE ENERGY PREDICTED BY IDOCK:   -0.68 KCAL/MOL
REMARK 927      BINDING AFFINITY PREDICTED BY RF-SCORE:    0.00 PKD
ROOT
HETATM    1  C   UNL     1      -5.716  20.286  64.882  1.00  0.00    -0.237 C  
HETATM    2  C   UNL     1      -6.254  20.922  66.155  1.00  0.00    -0.302 C  
ENDROOT
BRANCH   2   3
HETATM    3  C   UNL     1      -7.199  20.006  66.878  1.00  0.00    -0.270 A  
HETATM    4  C   UNL     1      -8.558  20.032  66.611  1.00  0.00    -0.321 A  
HETATM    5  N   UNL     1      -9.465  19.262  67.246  1.00  0.00    -0.307 NA 
HETATM    6  C   UNL     1      -9.027  18.400  68.201  1.00  0.00    -0.309 A  
HETATM    7  C   UNL     1      -7.683  18.314  68.542  1.00  0.00    -0.319 A  
HETATM    8  C   UNL     1      -6.764  19.126  67.871  1.00  0.00    -0.247 A  
BRANCH   6   9
HETATM    9  C   UNL     1     -10.076  17.561  68.907  1.00  0.00    -0.346 C  
BRANCH   9  10
HETATM   10  C   UNL     1     -10.993  16.918  67.868  1.00  0.00    -0.251 C  
BRANCH  10  11
HETATM   11  O   UNL     1     -10.308  16.105  66.906  1.00  0.00    -0.287 OA 
BRANCH  11  12
HETATM   12  C   UNL     1     -10.459  14.750  67.144  1.00  0.00    -0.265 A  
HETATM   13  C   UNL     1      -9.575  13.972  67.897  1.00  0.00    -0.221 A  
HETATM   14  C   UNL     1      -9.834  12.626  68.148  1.00  0.00    -0.226 A  
HETATM   15  C   UNL     1     -10.999  12.028  67.665  1.00  0.00    -0.287 A  
HETATM   16  C   UNL     1     -11.861  12.785  66.859  1.00  0.00    -0.440 A  
HETATM   17  C   UNL     1     -11.592  14.141  66.605  1.00  0.00    -0.399 A  
BRANCH  15  18
HETATM   18  C   UNL     1     -11.338  10.617  68.087  1.00  0.00    -0.354 C  
BRANCH  18  19
HETATM   19  C   UNL     1     -10.174   9.647  67.851  1.00  0.00    -0.198 C  
HETATM   20  S   UNL     1     -10.227   8.149  68.903  1.00  0.00    -0.209 SA 
HETATM   21  C   UNL     1      -9.967   7.083  67.553  1.00  0.00    -0.156 C  
HETATM   22  N   UNL     1     -10.117   7.758  66.391  1.00  0.00    -0.481 N  
HETATM   23  O   UNL     1      -9.660   5.910  67.658  1.00  0.00    -0.110 OA 
HETATM   24  C   UNL     1     -10.158   9.119  66.433  1.00  0.00    -0.274 C  
HETATM   25  H   UNL     1     -10.199   7.260  65.505  1.00  0.00     0.000 HD 
HETATM   26  O   UNL     1     -10.114   9.818  65.429  1.00  0.00    -0.305 OA 
ENDBRANCH  18  19
ENDBRANCH  15  18
ENDBRANCH  11  12
ENDBRANCH  10  11
ENDBRANCH   9  10
ENDBRANCH   6   9
ENDBRANCH   2   3
TORSDOF 7
ENDMDL
MODEL      125
REMARK 921   NORMALIZED FREE ENERGY PREDICTED BY IDOCK:   -4.73 KCAL/MOL
REMARK 922        TOTAL FREE ENERGY PREDICTED BY IDOCK:   -7.80 KCAL/MOL
REMARK 923 INTER-LIGAND FREE ENERGY PREDICTED BY IDOCK:   -6.60 KCAL/MOL
REMARK 924 INTRA-LIGAND FREE ENERGY PREDICTED BY IDOCK:   -1.21 KCAL/MOL
REMARK 927      BINDING AFFINITY PREDICTED BY RF-SCORE:    0.00 PKD
ROOT
HETATM    1  C   UNL     1     -14.323   8.210  71.581  1.00  0.00    -0.570 C  
HETATM    2  C   UNL     1     -13.005   8.765  72.100  1.00  0.00    -0.457 C  
ENDROOT
BRANCH   2   3
HETATM    3  C   UNL     1     -11.873   7.802  71.886  1.00  0.00    -0.338 A  
HETATM    4  C   UNL     1     -10.635   8.019  72.470  1.00  0.00    -0.329 A  
HETATM    5  N   UNL     1      -9.567   7.214  72.293  1.00  0.00    -0.142 NA 
HETATM    6  C   UNL     1      -9.708   6.118  71.504  1.00  0.00    -0.162 A  
HETATM    7  C   UNL     1     -10.909   5.826  70.869  1.00  0.00    -0.326 A  
HETATM    8  C   UNL     1     -11.999   6.679  71.066  1.00  0.00    -0.415 A  
BRANCH   6   9
HETATM    9  C   UNL     1      -8.482   5.244  71.313  1.00  0.00    -0.124 C  
BRANCH   9  10
HETATM   10  C   UNL     1      -8.361   4.856  69.841  1.00  0.00    -0.079 C  
BRANCH  10  11
HETATM   11  O   UNL     1      -7.562   5.755  69.062  1.00  0.00    -0.085 OA 
BRANCH  11  12
HETATM   12  C   UNL     1      -8.286   6.827  68.568  1.00  0.00    -0.120 A  
HETATM   13  C   UNL     1      -7.918   8.168  68.711  1.00  0.00    -0.115 A  
HETATM   14  C   UNL     1      -8.665   9.186  68.125  1.00  0.00    -0.129 A  
HETATM   15  C   UNL     1      -9.794   8.885  67.361  1.00  0.00    -0.247 A  
HETATM   16  C   UNL     1     -10.204   7.548  67.263  1.00  0.00    -0.337 A  
HETATM   17  C   UNL     1      -9.449   6.525  67.861  1.00  0.00    -0.120 A  
BRANCH  15  18
HETATM   18  C   UNL     1     -10.492   9.990  66.602  1.00  0.00    -0.244 C  
BRANCH  18  19
HETATM   19  C   UNL     1     -10.320  11.356  67.277  1.00  0.00    -0.198 C  
HETATM   20  S   UNL     1     -10.020  12.732  66.109  1.00  0.00    -0.266 SA 
HETATM   21  C   UNL     1     -11.237  13.737  66.839  1.00  0.00    -0.313 C  
HETATM   22  N   UNL     1     -11.996  13.006  67.687  1.00  0.00    -0.337 N  
HETATM   23  O   UNL     1     -11.354  14.931  66.631  1.00  0.00    -0.349 OA 
HETATM   24  C   UNL     1     -11.559  11.766  68.043  1.00  0.00    -0.316 C  
HETATM   25  H   UNL     1     -12.875  13.374  68.051  1.00  0.00     0.000 HD 
HETATM   26  O   UNL     1     -12.079  11.106  68.933  1.00  0.00    -0.475 OA 
ENDBRANCH  18  19
ENDBRANCH  15  18
ENDBRANCH  11  12
ENDBRANCH  10  11
ENDBRANCH   9  10
ENDBRANCH   6   9
ENDBRANCH   2   3
TORSDOF 7
ENDMDL
MODEL      126
REMARK 921   NORMALIZED FREE ENERGY PREDICTED BY IDOCK:   -4.72 KCAL/MOL
REMARK 922        TOTAL FREE ENERGY PREDICTED BY IDOCK:   -7.80 KCAL/MOL
REMARK 923 INTER-LIGAND FREE ENERGY PREDICTED BY IDOCK:   -6.69 KCAL/MOL
REMARK 924 INTRA-LIGAND FREE ENERGY PREDICTED BY IDOCK:   -1.10 KCAL/MOL
REMARK 927      BINDING AFFINITY PREDICTED BY RF-SCORE:    0.00 PKD
ROOT
HETATM    1  C   UNL     1     -10.461   4.637  73.273  1.00  0.00    -0.260 C  
HETATM    2  C   UNL     1     -10.674   6.107  72.943  1.00  0.00    -0.274 C  
ENDROOT
BRANCH   2   3
HETATM    3  C   UNL     1     -10.749   6.340  71.462  1.00  0.00    -0.292 A  
HETATM    4  C   UNL     1     -10.497   5.313  70.567  1.00  0.00    -0.242 A  
HETATM    5  N   UNL     1     -10.513   5.460  69.227  1.00  0.00    -0.258 NA 
HETATM    6  C   UNL     1     -10.804   6.684  68.715  1.00  0.00    -0.267 A  
HETATM    7  C   UNL     1     -11.061   7.775  69.536  1.00  0.00    -0.006 A  
HETATM    8  C   UNL     1     -11.033   7.596  70.922  1.00  0.00    -0.261 A  
BRANCH   6   9
HETATM    9  C   UNL     1     -10.798   6.819  67.203  1.00  0.00    -0.462 C  
BRANCH   9  10
HETATM   10  C   UNL     1      -9.540   7.565  66.766  1.00  0.00    -0.206 C  
BRANCH  10  11
HETATM   11  O   UNL     1      -9.799   8.786  66.060  1.00  0.00    -0.258 OA 
BRANCH  11  12
HETATM   12  C   UNL     1      -9.928   9.876  66.902  1.00  0.00    -0.212 A  
HETATM   13  C   UNL     1      -8.928  10.338  67.763  1.00  0.00    -0.135 A  
HETATM   14  C   UNL     1      -9.111  11.486  68.531  1.00  0.00    -0.157 A  
HETATM   15  C   UNL     1     -10.298  12.215  68.440  1.00  0.00    -0.236 A  
HETATM   16  C   UNL     1     -11.329  11.726  67.624  1.00  0.00    -0.370 A  
HETATM   17  C   UNL     1     -11.140  10.564  66.856  1.00  0.00    -0.124 A  
BRANCH  15  18
HETATM   18  C   UNL     1     -10.411  13.542  69.155  1.00  0.00     0.068 C  
BRANCH  18  19
HETATM   19  C   UNL     1     -11.869  13.966  69.363  1.00  0.00    -0.334 C  
HETATM   20  S   UNL     1     -12.528  13.580  71.027  1.00  0.00    -0.319 SA 
HETATM   21  C   UNL     1     -13.164  15.183  71.246  1.00  0.00    -0.464 C  
HETATM   22  N   UNL     1     -12.678  16.011  70.294  1.00  0.00    -0.597 N  
HETATM   23  O   UNL     1     -13.958  15.491  72.116  1.00  0.00    -0.494 OA 
HETATM   24  C   UNL     1     -12.047  15.462  69.218  1.00  0.00    -0.255 C  
HETATM   25  H   UNL     1     -12.780  17.023  70.379  1.00  0.00     0.000 HD 
HETATM   26  O   UNL     1     -11.732  16.109  68.228  1.00  0.00    -0.281 OA 
ENDBRANCH  18  19
ENDBRANCH  15  18
ENDBRANCH  11  12
ENDBRANCH  10  11
ENDBRANCH   9  10
ENDBRANCH   6   9
ENDBRANCH   2   3
TORSDOF 7
ENDMDL
MODEL      127
REMARK 921   NORMALIZED FREE ENERGY PREDICTED BY IDOCK:   -4.71 KCAL/MOL
REMARK 922        TOTAL FREE ENERGY PREDICTED BY IDOCK:   -7.79 KCAL/MOL
REMARK 923 INTER-LIGAND FREE ENERGY PREDICTED BY IDOCK:   -7.14 KCAL/MOL
REMARK 924 INTRA-LIGAND FREE ENERGY PREDICTED BY IDOCK:   -0.64 KCAL/MOL
REMARK 927      BINDING AFFINITY PREDICTED BY RF-SCORE:    0.00 PKD
ROOT
HETATM    1  C   UNL     1      -6.471  21.264  67.377  1.00  0.00    -0.416 C  
HETATM    2  C   UNL     1      -6.867  20.003  66.624  1.00  0.00    -0.245 C  
ENDROOT
BRANCH   2   3
HETATM    3  C   UNL     1      -7.880  19.196  67.384  1.00  0.00    -0.267 A  
HETATM    4  C   UNL     1      -7.756  17.820  67.491  1.00  0.00    -0.206 A  
HETATM    5  N   UNL     1      -8.645  17.031  68.128  1.00  0.00    -0.221 NA 
HETATM    6  C   UNL     1      -9.725  17.614  68.712  1.00  0.00    -0.311 A  
HETATM    7  C   UNL     1      -9.935  18.985  68.647  1.00  0.00    -0.482 A  
HETATM    8  C   UNL     1      -9.001  19.780  67.977  1.00  0.00    -0.376 A  
BRANCH   6   9
HETATM    9  C   UNL     1     -10.713  16.696  69.407  1.00  0.00    -0.331 C  
BRANCH   9  10
HETATM   10  C   UNL     1     -11.527  15.941  68.358  1.00  0.00    -0.348 C  
BRANCH  10  11
HETATM   11  O   UNL     1     -11.794  14.574  68.696  1.00  0.00    -0.319 OA 
BRANCH  11  12
HETATM   12  C   UNL     1     -11.339  13.685  67.737  1.00  0.00    -0.306 A  
HETATM   13  C   UNL     1     -10.058  13.128  67.715  1.00  0.00    -0.226 A  
HETATM   14  C   UNL     1      -9.698  12.186  66.754  1.00  0.00    -0.215 A  
HETATM   15  C   UNL     1     -10.623  11.763  65.798  1.00  0.00    -0.312 A  
HETATM   16  C   UNL     1     -11.891  12.360  65.776  1.00  0.00    -0.467 A  
HETATM   17  C   UNL     1     -12.247  13.314  66.746  1.00  0.00    -0.340 A  
BRANCH  15  18
HETATM   18  C   UNL     1     -10.263  10.625  64.871  1.00  0.00    -0.395 C  
BRANCH  18  19
HETATM   19  C   UNL     1      -9.126   9.760  65.428  1.00  0.00    -0.204 C  
HETATM   20  S   UNL     1      -9.679   8.455  66.585  1.00  0.00    -0.267 SA 
HETATM   21  C   UNL     1      -8.764   7.220  65.771  1.00  0.00    -0.109 C  
HETATM   22  N   UNL     1      -8.321   7.679  64.579  1.00  0.00    -0.358 N  
HETATM   23  O   UNL     1      -8.537   6.119  66.238  1.00  0.00    -0.125 OA 
HETATM   24  C   UNL     1      -8.394   9.017  64.332  1.00  0.00    -0.176 C  
HETATM   25  H   UNL     1      -7.941   7.039  63.882  1.00  0.00     0.000 HD 
HETATM   26  O   UNL     1      -7.863   9.546  63.364  1.00  0.00    -0.121 OA 
ENDBRANCH  18  19
ENDBRANCH  15  18
ENDBRANCH  11  12
ENDBRANCH  10  11
ENDBRANCH   9  10
ENDBRANCH   6   9
ENDBRANCH   2   3
TORSDOF 7
ENDMDL
MODEL      128
REMARK 921   NORMALIZED FREE ENERGY PREDICTED BY IDOCK:   -4.71 KCAL/MOL
REMARK 922        TOTAL FREE ENERGY PREDICTED BY IDOCK:   -7.79 KCAL/MOL
REMARK 923 INTER-LIGAND FREE ENERGY PREDICTED BY IDOCK:   -6.87 KCAL/MOL
REMARK 924 INTRA-LIGAND FREE ENERGY PREDICTED BY IDOCK:   -0.91 KCAL/MOL
REMARK 927      BINDING AFFINITY PREDICTED BY RF-SCORE:    0.00 PKD
ROOT
HETATM    1  C   UNL     1     -12.596  13.511  71.167  1.00  0.00    -0.438 C  
HETATM    2  C   UNL     1     -12.694  12.012  71.410  1.00  0.00    -0.380 C  
ENDROOT
BRANCH   2   3
HETATM    3  C   UNL     1     -11.998  11.228  70.335  1.00  0.00    -0.471 A  
HETATM    4  C   UNL     1     -12.265  11.465  68.996  1.00  0.00    -0.134 A  
HETATM    5  N   UNL     1     -11.702  10.776  67.982  1.00  0.00    -0.531 NA 
HETATM    6  C   UNL     1     -10.812   9.795  68.283  1.00  0.00    -0.210 A  
HETATM    7  C   UNL     1     -10.491   9.481  69.597  1.00  0.00    -0.239 A  
HETATM    8  C   UNL     1     -11.091  10.207  70.630  1.00  0.00    -0.397 A  
BRANCH   6   9
HETATM    9  C   UNL     1     -10.211   9.029  67.119  1.00  0.00    -0.334 C  
BRANCH   9  10
HETATM   10  C   UNL     1      -8.789   9.528  66.866  1.00  0.00    -0.127 C  
BRANCH  10  11
HETATM   11  O   UNL     1      -8.709  10.626  65.948  1.00  0.00    -0.164 OA 
BRANCH  11  12
HETATM   12  C   UNL     1      -8.730  11.857  66.581  1.00  0.00    -0.185 A  
HETATM   13  C   UNL     1      -7.883  12.226  67.629  1.00  0.00    -0.156 A  
HETATM   14  C   UNL     1      -7.919  13.510  68.169  1.00  0.00    -0.149 A  
HETATM   15  C   UNL     1      -8.797  14.467  67.656  1.00  0.00    -0.193 A  
HETATM   16  C   UNL     1      -9.691  14.088  66.644  1.00  0.00    -0.296 A  
HETATM   17  C   UNL     1      -9.653  12.789  66.108  1.00  0.00    -0.214 A  
BRANCH  15  18
HETATM   18  C   UNL     1      -8.705  15.894  68.144  1.00  0.00    -0.171 C  
BRANCH  18  19
HETATM   19  C   UNL     1      -9.025  16.907  67.038  1.00  0.00    -0.215 C  
HETATM   20  S   UNL     1     -10.379  18.065  67.456  1.00  0.00    -0.396 SA 
HETATM   21  C   UNL     1      -9.459  19.458  66.969  1.00  0.00    -0.323 C  
HETATM   22  N   UNL     1      -8.163  19.120  66.787  1.00  0.00    -0.269 N  
HETATM   23  O   UNL     1      -9.936  20.564  66.790  1.00  0.00    -0.433 OA 
HETATM   24  C   UNL     1      -7.841  17.797  66.729  1.00  0.00    -0.233 C  
HETATM   25  H   UNL     1      -7.443  19.837  66.696  1.00  0.00     0.000 HD 
HETATM   26  O   UNL     1      -6.734  17.395  66.394  1.00  0.00    -0.215 OA 
ENDBRANCH  18  19
ENDBRANCH  15  18
ENDBRANCH  11  12
ENDBRANCH  10  11
ENDBRANCH   9  10
ENDBRANCH   6   9
ENDBRANCH   2   3
TORSDOF 7
ENDMDL
MODEL      129
REMARK 921   NORMALIZED FREE ENERGY PREDICTED BY IDOCK:   -4.71 KCAL/MOL
REMARK 922        TOTAL FREE ENERGY PREDICTED BY IDOCK:   -7.78 KCAL/MOL
REMARK 923 INTER-LIGAND FREE ENERGY PREDICTED BY IDOCK:   -6.99 KCAL/MOL
REMARK 924 INTRA-LIGAND FREE ENERGY PREDICTED BY IDOCK:   -0.79 KCAL/MOL
REMARK 927      BINDING AFFINITY PREDICTED BY RF-SCORE:    0.00 PKD
ROOT
HETATM    1  C   UNL     1      -5.401   5.624  70.946  1.00  0.00    -0.009 C  
HETATM    2  C   UNL     1      -6.684   4.808  70.903  1.00  0.00    -0.032 C  
ENDROOT
BRANCH   2   3
HETATM    3  C   UNL     1      -7.864   5.601  71.387  1.00  0.00    -0.111 A  
HETATM    4  C   UNL     1      -8.351   5.436  72.674  1.00  0.00    -0.114 A  
HETATM    5  N   UNL     1      -9.425   6.089  73.163  1.00  0.00    -0.143 NA 
HETATM    6  C   UNL     1     -10.069   6.970  72.354  1.00  0.00    -0.174 A  
HETATM    7  C   UNL     1      -9.657   7.192  71.046  1.00  0.00    -0.158 A  
HETATM    8  C   UNL     1      -8.544   6.499  70.563  1.00  0.00    -0.143 A  
BRANCH   6   9
HETATM    9  C   UNL     1     -11.283   7.675  72.930  1.00  0.00    -0.426 C  
BRANCH   9  10
HETATM   10  C   UNL     1     -12.228   8.064  71.795  1.00  0.00    -0.316 C  
BRANCH  10  11
HETATM   11  O   UNL     1     -13.096   9.162  72.107  1.00  0.00    -0.383 OA 
BRANCH  11  12
HETATM   12  C   UNL     1     -12.700  10.346  71.510  1.00  0.00    -0.459 A  
HETATM   13  C   UNL     1     -11.848  10.433  70.405  1.00  0.00    -0.418 A  
HETATM   14  C   UNL     1     -11.551  11.661  69.819  1.00  0.00    -0.389 A  
HETATM   15  C   UNL     1     -12.118  12.836  70.315  1.00  0.00    -0.373 A  
HETATM   16  C   UNL     1     -12.925  12.765  71.459  1.00  0.00    -0.388 A  
HETATM   17  C   UNL     1     -13.217  11.523  72.049  1.00  0.00    -0.443 A  
BRANCH  15  18
HETATM   18  C   UNL     1     -11.912  14.133  69.565  1.00  0.00    -0.389 C  
BRANCH  18  19
HETATM   19  C   UNL     1     -11.030  13.951  68.324  1.00  0.00    -0.255 C  
HETATM   20  S   UNL     1     -11.940  14.069  66.740  1.00  0.00    -0.445 SA 
HETATM   21  C   UNL     1     -10.791  15.183  66.060  1.00  0.00    -0.335 C  
HETATM   22  N   UNL     1      -9.967  15.649  67.025  1.00  0.00    -0.237 N  
HETATM   23  O   UNL     1     -10.730  15.466  64.877  1.00  0.00    -0.420 OA 
HETATM   24  C   UNL     1      -9.960  15.017  68.232  1.00  0.00    -0.225 C  
HETATM   25  H   UNL     1      -9.364  16.454  66.855  1.00  0.00     0.000 HD 
HETATM   26  O   UNL     1      -9.131  15.250  69.102  1.00  0.00    -0.209 OA 
ENDBRANCH  18  19
ENDBRANCH  15  18
ENDBRANCH  11  12
ENDBRANCH  10  11
ENDBRANCH   9  10
ENDBRANCH   6   9
ENDBRANCH   2   3
TORSDOF 7
ENDMDL
MODEL      130
REMARK 921   NORMALIZED FREE ENERGY PREDICTED BY IDOCK:   -4.71 KCAL/MOL
REMARK 922        TOTAL FREE ENERGY PREDICTED BY IDOCK:   -7.78 KCAL/MOL
REMARK 923 INTER-LIGAND FREE ENERGY PREDICTED BY IDOCK:   -7.02 KCAL/MOL
REMARK 924 INTRA-LIGAND FREE ENERGY PREDICTED BY IDOCK:   -0.76 KCAL/MOL
REMARK 927      BINDING AFFINITY PREDICTED BY RF-SCORE:    0.00 PKD
ROOT
HETATM    1  C   UNL     1      -6.461   4.269  70.923  1.00  0.00    -0.030 C  
HETATM    2  C   UNL     1      -6.250   5.554  71.710  1.00  0.00    -0.038 C  
ENDROOT
BRANCH   2   3
HETATM    3  C   UNL     1      -7.516   6.354  71.818  1.00  0.00    -0.093 A  
HETATM    4  C   UNL     1      -7.476   7.725  72.010  1.00  0.00    -0.076 A  
HETATM    5  N   UNL     1      -8.573   8.499  72.149  1.00  0.00    -0.274 NA 
HETATM    6  C   UNL     1      -9.793   7.907  72.090  1.00  0.00    -0.205 A  
HETATM    7  C   UNL     1      -9.930   6.536  71.911  1.00  0.00    -0.192 A  
HETATM    8  C   UNL     1      -8.778   5.756  71.774  1.00  0.00    -0.136 A  
BRANCH   6   9
HETATM    9  C   UNL     1     -11.004   8.804  72.267  1.00  0.00    -0.336 C  
BRANCH   9  10
HETATM   10  C   UNL     1     -11.823   8.809  70.977  1.00  0.00    -0.271 C  
BRANCH  10  11
HETATM   11  O   UNL     1     -11.034   8.892  69.783  1.00  0.00    -0.230 OA 
BRANCH  11  12
HETATM   12  C   UNL     1     -10.877  10.192  69.333  1.00  0.00    -0.241 A  
HETATM   13  C   UNL     1      -9.686  10.718  68.825  1.00  0.00    -0.197 A  
HETATM   14  C   UNL     1      -9.627  12.018  68.327  1.00  0.00    -0.204 A  
HETATM   15  C   UNL     1     -10.770  12.820  68.308  1.00  0.00    -0.257 A  
HETATM   16  C   UNL     1     -11.953  12.321  68.871  1.00  0.00    -0.300 A  
HETATM   17  C   UNL     1     -12.005  11.010  69.376  1.00  0.00    -0.408 A  
BRANCH  15  18
HETATM   18  C   UNL     1     -10.722  14.163  67.616  1.00  0.00    -0.260 C  
BRANCH  18  19
HETATM   19  C   UNL     1     -10.506  14.028  66.104  1.00  0.00    -0.297 C  
HETATM   20  S   UNL     1     -11.759  12.992  65.262  1.00  0.00    -0.376 SA 
HETATM   21  C   UNL     1     -12.039  14.179  64.023  1.00  0.00    -0.348 C  
HETATM   22  N   UNL     1     -11.467  15.355  64.367  1.00  0.00    -0.697 N  
HETATM   23  O   UNL     1     -12.636  13.957  62.985  1.00  0.00    -0.694 OA 
HETATM   24  C   UNL     1     -10.582  15.367  65.403  1.00  0.00    -0.410 C  
HETATM   25  H   UNL     1     -11.693  16.213  63.864  1.00  0.00     0.000 HD 
HETATM   26  O   UNL     1      -9.886  16.337  65.674  1.00  0.00    -0.450 OA 
ENDBRANCH  18  19
ENDBRANCH  15  18
ENDBRANCH  11  12
ENDBRANCH  10  11
ENDBRANCH   9  10
ENDBRANCH   6   9
ENDBRANCH   2   3
TORSDOF 7
ENDMDL
MODEL      131
REMARK 921   NORMALIZED FREE ENERGY PREDICTED BY IDOCK:   -4.71 KCAL/MOL
REMARK 922        TOTAL FREE ENERGY PREDICTED BY IDOCK:   -7.78 KCAL/MOL
REMARK 923 INTER-LIGAND FREE ENERGY PREDICTED BY IDOCK:   -7.47 KCAL/MOL
REMARK 924 INTRA-LIGAND FREE ENERGY PREDICTED BY IDOCK:   -0.30 KCAL/MOL
REMARK 927      BINDING AFFINITY PREDICTED BY RF-SCORE:    0.00 PKD
ROOT
HETATM    1  C   UNL     1      -9.515  19.221  67.326  1.00  0.00    -0.380 C  
HETATM    2  C   UNL     1      -8.696  17.988  66.973  1.00  0.00    -0.253 C  
ENDROOT
BRANCH   2   3
HETATM    3  C   UNL     1      -9.543  16.749  66.938  1.00  0.00    -0.253 A  
HETATM    4  C   UNL     1     -10.114  16.245  68.096  1.00  0.00    -0.244 A  
HETATM    5  N   UNL     1     -10.857  15.120  68.143  1.00  0.00    -0.258 NA 
HETATM    6  C   UNL     1     -11.071  14.439  66.987  1.00  0.00    -0.313 A  
HETATM    7  C   UNL     1     -10.530  14.864  65.780  1.00  0.00    -0.345 A  
HETATM    8  C   UNL     1      -9.760  16.031  65.761  1.00  0.00    -0.340 A  
BRANCH   6   9
HETATM    9  C   UNL     1     -11.897  13.169  67.078  1.00  0.00    -0.435 C  
BRANCH   9  10
HETATM   10  C   UNL     1     -11.767  12.580  68.481  1.00  0.00    -0.324 C  
BRANCH  10  11
HETATM   11  O   UNL     1     -12.453  11.334  68.658  1.00  0.00    -0.442 OA 
BRANCH  11  12
HETATM   12  C   UNL     1     -11.995  10.619  69.751  1.00  0.00    -0.291 A  
HETATM   13  C   UNL     1     -12.758  10.326  70.885  1.00  0.00    -0.462 A  
HETATM   14  C   UNL     1     -12.246   9.542  71.916  1.00  0.00    -0.432 A  
HETATM   15  C   UNL     1     -10.958   9.013  71.828  1.00  0.00    -0.443 A  
HETATM   16  C   UNL     1     -10.164   9.350  70.722  1.00  0.00    -0.368 A  
HETATM   17  C   UNL     1     -10.685  10.147  69.688  1.00  0.00    -0.295 A  
BRANCH  15  18
HETATM   18  C   UNL     1     -10.485   8.034  72.878  1.00  0.00    -0.402 C  
BRANCH  18  19
HETATM   19  C   UNL     1     -10.349   6.610  72.323  1.00  0.00    -0.197 C  
HETATM   20  S   UNL     1     -11.493   6.235  70.945  1.00  0.00    -0.259 SA 
HETATM   21  C   UNL     1     -10.224   5.580  69.952  1.00  0.00    -0.268 C  
HETATM   22  N   UNL     1      -9.017   5.880  70.482  1.00  0.00    -0.143 N  
HETATM   23  O   UNL     1     -10.414   4.920  68.946  1.00  0.00    -0.085 OA 
HETATM   24  C   UNL     1      -8.969   6.355  71.758  1.00  0.00    -0.139 C  
HETATM   25  H   UNL     1      -8.162   5.753  69.940  1.00  0.00     0.000 HD 
HETATM   26  O   UNL     1      -7.924   6.487  72.381  1.00  0.00    -0.101 OA 
ENDBRANCH  18  19
ENDBRANCH  15  18
ENDBRANCH  11  12
ENDBRANCH  10  11
ENDBRANCH   9  10
ENDBRANCH   6   9
ENDBRANCH   2   3
TORSDOF 7
ENDMDL
MODEL      132
REMARK 921   NORMALIZED FREE ENERGY PREDICTED BY IDOCK:   -4.69 KCAL/MOL
REMARK 922        TOTAL FREE ENERGY PREDICTED BY IDOCK:   -7.76 KCAL/MOL
REMARK 923 INTER-LIGAND FREE ENERGY PREDICTED BY IDOCK:   -7.27 KCAL/MOL
REMARK 924 INTRA-LIGAND FREE ENERGY PREDICTED BY IDOCK:   -0.49 KCAL/MOL
REMARK 927      BINDING AFFINITY PREDICTED BY RF-SCORE:    0.00 PKD
ROOT
HETATM    1  C   UNL     1     -11.516   6.793  72.328  1.00  0.00    -0.314 C  
HETATM    2  C   UNL     1     -11.310   8.290  72.512  1.00  0.00    -0.455 C  
ENDROOT
BRANCH   2   3
HETATM    3  C   UNL     1     -11.262   9.010  71.196  1.00  0.00    -0.375 A  
HETATM    4  C   UNL     1     -11.957  10.194  71.007  1.00  0.00    -0.378 A  
HETATM    5  N   UNL     1     -11.985  10.874  69.843  1.00  0.00    -0.325 NA 
HETATM    6  C   UNL     1     -11.284  10.381  68.789  1.00  0.00    -0.241 A  
HETATM    7  C   UNL     1     -10.566   9.196  68.883  1.00  0.00    -0.214 A  
HETATM    8  C   UNL     1     -10.557   8.508  70.100  1.00  0.00    -0.238 A  
BRANCH   6   9
HETATM    9  C   UNL     1     -11.350  11.163  67.490  1.00  0.00    -0.351 C  
BRANCH   9  10
HETATM   10  C   UNL     1     -10.786  12.564  67.714  1.00  0.00    -0.219 C  
BRANCH  10  11
HETATM   11  O   UNL     1      -9.479  12.582  68.302  1.00  0.00    -0.210 OA 
BRANCH  11  12
HETATM   12  C   UNL     1      -8.997  13.864  68.501  1.00  0.00    -0.141 A  
HETATM   13  C   UNL     1      -7.685  14.270  68.238  1.00  0.00    -0.136 A  
HETATM   14  C   UNL     1      -7.295  15.597  68.400  1.00  0.00    -0.116 A  
HETATM   15  C   UNL     1      -8.218  16.559  68.814  1.00  0.00    -0.248 A  
HETATM   16  C   UNL     1      -9.519  16.151  69.138  1.00  0.00    -0.251 A  
HETATM   17  C   UNL     1      -9.906  14.809  68.977  1.00  0.00    -0.206 A  
BRANCH  15  18
HETATM   18  C   UNL     1      -7.815  18.016  68.825  1.00  0.00    -0.267 C  
BRANCH  18  19
HETATM   19  C   UNL     1      -8.472  18.808  67.688  1.00  0.00    -0.272 C  
HETATM   20  S   UNL     1      -8.694  17.850  66.144  1.00  0.00    -0.006 SA 
HETATM   21  C   UNL     1     -10.359  18.326  65.982  1.00  0.00    -0.363 C  
HETATM   22  N   UNL     1     -10.790  18.906  67.124  1.00  0.00    -0.420 N  
HETATM   23  O   UNL     1     -11.015  18.180  64.967  1.00  0.00    -0.726 OA 
HETATM   24  C   UNL     1      -9.865  19.271  68.055  1.00  0.00    -0.365 C  
HETATM   25  H   UNL     1     -11.785  19.067  67.285  1.00  0.00     0.000 HD 
HETATM   26  O   UNL     1     -10.137  19.955  69.033  1.00  0.00    -0.434 OA 
ENDBRANCH  18  19
ENDBRANCH  15  18
ENDBRANCH  11  12
ENDBRANCH  10  11
ENDBRANCH   9  10
ENDBRANCH   6   9
ENDBRANCH   2   3
TORSDOF 7
ENDMDL
MODEL      133
REMARK 921   NORMALIZED FREE ENERGY PREDICTED BY IDOCK:   -4.69 KCAL/MOL
REMARK 922        TOTAL FREE ENERGY PREDICTED BY IDOCK:   -7.76 KCAL/MOL
REMARK 923 INTER-LIGAND FREE ENERGY PREDICTED BY IDOCK:   -6.93 KCAL/MOL
REMARK 924 INTRA-LIGAND FREE ENERGY PREDICTED BY IDOCK:   -0.83 KCAL/MOL
REMARK 927      BINDING AFFINITY PREDICTED BY RF-SCORE:    0.00 PKD
ROOT
HETATM    1  C   UNL     1      -9.802   9.727  65.281  1.00  0.00    -0.335 C  
HETATM    2  C   UNL     1      -9.367   9.105  66.599  1.00  0.00    -0.228 C  
ENDROOT
BRANCH   2   3
HETATM    3  C   UNL     1     -10.310   9.450  67.716  1.00  0.00    -0.291 A  
HETATM    4  C   UNL     1     -11.239  10.469  67.572  1.00  0.00    -0.224 A  
HETATM    5  N   UNL     1     -12.091  10.853  68.544  1.00  0.00    -0.519 NA 
HETATM    6  C   UNL     1     -12.050  10.202  69.735  1.00  0.00     0.022 A  
HETATM    7  C   UNL     1     -11.145   9.175  69.972  1.00  0.00    -0.208 A  
HETATM    8  C   UNL     1     -10.269   8.798  68.950  1.00  0.00    -0.221 A  
BRANCH   6   9
HETATM    9  C   UNL     1     -13.011  10.670  70.811  1.00  0.00    -0.396 C  
BRANCH   9  10
HETATM   10  C   UNL     1     -12.425  11.891  71.518  1.00  0.00    -0.080 C  
BRANCH  10  11
HETATM   11  O   UNL     1     -13.197  13.087  71.358  1.00  0.00    -0.300 OA 
BRANCH  11  12
HETATM   12  C   UNL     1     -12.496  14.098  70.724  1.00  0.00    -0.366 A  
HETATM   13  C   UNL     1     -11.746  15.078  71.380  1.00  0.00    -0.409 A  
HETATM   14  C   UNL     1     -11.012  16.022  70.666  1.00  0.00    -0.273 A  
HETATM   15  C   UNL     1     -10.995  15.997  69.271  1.00  0.00    -0.306 A  
HETATM   16  C   UNL     1     -11.792  15.055  68.604  1.00  0.00    -0.325 A  
HETATM   17  C   UNL     1     -12.535  14.108  69.330  1.00  0.00    -0.114 A  
BRANCH  15  18
HETATM   18  C   UNL     1     -10.065  16.925  68.523  1.00  0.00    -0.297 C  
BRANCH  18  19
HETATM   19  C   UNL     1      -8.961  16.163  67.780  1.00  0.00    -0.192 C  
HETATM   20  S   UNL     1      -8.430  14.621  68.611  1.00  0.00    -0.159 SA 
HETATM   21  C   UNL     1      -8.560  13.684  67.151  1.00  0.00    -0.192 C  
HETATM   22  N   UNL     1      -9.216  14.389  66.203  1.00  0.00    -0.510 N  
HETATM   23  O   UNL     1      -8.092  12.569  67.011  1.00  0.00    -0.169 OA 
HETATM   24  C   UNL     1      -9.409  15.722  66.403  1.00  0.00    -0.301 C  
HETATM   25  H   UNL     1      -9.559  13.933  65.357  1.00  0.00     0.000 HD 
HETATM   26  O   UNL     1      -9.831  16.473  65.533  1.00  0.00    -0.537 OA 
ENDBRANCH  18  19
ENDBRANCH  15  18
ENDBRANCH  11  12
ENDBRANCH  10  11
ENDBRANCH   9  10
ENDBRANCH   6   9
ENDBRANCH   2   3
TORSDOF 7
ENDMDL
MODEL      134
REMARK 921   NORMALIZED FREE ENERGY PREDICTED BY IDOCK:   -4.68 KCAL/MOL
REMARK 922        TOTAL FREE ENERGY PREDICTED BY IDOCK:   -7.74 KCAL/MOL
REMARK 923 INTER-LIGAND FREE ENERGY PREDICTED BY IDOCK:   -7.34 KCAL/MOL
REMARK 924 INTRA-LIGAND FREE ENERGY PREDICTED BY IDOCK:   -0.40 KCAL/MOL
REMARK 927      BINDING AFFINITY PREDICTED BY RF-SCORE:    0.00 PKD
ROOT
HETATM    1  C   UNL     1      -9.563   4.078  69.762  1.00  0.00    -0.280 C  
HETATM    2  C   UNL     1     -10.416   4.970  68.873  1.00  0.00    -0.061 C  
ENDROOT
BRANCH   2   3
HETATM    3  C   UNL     1     -10.624   6.327  69.483  1.00  0.00    -0.331 A  
HETATM    4  C   UNL     1     -11.655   6.552  70.380  1.00  0.00    -0.407 A  
HETATM    5  N   UNL     1     -11.920   7.751  70.938  1.00  0.00    -0.256 NA 
HETATM    6  C   UNL     1     -11.126   8.805  70.613  1.00  0.00    -0.246 A  
HETATM    7  C   UNL     1     -10.074   8.674  69.715  1.00  0.00    -0.199 A  
HETATM    8  C   UNL     1      -9.824   7.422  69.147  1.00  0.00    -0.168 A  
BRANCH   6   9
HETATM    9  C   UNL     1     -11.461  10.142  71.247  1.00  0.00    -0.327 C  
BRANCH   9  10
HETATM   10  C   UNL     1     -12.737  10.696  70.615  1.00  0.00    -0.359 C  
BRANCH  10  11
HETATM   11  O   UNL     1     -12.634  10.941  69.207  1.00  0.00    -0.356 OA 
BRANCH  11  12
HETATM   12  C   UNL     1     -11.722  11.935  68.900  1.00  0.00    -0.323 A  
HETATM   13  C   UNL     1     -11.854  13.277  69.269  1.00  0.00    -0.383 A  
HETATM   14  C   UNL     1     -10.856  14.205  68.980  1.00  0.00    -0.273 A  
HETATM   15  C   UNL     1      -9.687  13.807  68.330  1.00  0.00    -0.231 A  
HETATM   16  C   UNL     1      -9.572  12.476  67.903  1.00  0.00    -0.206 A  
HETATM   17  C   UNL     1     -10.585  11.545  68.193  1.00  0.00    -0.226 A  
BRANCH  15  18
HETATM   18  C   UNL     1      -8.552  14.793  68.174  1.00  0.00    -0.159 C  
BRANCH  18  19
HETATM   19  C   UNL     1      -8.663  15.605  66.878  1.00  0.00    -0.253 C  
HETATM   20  S   UNL     1      -9.833  14.904  65.657  1.00  0.00    -0.296 SA 
HETATM   21  C   UNL     1     -10.625  16.431  65.405  1.00  0.00    -0.320 C  
HETATM   22  N   UNL     1     -10.244  17.315  66.354  1.00  0.00    -0.326 N  
HETATM   23  O   UNL     1     -11.383  16.664  64.480  1.00  0.00    -0.877 OA 
HETATM   24  C   UNL     1      -9.169  17.008  67.132  1.00  0.00    -0.234 C  
HETATM   25  H   UNL     1     -10.749  18.192  66.485  1.00  0.00     0.000 HD 
HETATM   26  O   UNL     1      -8.644  17.811  67.892  1.00  0.00    -0.240 OA 
ENDBRANCH  18  19
ENDBRANCH  15  18
ENDBRANCH  11  12
ENDBRANCH  10  11
ENDBRANCH   9  10
ENDBRANCH   6   9
ENDBRANCH   2   3
TORSDOF 7
ENDMDL
MODEL      135
REMARK 921   NORMALIZED FREE ENERGY PREDICTED BY IDOCK:   -4.66 KCAL/MOL
REMARK 922        TOTAL FREE ENERGY PREDICTED BY IDOCK:   -7.71 KCAL/MOL
REMARK 923 INTER-LIGAND FREE ENERGY PREDICTED BY IDOCK:   -6.61 KCAL/MOL
REMARK 924 INTRA-LIGAND FREE ENERGY PREDICTED BY IDOCK:   -1.11 KCAL/MOL
REMARK 927      BINDING AFFINITY PREDICTED BY RF-SCORE:    0.00 PKD
ROOT
HETATM    1  C   UNL     1      -6.606  10.480  66.513  1.00  0.00    -0.100 C  
HETATM    2  C   UNL     1      -6.963   9.016  66.718  1.00  0.00    -0.081 C  
ENDROOT
BRANCH   2   3
HETATM    3  C   UNL     1      -7.947   8.834  67.838  1.00  0.00    -0.107 A  
HETATM    4  C   UNL     1      -9.041   7.996  67.693  1.00  0.00    -0.137 A  
HETATM    5  N   UNL     1      -9.980   7.813  68.644  1.00  0.00    -0.177 NA 
HETATM    6  C   UNL     1      -9.848   8.480  69.820  1.00  0.00    -0.186 A  
HETATM    7  C   UNL     1      -8.788   9.348  70.050  1.00  0.00    -0.231 A  
HETATM    8  C   UNL     1      -7.831   9.523  69.046  1.00  0.00    -0.077 A  
BRANCH   6   9
HETATM    9  C   UNL     1     -10.930   8.263  70.862  1.00  0.00    -0.275 C  
BRANCH   9  10
HETATM   10  C   UNL     1     -11.225   9.585  71.567  1.00  0.00    -0.367 C  
BRANCH  10  11
HETATM   11  O   UNL     1     -12.431  10.226  71.130  1.00  0.00    -0.324 OA 
BRANCH  11  12
HETATM   12  C   UNL     1     -12.197  11.265  70.246  1.00  0.00    -0.345 A  
HETATM   13  C   UNL     1     -11.923  11.104  68.885  1.00  0.00    -0.367 A  
HETATM   14  C   UNL     1     -11.766  12.204  68.046  1.00  0.00    -0.409 A  
HETATM   15  C   UNL     1     -11.901  13.500  68.548  1.00  0.00    -0.398 A  
HETATM   16  C   UNL     1     -12.117  13.672  69.923  1.00  0.00    -0.406 A  
HETATM   17  C   UNL     1     -12.268  12.557  70.765  1.00  0.00    -0.332 A  
BRANCH  15  18
HETATM   18  C   UNL     1     -11.890  14.670  67.591  1.00  0.00    -0.366 C  
BRANCH  18  19
HETATM   19  C   UNL     1     -10.470  15.046  67.151  1.00  0.00    -0.277 C  
HETATM   20  S   UNL     1      -9.214  14.892  68.474  1.00  0.00    -0.196 SA 
HETATM   21  C   UNL     1      -8.126  13.992  67.459  1.00  0.00    -0.186 C  
HETATM   22  N   UNL     1      -8.761  13.593  66.334  1.00  0.00    -0.426 N  
HETATM   23  O   UNL     1      -6.954  13.789  67.723  1.00  0.00    -0.139 OA 
HETATM   24  C   UNL     1      -9.969  14.149  66.040  1.00  0.00    -0.322 C  
HETATM   25  H   UNL     1      -8.345  12.892  65.720  1.00  0.00     0.000 HD 
HETATM   26  O   UNL     1     -10.534  13.986  64.967  1.00  0.00    -0.373 OA 
ENDBRANCH  18  19
ENDBRANCH  15  18
ENDBRANCH  11  12
ENDBRANCH  10  11
ENDBRANCH   9  10
ENDBRANCH   6   9
ENDBRANCH   2   3
TORSDOF 7
ENDMDL
MODEL      136
REMARK 921   NORMALIZED FREE ENERGY PREDICTED BY IDOCK:   -4.66 KCAL/MOL
REMARK 922        TOTAL FREE ENERGY PREDICTED BY IDOCK:   -7.71 KCAL/MOL
REMARK 923 INTER-LIGAND FREE ENERGY PREDICTED BY IDOCK:   -6.75 KCAL/MOL
REMARK 924 INTRA-LIGAND FREE ENERGY PREDICTED BY IDOCK:   -0.96 KCAL/MOL
REMARK 927      BINDING AFFINITY PREDICTED BY RF-SCORE:    0.00 PKD
ROOT
HETATM    1  C   UNL     1     -10.743   6.122  73.713  1.00  0.00    -0.188 C  
HETATM    2  C   UNL     1     -10.639   7.524  73.131  1.00  0.00    -0.442 C  
ENDROOT
BRANCH   2   3
HETATM    3  C   UNL     1     -10.582   7.500  71.630  1.00  0.00    -0.232 A  
HETATM    4  C   UNL     1     -11.336   6.592  70.905  1.00  0.00    -0.337 A  
HETATM    5  N   UNL     1     -11.307   6.493  69.560  1.00  0.00    -0.370 NA 
HETATM    6  C   UNL     1     -10.500   7.337  68.867  1.00  0.00    -0.206 A  
HETATM    7  C   UNL     1      -9.701   8.274  69.511  1.00  0.00    -0.174 A  
HETATM    8  C   UNL     1      -9.746   8.352  70.906  1.00  0.00    -0.212 A  
BRANCH   6   9
HETATM    9  C   UNL     1     -10.480   7.188  67.357  1.00  0.00    -0.354 C  
BRANCH   9  10
HETATM   10  C   UNL     1      -9.633   8.304  66.749  1.00  0.00    -0.224 C  
BRANCH  10  11
HETATM   11  O   UNL     1     -10.395   9.333  66.105  1.00  0.00    -0.229 OA 
BRANCH  11  12
HETATM   12  C   UNL     1     -10.230  10.574  66.696  1.00  0.00    -0.233 A  
HETATM   13  C   UNL     1      -9.145  11.424  66.467  1.00  0.00    -0.193 A  
HETATM   14  C   UNL     1      -9.085  12.689  67.048  1.00  0.00    -0.215 A  
HETATM   15  C   UNL     1     -10.125  13.142  67.862  1.00  0.00    -0.232 A  
HETATM   16  C   UNL     1     -11.188  12.273  68.145  1.00  0.00    -0.320 A  
HETATM   17  C   UNL     1     -11.240  10.996  67.559  1.00  0.00    -0.372 A  
BRANCH  15  18
HETATM   18  C   UNL     1     -10.116  14.574  68.347  1.00  0.00    -0.241 C  
BRANCH  18  19
HETATM   19  C   UNL     1      -9.231  15.475  67.478  1.00  0.00    -0.198 C  
HETATM   20  S   UNL     1     -10.144  16.393  66.183  1.00  0.00    -0.362 SA 
HETATM   21  C   UNL     1      -9.401  17.907  66.607  1.00  0.00    -0.286 C  
HETATM   22  N   UNL     1      -8.754  17.794  67.788  1.00  0.00    -0.238 N  
HETATM   23  O   UNL     1      -9.439  18.905  65.911  1.00  0.00    -0.458 OA 
HETATM   24  C   UNL     1      -8.544  16.547  68.296  1.00  0.00    -0.200 C  
HETATM   25  H   UNL     1      -8.432  18.622  68.289  1.00  0.00     0.000 HD 
HETATM   26  O   UNL     1      -7.821  16.333  69.260  1.00  0.00    -0.238 OA 
ENDBRANCH  18  19
ENDBRANCH  15  18
ENDBRANCH  11  12
ENDBRANCH  10  11
ENDBRANCH   9  10
ENDBRANCH   6   9
ENDBRANCH   2   3
TORSDOF 7
ENDMDL
MODEL      137
REMARK 921   NORMALIZED FREE ENERGY PREDICTED BY IDOCK:   -4.65 KCAL/MOL
REMARK 922        TOTAL FREE ENERGY PREDICTED BY IDOCK:   -7.70 KCAL/MOL
REMARK 923 INTER-LIGAND FREE ENERGY PREDICTED BY IDOCK:   -7.58 KCAL/MOL
REMARK 924 INTRA-LIGAND FREE ENERGY PREDICTED BY IDOCK:   -0.12 KCAL/MOL
REMARK 927      BINDING AFFINITY PREDICTED BY RF-SCORE:    0.00 PKD
ROOT
HETATM    1  C   UNL     1      -9.708   9.076  66.168  1.00  0.00    -0.354 C  
HETATM    2  C   UNL     1      -9.471   9.731  64.815  1.00  0.00    -0.318 C  
ENDROOT
BRANCH   2   3
HETATM    3  C   UNL     1      -9.831  11.189  64.832  1.00  0.00    -0.316 A  
HETATM    4  C   UNL     1     -10.261  11.829  63.680  1.00  0.00    -0.428 A  
HETATM    5  N   UNL     1     -10.568  13.141  63.617  1.00  0.00    -0.124 NA 
HETATM    6  C   UNL     1     -10.461  13.885  64.748  1.00  0.00    -0.429 A  
HETATM    7  C   UNL     1     -10.029  13.330  65.947  1.00  0.00    -0.280 A  
HETATM    8  C   UNL     1      -9.713  11.969  65.984  1.00  0.00    -0.256 A  
BRANCH   6   9
HETATM    9  C   UNL     1     -10.798  15.360  64.638  1.00  0.00    -0.281 C  
BRANCH   9  10
HETATM   10  C   UNL     1      -9.729  16.179  65.359  1.00  0.00     0.062 C  
BRANCH  10  11
HETATM   11  O   UNL     1     -10.235  16.993  66.425  1.00  0.00    -0.308 OA 
BRANCH  11  12
HETATM   12  C   UNL     1     -10.548  16.261  67.557  1.00  0.00    -0.310 A  
HETATM   13  C   UNL     1      -9.794  16.256  68.734  1.00  0.00    -0.238 A  
HETATM   14  C   UNL     1     -10.213  15.545  69.856  1.00  0.00    -0.305 A  
HETATM   15  C   UNL     1     -11.414  14.833  69.833  1.00  0.00    -0.322 A  
HETATM   16  C   UNL     1     -12.146  14.783  68.638  1.00  0.00    -0.223 A  
HETATM   17  C   UNL     1     -11.714  15.498  67.508  1.00  0.00    -0.006 A  
BRANCH  15  18
HETATM   18  C   UNL     1     -11.928  14.206  71.109  1.00  0.00    -0.316 C  
BRANCH  18  19
HETATM   19  C   UNL     1     -12.821  12.988  70.837  1.00  0.00    -0.143 C  
HETATM   20  S   UNL     1     -11.915  11.524  70.215  1.00  0.00    -0.347 SA 
HETATM   21  C   UNL     1     -12.666  10.459  71.367  1.00  0.00    -0.446 C  
HETATM   22  N   UNL     1     -13.311  11.177  72.314  1.00  0.00    -0.552 N  
HETATM   23  O   UNL     1     -12.635   9.244  71.295  1.00  0.00    -0.314 OA 
HETATM   24  C   UNL     1     -13.513  12.506  72.093  1.00  0.00    -0.422 C  
HETATM   25  H   UNL     1     -13.638  10.735  73.173  1.00  0.00     0.000 HD 
HETATM   26  O   UNL     1     -14.233  13.197  72.802  1.00  0.00    -0.608 OA 
ENDBRANCH  18  19
ENDBRANCH  15  18
ENDBRANCH  11  12
ENDBRANCH  10  11
ENDBRANCH   9  10
ENDBRANCH   6   9
ENDBRANCH   2   3
TORSDOF 7
ENDMDL
MODEL      138
REMARK 921   NORMALIZED FREE ENERGY PREDICTED BY IDOCK:   -4.64 KCAL/MOL
REMARK 922        TOTAL FREE ENERGY PREDICTED BY IDOCK:   -7.68 KCAL/MOL
REMARK 923 INTER-LIGAND FREE ENERGY PREDICTED BY IDOCK:   -6.89 KCAL/MOL
REMARK 924 INTRA-LIGAND FREE ENERGY PREDICTED BY IDOCK:   -0.80 KCAL/MOL
REMARK 927      BINDING AFFINITY PREDICTED BY RF-SCORE:    0.00 PKD
ROOT
HETATM    1  C   UNL     1     -10.324  19.513  68.145  1.00  0.00    -0.550 C  
HETATM    2  C   UNL     1      -9.322  18.527  67.563  1.00  0.00    -0.290 C  
ENDROOT
BRANCH   2   3
HETATM    3  C   UNL     1     -10.001  17.435  66.787  1.00  0.00    -0.307 A  
HETATM    4  C   UNL     1     -10.485  17.666  65.510  1.00  0.00    -0.040 A  
HETATM    5  N   UNL     1     -11.134  16.743  64.771  1.00  0.00    -0.788 NA 
HETATM    6  C   UNL     1     -11.322  15.507  65.302  1.00  0.00    -0.189 A  
HETATM    7  C   UNL     1     -10.880  15.188  66.580  1.00  0.00    -0.317 A  
HETATM    8  C   UNL     1     -10.213  16.164  67.326  1.00  0.00    -0.277 A  
BRANCH   6   9
HETATM    9  C   UNL     1     -12.070  14.497  64.451  1.00  0.00    -0.492 C  
BRANCH   9  10
HETATM   10  C   UNL     1     -12.818  13.524  65.361  1.00  0.00    -0.363 C  
BRANCH  10  11
HETATM   11  O   UNL     1     -12.489  12.147  65.139  1.00  0.00    -0.508 OA 
BRANCH  11  12
HETATM   12  C   UNL     1     -11.399  11.728  65.882  1.00  0.00    -0.263 A  
HETATM   13  C   UNL     1     -11.367  11.662  67.278  1.00  0.00    -0.372 A  
HETATM   14  C   UNL     1     -10.254  11.164  67.951  1.00  0.00    -0.202 A  
HETATM   15  C   UNL     1      -9.147  10.699  67.238  1.00  0.00    -0.151 A  
HETATM   16  C   UNL     1      -9.147  10.817  65.841  1.00  0.00    -0.208 A  
HETATM   17  C   UNL     1     -10.271  11.326  65.168  1.00  0.00    -0.344 A  
BRANCH  15  18
HETATM   18  C   UNL     1      -8.022  10.014  67.980  1.00  0.00    -0.101 C  
BRANCH  18  19
HETATM   19  C   UNL     1      -6.853  10.965  68.266  1.00  0.00    -0.067 C  
HETATM   20  S   UNL     1      -7.012  12.603  67.465  1.00  0.00    -0.142 SA 
HETATM   21  C   UNL     1      -6.651  13.457  68.937  1.00  0.00    -0.107 C  
HETATM   22  N   UNL     1      -6.695  12.610  69.989  1.00  0.00    -0.332 N  
HETATM   23  O   UNL     1      -6.367  14.640  68.989  1.00  0.00    -0.088 OA 
HETATM   24  C   UNL     1      -6.724  11.270  69.742  1.00  0.00    -0.099 C  
HETATM   25  H   UNL     1      -6.708  12.964  70.946  1.00  0.00     0.000 HD 
HETATM   26  O   UNL     1      -6.588  10.428  70.620  1.00  0.00    -0.290 OA 
ENDBRANCH  18  19
ENDBRANCH  15  18
ENDBRANCH  11  12
ENDBRANCH  10  11
ENDBRANCH   9  10
ENDBRANCH   6   9
ENDBRANCH   2   3
TORSDOF 7
ENDMDL
MODEL      139
REMARK 921   NORMALIZED FREE ENERGY PREDICTED BY IDOCK:   -4.64 KCAL/MOL
REMARK 922        TOTAL FREE ENERGY PREDICTED BY IDOCK:   -7.68 KCAL/MOL
REMARK 923 INTER-LIGAND FREE ENERGY PREDICTED BY IDOCK:   -6.45 KCAL/MOL
REMARK 924 INTRA-LIGAND FREE ENERGY PREDICTED BY IDOCK:   -1.23 KCAL/MOL
REMARK 927      BINDING AFFINITY PREDICTED BY RF-SCORE:    0.00 PKD
ROOT
HETATM    1  C   UNL     1     -12.850  14.345  71.325  1.00  0.00    -0.412 C  
HETATM    2  C   UNL     1     -12.368  13.406  70.229  1.00  0.00    -0.354 C  
ENDROOT
BRANCH   2   3
HETATM    3  C   UNL     1     -12.291  11.985  70.707  1.00  0.00    -0.403 A  
HETATM    4  C   UNL     1     -13.091  11.541  71.748  1.00  0.00    -0.398 A  
HETATM    5  N   UNL     1     -13.049  10.290  72.250  1.00  0.00    -0.328 NA 
HETATM    6  C   UNL     1     -12.180   9.402  71.701  1.00  0.00    -0.390 A  
HETATM    7  C   UNL     1     -11.332   9.761  70.660  1.00  0.00    -0.401 A  
HETATM    8  C   UNL     1     -11.393  11.066  70.162  1.00  0.00    -0.335 A  
BRANCH   6   9
HETATM    9  C   UNL     1     -12.147   8.008  72.300  1.00  0.00    -0.392 C  
BRANCH   9  10
HETATM   10  C   UNL     1     -12.757   7.018  71.310  1.00  0.00    -0.351 C  
BRANCH  10  11
HETATM   11  O   UNL     1     -11.895   5.924  70.970  1.00  0.00    -0.018 OA 
BRANCH  11  12
HETATM   12  C   UNL     1     -10.954   6.260  70.012  1.00  0.00    -0.358 A  
HETATM   13  C   UNL     1     -11.235   6.456  68.656  1.00  0.00    -0.338 A  
HETATM   14  C   UNL     1     -10.243   6.860  67.766  1.00  0.00    -0.224 A  
HETATM   15  C   UNL     1      -8.943   7.098  68.216  1.00  0.00    -0.125 A  
HETATM   16  C   UNL     1      -8.639   6.847  69.562  1.00  0.00    -0.134 A  
HETATM   17  C   UNL     1      -9.643   6.434  70.454  1.00  0.00    -0.178 A  
BRANCH  15  18
HETATM   18  C   UNL     1      -7.927   7.692  67.268  1.00  0.00    -0.118 C  
BRANCH  18  19
HETATM   19  C   UNL     1      -8.004   9.223  67.220  1.00  0.00    -0.106 C  
HETATM   20  S   UNL     1      -6.586  10.066  68.013  1.00  0.00    -0.063 SA 
HETATM   21  C   UNL     1      -6.333  11.116  66.650  1.00  0.00    -0.134 C  
HETATM   22  N   UNL     1      -7.051  10.684  65.589  1.00  0.00    -0.280 N  
HETATM   23  O   UNL     1      -5.634  12.113  66.676  1.00  0.00    -0.311 OA 
HETATM   24  C   UNL     1      -8.013   9.742  65.798  1.00  0.00    -0.116 C  
HETATM   25  H   UNL     1      -6.876  11.053  64.655  1.00  0.00     0.000 HD 
HETATM   26  O   UNL     1      -8.826   9.418  64.942  1.00  0.00    -0.182 OA 
ENDBRANCH  18  19
ENDBRANCH  15  18
ENDBRANCH  11  12
ENDBRANCH  10  11
ENDBRANCH   9  10
ENDBRANCH   6   9
ENDBRANCH   2   3
TORSDOF 7
ENDMDL
MODEL      140
REMARK 921   NORMALIZED FREE ENERGY PREDICTED BY IDOCK:   -4.63 KCAL/MOL
REMARK 922        TOTAL FREE ENERGY PREDICTED BY IDOCK:   -7.67 KCAL/MOL
REMARK 923 INTER-LIGAND FREE ENERGY PREDICTED BY IDOCK:   -7.08 KCAL/MOL
REMARK 924 INTRA-LIGAND FREE ENERGY PREDICTED BY IDOCK:   -0.59 KCAL/MOL
REMARK 927      BINDING AFFINITY PREDICTED BY RF-SCORE:    0.00 PKD
ROOT
HETATM    1  C   UNL     1      -6.850  20.659  66.541  1.00  0.00    -0.310 C  
HETATM    2  C   UNL     1      -7.339  19.464  65.736  1.00  0.00    -0.279 C  
ENDROOT
BRANCH   2   3
HETATM    3  C   UNL     1      -8.385  18.684  66.478  1.00  0.00    -0.304 A  
HETATM    4  C   UNL     1      -8.178  17.355  66.811  1.00  0.00    -0.249 A  
HETATM    5  N   UNL     1      -9.087  16.587  67.445  1.00  0.00    -0.203 NA 
HETATM    6  C   UNL     1     -10.276  17.144  67.791  1.00  0.00    -0.324 A  
HETATM    7  C   UNL     1     -10.575  18.467  67.489  1.00  0.00    -0.461 A  
HETATM    8  C   UNL     1      -9.617  19.240  66.827  1.00  0.00    -0.398 A  
BRANCH   6   9
HETATM    9  C   UNL     1     -11.282  16.248  68.489  1.00  0.00    -0.359 C  
BRANCH   9  10
HETATM   10  C   UNL     1     -11.345  14.902  67.770  1.00  0.00    -0.329 C  
BRANCH  10  11
HETATM   11  O   UNL     1     -12.247  13.961  68.367  1.00  0.00    -0.339 OA 
BRANCH  11  12
HETATM   12  C   UNL     1     -11.639  12.758  68.680  1.00  0.00    -0.314 A  
HETATM   13  C   UNL     1     -11.892  12.017  69.837  1.00  0.00    -0.405 A  
HETATM   14  C   UNL     1     -11.289  10.779  70.047  1.00  0.00    -0.397 A  
HETATM   15  C   UNL     1     -10.428  10.241  69.089  1.00  0.00    -0.246 A  
HETATM   16  C   UNL     1     -10.122  11.003  67.953  1.00  0.00    -0.199 A  
HETATM   17  C   UNL     1     -10.730  12.254  67.750  1.00  0.00    -0.246 A  
BRANCH  15  18
HETATM   18  C   UNL     1      -9.916   8.829  69.262  1.00  0.00    -0.194 C  
BRANCH  18  19
HETATM   19  C   UNL     1     -10.612   7.840  68.318  1.00  0.00    -0.117 C  
HETATM   20  S   UNL     1      -9.609   7.367  66.863  1.00  0.00    -0.200 SA 
HETATM   21  C   UNL     1      -9.899   5.669  67.102  1.00  0.00    -0.149 C  
HETATM   22  N   UNL     1     -10.450   5.458  68.318  1.00  0.00    -0.156 N  
HETATM   23  O   UNL     1      -9.666   4.812  66.269  1.00  0.00    -0.158 OA 
HETATM   24  C   UNL     1     -10.929   6.531  69.008  1.00  0.00    -0.321 C  
HETATM   25  H   UNL     1     -10.505   4.518  68.711  1.00  0.00     0.000 HD 
HETATM   26  O   UNL     1     -11.597   6.424  70.028  1.00  0.00    -0.425 OA 
ENDBRANCH  18  19
ENDBRANCH  15  18
ENDBRANCH  11  12
ENDBRANCH  10  11
ENDBRANCH   9  10
ENDBRANCH   6   9
ENDBRANCH   2   3
TORSDOF 7
ENDMDL
MODEL      141
REMARK 921   NORMALIZED FREE ENERGY PREDICTED BY IDOCK:   -4.62 KCAL/MOL
REMARK 922        TOTAL FREE ENERGY PREDICTED BY IDOCK:   -7.65 KCAL/MOL
REMARK 923 INTER-LIGAND FREE ENERGY PREDICTED BY IDOCK:   -6.59 KCAL/MOL
REMARK 924 INTRA-LIGAND FREE ENERGY PREDICTED BY IDOCK:   -1.07 KCAL/MOL
REMARK 927      BINDING AFFINITY PREDICTED BY RF-SCORE:    0.00 PKD
ROOT
HETATM    1  C   UNL     1      -6.719  10.637  66.181  1.00  0.00    -0.132 C  
HETATM    2  C   UNL     1      -7.065   9.225  66.633  1.00  0.00    -0.082 C  
ENDROOT
BRANCH   2   3
HETATM    3  C   UNL     1      -8.201   9.219  67.615  1.00  0.00    -0.115 A  
HETATM    4  C   UNL     1      -9.441   8.709  67.264  1.00  0.00    -0.156 A  
HETATM    5  N   UNL     1     -10.512   8.702  68.083  1.00  0.00    -0.211 NA 
HETATM    6  C   UNL     1     -10.374   9.217  69.333  1.00  0.00    -0.215 A  
HETATM    7  C   UNL     1      -9.171   9.759  69.767  1.00  0.00    -0.248 A  
HETATM    8  C   UNL     1      -8.077   9.758  68.897  1.00  0.00    -0.101 A  
BRANCH   6   9
HETATM    9  C   UNL     1     -11.603   9.209  70.222  1.00  0.00    -0.116 C  
BRANCH   9  10
HETATM   10  C   UNL     1     -11.950  10.643  70.619  1.00  0.00    -0.367 C  
BRANCH  10  11
HETATM   11  O   UNL     1     -12.621  11.387  69.595  1.00  0.00    -0.123 OA 
BRANCH  11  12
HETATM   12  C   UNL     1     -11.977  12.571  69.281  1.00  0.00    -0.250 A  
HETATM   13  C   UNL     1     -11.813  13.644  70.161  1.00  0.00    -0.351 A  
HETATM   14  C   UNL     1     -11.090  14.776  69.791  1.00  0.00    -0.288 A  
HETATM   15  C   UNL     1     -10.495  14.854  68.531  1.00  0.00    -0.242 A  
HETATM   16  C   UNL     1     -10.704  13.808  67.621  1.00  0.00    -0.256 A  
HETATM   17  C   UNL     1     -11.439  12.671  67.998  1.00  0.00    -0.366 A  
BRANCH  15  18
HETATM   18  C   UNL     1      -9.582  16.016  68.212  1.00  0.00    -0.210 C  
BRANCH  18  19
HETATM   19  C   UNL     1     -10.364  17.297  67.895  1.00  0.00    -0.360 C  
HETATM   20  S   UNL     1      -9.733  18.786  68.751  1.00  0.00    -0.361 SA 
HETATM   21  C   UNL     1      -9.713  19.728  67.290  1.00  0.00    -0.370 C  
HETATM   22  N   UNL     1      -9.883  18.924  66.216  1.00  0.00    -0.365 N  
HETATM   23  O   UNL     1      -9.597  20.940  67.259  1.00  0.00    -0.435 OA 
HETATM   24  C   UNL     1     -10.301  17.645  66.424  1.00  0.00    -0.345 C  
HETATM   25  H   UNL     1      -9.701  19.267  65.272  1.00  0.00     0.000 HD 
HETATM   26  O   UNL     1     -10.650  16.902  65.516  1.00  0.00    -0.523 OA 
ENDBRANCH  18  19
ENDBRANCH  15  18
ENDBRANCH  11  12
ENDBRANCH  10  11
ENDBRANCH   9  10
ENDBRANCH   6   9
ENDBRANCH   2   3
TORSDOF 7
ENDMDL
MODEL      142
REMARK 921   NORMALIZED FREE ENERGY PREDICTED BY IDOCK:   -4.60 KCAL/MOL
REMARK 922        TOTAL FREE ENERGY PREDICTED BY IDOCK:   -7.63 KCAL/MOL
REMARK 923 INTER-LIGAND FREE ENERGY PREDICTED BY IDOCK:   -6.73 KCAL/MOL
REMARK 924 INTRA-LIGAND FREE ENERGY PREDICTED BY IDOCK:   -0.89 KCAL/MOL
REMARK 927      BINDING AFFINITY PREDICTED BY RF-SCORE:    0.00 PKD
ROOT
HETATM    1  C   UNL     1     -10.591   8.137  70.891  1.00  0.00    -0.236 C  
HETATM    2  C   UNL     1      -9.813   9.408  70.584  1.00  0.00    -0.340 C  
ENDROOT
BRANCH   2   3
HETATM    3  C   UNL     1      -9.709   9.653  69.106  1.00  0.00    -0.180 A  
HETATM    4  C   UNL     1     -10.585   9.044  68.221  1.00  0.00    -0.163 A  
HETATM    5  N   UNL     1     -10.527   9.193  66.882  1.00  0.00    -0.243 NA 
HETATM    6  C   UNL     1      -9.561   9.993  66.362  1.00  0.00    -0.196 A  
HETATM    7  C   UNL     1      -8.633  10.635  67.172  1.00  0.00    -0.127 A  
HETATM    8  C   UNL     1      -8.712  10.461  68.556  1.00  0.00    -0.135 A  
BRANCH   6   9
HETATM    9  C   UNL     1      -9.514  10.125  64.851  1.00  0.00    -0.349 C  
BRANCH   9  10
HETATM   10  C   UNL     1     -10.072  11.488  64.444  1.00  0.00    -0.282 C  
BRANCH  10  11
HETATM   11  O   UNL     1     -11.122  11.967  65.294  1.00  0.00    -0.303 OA 
BRANCH  11  12
HETATM   12  C   UNL     1     -10.985  13.307  65.613  1.00  0.00    -0.277 A  
HETATM   13  C   UNL     1     -10.669  13.792  66.886  1.00  0.00    -0.280 A  
HETATM   14  C   UNL     1     -10.481  15.153  67.112  1.00  0.00    -0.280 A  
HETATM   15  C   UNL     1     -10.585  16.065  66.060  1.00  0.00    -0.324 A  
HETATM   16  C   UNL     1     -10.960  15.595  64.794  1.00  0.00    -0.418 A  
HETATM   17  C   UNL     1     -11.154  14.220  64.573  1.00  0.00    -0.321 A  
BRANCH  15  18
HETATM   18  C   UNL     1     -10.217  17.513  66.295  1.00  0.00    -0.356 C  
BRANCH  18  19
HETATM   19  C   UNL     1      -8.984  17.658  67.196  1.00  0.00    -0.244 C  
HETATM   20  S   UNL     1      -7.442  18.049  66.291  1.00  0.00    -0.274 SA 
HETATM   21  C   UNL     1      -7.038  19.357  67.364  1.00  0.00    -0.208 C  
HETATM   22  N   UNL     1      -8.098  19.661  68.147  1.00  0.00    -0.315 N  
HETATM   23  O   UNL     1      -5.943  19.888  67.413  1.00  0.00    -0.182 OA 
HETATM   24  C   UNL     1      -9.143  18.788  68.190  1.00  0.00    -0.307 C  
HETATM   25  H   UNL     1      -8.114  20.522  68.693  1.00  0.00     0.000 HD 
HETATM   26  O   UNL     1     -10.060  18.886  68.994  1.00  0.00    -0.395 OA 
ENDBRANCH  18  19
ENDBRANCH  15  18
ENDBRANCH  11  12
ENDBRANCH  10  11
ENDBRANCH   9  10
ENDBRANCH   6   9
ENDBRANCH   2   3
TORSDOF 7
ENDMDL
MODEL      143
REMARK 921   NORMALIZED FREE ENERGY PREDICTED BY IDOCK:   -4.60 KCAL/MOL
REMARK 922        TOTAL FREE ENERGY PREDICTED BY IDOCK:   -7.62 KCAL/MOL
REMARK 923 INTER-LIGAND FREE ENERGY PREDICTED BY IDOCK:   -6.98 KCAL/MOL
REMARK 924 INTRA-LIGAND FREE ENERGY PREDICTED BY IDOCK:   -0.64 KCAL/MOL
REMARK 927      BINDING AFFINITY PREDICTED BY RF-SCORE:    0.00 PKD
ROOT
HETATM    1  C   UNL     1      -7.259  19.850  68.147  1.00  0.00    -0.330 C  
HETATM    2  C   UNL     1      -8.560  19.241  68.650  1.00  0.00    -0.401 C  
ENDROOT
BRANCH   2   3
HETATM    3  C   UNL     1      -8.898  17.972  67.924  1.00  0.00    -0.269 A  
HETATM    4  C   UNL     1     -10.063  17.867  67.180  1.00  0.00    -0.340 A  
HETATM    5  N   UNL     1     -10.444  16.747  66.531  1.00  0.00    -0.290 NA 
HETATM    6  C   UNL     1      -9.639  15.655  66.599  1.00  0.00    -0.248 A  
HETATM    7  C   UNL     1      -8.457  15.666  67.329  1.00  0.00    -0.214 A  
HETATM    8  C   UNL     1      -8.087  16.837  67.995  1.00  0.00    -0.187 A  
BRANCH   6   9
HETATM    9  C   UNL     1     -10.106  14.408  65.871  1.00  0.00    -0.344 C  
BRANCH   9  10
HETATM   10  C   UNL     1     -11.335  13.839  66.578  1.00  0.00    -0.325 C  
BRANCH  10  11
HETATM   11  O   UNL     1     -11.100  13.452  67.938  1.00  0.00    -0.250 OA 
BRANCH  11  12
HETATM   12  C   UNL     1     -10.542  12.191  68.049  1.00  0.00    -0.210 A  
HETATM   13  C   UNL     1      -9.226  11.936  68.446  1.00  0.00    -0.173 A  
HETATM   14  C   UNL     1      -8.758  10.633  68.599  1.00  0.00    -0.148 A  
HETATM   15  C   UNL     1      -9.607   9.548  68.377  1.00  0.00    -0.152 A  
HETATM   16  C   UNL     1     -10.910   9.792  67.921  1.00  0.00    -0.298 A  
HETATM   17  C   UNL     1     -11.374  11.110  67.763  1.00  0.00    -0.364 A  
BRANCH  15  18
HETATM   18  C   UNL     1      -9.128   8.152  68.707  1.00  0.00    -0.144 C  
BRANCH  18  19
HETATM   19  C   UNL     1      -9.755   7.615  69.999  1.00  0.00    -0.172 C  
HETATM   20  S   UNL     1     -10.199   8.914  71.209  1.00  0.00    -0.319 SA 
HETATM   21  C   UNL     1     -11.798   8.273  71.447  1.00  0.00    -0.293 C  
HETATM   22  N   UNL     1     -12.075   7.350  70.498  1.00  0.00    -0.537 N  
HETATM   23  O   UNL     1     -12.535   8.595  72.361  1.00  0.00    -0.382 OA 
HETATM   24  C   UNL     1     -11.051   6.879  69.733  1.00  0.00    -0.271 C  
HETATM   25  H   UNL     1     -13.028   7.015  70.357  1.00  0.00     0.000 HD 
HETATM   26  O   UNL     1     -11.168   5.925  68.976  1.00  0.00    -0.315 OA 
ENDBRANCH  18  19
ENDBRANCH  15  18
ENDBRANCH  11  12
ENDBRANCH  10  11
ENDBRANCH   9  10
ENDBRANCH   6   9
ENDBRANCH   2   3
TORSDOF 7
ENDMDL
MODEL      144
REMARK 921   NORMALIZED FREE ENERGY PREDICTED BY IDOCK:   -4.59 KCAL/MOL
REMARK 922        TOTAL FREE ENERGY PREDICTED BY IDOCK:   -7.61 KCAL/MOL
REMARK 923 INTER-LIGAND FREE ENERGY PREDICTED BY IDOCK:   -6.85 KCAL/MOL
REMARK 924 INTRA-LIGAND FREE ENERGY PREDICTED BY IDOCK:   -0.76 KCAL/MOL
REMARK 927      BINDING AFFINITY PREDICTED BY RF-SCORE:    0.00 PKD
ROOT
HETATM    1  C   UNL     1      -7.442  10.329  65.829  1.00  0.00    -0.144 C  
HETATM    2  C   UNL     1      -7.183   9.617  67.148  1.00  0.00    -0.087 C  
ENDROOT
BRANCH   2   3
HETATM    3  C   UNL     1      -8.371   9.692  68.064  1.00  0.00    -0.117 A  
HETATM    4  C   UNL     1      -8.209   9.690  69.440  1.00  0.00    -0.132 A  
HETATM    5  N   UNL     1      -9.232   9.721  70.319  1.00  0.00    -0.228 NA 
HETATM    6  C   UNL     1     -10.500   9.767  69.834  1.00  0.00    -0.261 A  
HETATM    7  C   UNL     1     -10.758   9.763  68.469  1.00  0.00    -0.252 A  
HETATM    8  C   UNL     1      -9.680   9.725  67.579  1.00  0.00    -0.192 A  
BRANCH   6   9
HETATM    9  C   UNL     1     -11.627   9.785  70.850  1.00  0.00    -0.441 C  
BRANCH   9  10
HETATM   10  C   UNL     1     -12.661  10.832  70.440  1.00  0.00    -0.314 C  
BRANCH  10  11
HETATM   11  O   UNL     1     -12.534  12.081  71.132  1.00  0.00    -0.348 OA 
BRANCH  11  12
HETATM   12  C   UNL     1     -12.111  13.110  70.310  1.00  0.00    -0.328 A  
HETATM   13  C   UNL     1     -11.869  12.984  68.939  1.00  0.00    -0.358 A  
HETATM   14  C   UNL     1     -11.510  14.085  68.166  1.00  0.00    -0.341 A  
HETATM   15  C   UNL     1     -11.403  15.351  68.745  1.00  0.00    -0.328 A  
HETATM   16  C   UNL     1     -11.585  15.476  70.130  1.00  0.00    -0.355 A  
HETATM   17  C   UNL     1     -11.941  14.359  70.906  1.00  0.00    -0.393 A  
BRANCH  15  18
HETATM   18  C   UNL     1     -11.174  16.555  67.860  1.00  0.00    -0.155 C  
BRANCH  18  19
HETATM   19  C   UNL     1      -9.726  17.054  67.923  1.00  0.00    -0.263 C  
HETATM   20  S   UNL     1      -8.529  15.797  68.506  1.00  0.00    -0.193 SA 
HETATM   21  C   UNL     1      -7.433  16.099  67.190  1.00  0.00    -0.212 C  
HETATM   22  N   UNL     1      -8.037  16.857  66.247  1.00  0.00    -0.311 N  
HETATM   23  O   UNL     1      -6.281  15.707  67.156  1.00  0.00    -0.317 OA 
HETATM   24  C   UNL     1      -9.213  17.469  66.562  1.00  0.00    -0.267 C  
HETATM   25  H   UNL     1      -7.623  16.967  65.321  1.00  0.00     0.000 HD 
HETATM   26  O   UNL     1      -9.740  18.308  65.844  1.00  0.00    -0.516 OA 
ENDBRANCH  18  19
ENDBRANCH  15  18
ENDBRANCH  11  12
ENDBRANCH  10  11
ENDBRANCH   9  10
ENDBRANCH   6   9
ENDBRANCH   2   3
TORSDOF 7
ENDMDL
MODEL      145
REMARK 921   NORMALIZED FREE ENERGY PREDICTED BY IDOCK:   -4.55 KCAL/MOL
REMARK 922        TOTAL FREE ENERGY PREDICTED BY IDOCK:   -7.56 KCAL/MOL
REMARK 923 INTER-LIGAND FREE ENERGY PREDICTED BY IDOCK:   -6.46 KCAL/MOL
REMARK 924 INTRA-LIGAND FREE ENERGY PREDICTED BY IDOCK:   -1.10 KCAL/MOL
REMARK 927      BINDING AFFINITY PREDICTED BY RF-SCORE:    0.00 PKD
ROOT
HETATM    1  C   UNL     1      -6.744   9.595  67.360  1.00  0.00    -0.071 C  
HETATM    2  C   UNL     1      -6.233   8.391  68.139  1.00  0.00    -0.051 C  
ENDROOT
BRANCH   2   3
HETATM    3  C   UNL     1      -7.081   8.110  69.346  1.00  0.00    -0.055 A  
HETATM    4  C   UNL     1      -7.876   6.978  69.408  1.00  0.00    -0.113 A  
HETATM    5  N   UNL     1      -8.686   6.681  70.445  1.00  0.00    -0.149 NA 
HETATM    6  C   UNL     1      -8.722   7.535  71.501  1.00  0.00    -0.116 A  
HETATM    7  C   UNL     1      -7.966   8.700  71.522  1.00  0.00    -0.178 A  
HETATM    8  C   UNL     1      -7.138   8.986  70.432  1.00  0.00    -0.065 A  
BRANCH   6   9
HETATM    9  C   UNL     1      -9.656   7.180  72.644  1.00  0.00    -0.177 C  
BRANCH   9  10
HETATM   10  C   UNL     1     -10.877   8.096  72.603  1.00  0.00    -0.359 C  
BRANCH  10  11
HETATM   11  O   UNL     1     -11.454   8.245  71.299  1.00  0.00    -0.261 OA 
BRANCH  11  12
HETATM   12  C   UNL     1     -11.574   9.568  70.913  1.00  0.00    -0.326 A  
HETATM   13  C   UNL     1     -10.881  10.152  69.849  1.00  0.00    -0.347 A  
HETATM   14  C   UNL     1     -11.109  11.475  69.479  1.00  0.00    -0.256 A  
HETATM   15  C   UNL     1     -12.055  12.245  70.157  1.00  0.00    -0.364 A  
HETATM   16  C   UNL     1     -12.712  11.687  71.263  1.00  0.00    -0.444 A  
HETATM   17  C   UNL     1     -12.474  10.352  71.634  1.00  0.00    -0.471 A  
BRANCH  15  18
HETATM   18  C   UNL     1     -12.402  13.621  69.636  1.00  0.00    -0.257 C  
BRANCH  18  19
HETATM   19  C   UNL     1     -11.156  14.483  69.402  1.00  0.00    -0.268 C  
HETATM   20  S   UNL     1     -11.085  15.255  67.743  1.00  0.00    -0.323 SA 
HETATM   21  C   UNL     1     -10.723  16.827  68.392  1.00  0.00    -0.362 C  
HETATM   22  N   UNL     1     -10.924  16.837  69.729  1.00  0.00    -0.392 N  
HETATM   23  O   UNL     1     -10.315  17.763  67.728  1.00  0.00    -0.346 OA 
HETATM   24  C   UNL     1     -11.084  15.645  70.369  1.00  0.00    -0.352 C  
HETATM   25  H   UNL     1     -10.955  17.716  70.246  1.00  0.00     0.000 HD 
HETATM   26  O   UNL     1     -11.095  15.539  71.588  1.00  0.00    -0.354 OA 
ENDBRANCH  18  19
ENDBRANCH  15  18
ENDBRANCH  11  12
ENDBRANCH  10  11
ENDBRANCH   9  10
ENDBRANCH   6   9
ENDBRANCH   2   3
TORSDOF 7
ENDMDL
MODEL      146
REMARK 921   NORMALIZED FREE ENERGY PREDICTED BY IDOCK:   -4.52 KCAL/MOL
REMARK 922        TOTAL FREE ENERGY PREDICTED BY IDOCK:   -7.51 KCAL/MOL
REMARK 923 INTER-LIGAND FREE ENERGY PREDICTED BY IDOCK:   -6.42 KCAL/MOL
REMARK 924 INTRA-LIGAND FREE ENERGY PREDICTED BY IDOCK:   -1.09 KCAL/MOL
REMARK 927      BINDING AFFINITY PREDICTED BY RF-SCORE:    0.00 PKD
ROOT
HETATM    1  C   UNL     1     -12.296  15.516  70.769  1.00  0.00    -0.463 C  
HETATM    2  C   UNL     1     -11.879  14.391  69.832  1.00  0.00    -0.382 C  
ENDROOT
BRANCH   2   3
HETATM    3  C   UNL     1     -12.292  13.047  70.358  1.00  0.00    -0.351 A  
HETATM    4  C   UNL     1     -13.147  12.941  71.443  1.00  0.00    -0.242 A  
HETATM    5  N   UNL     1     -13.531  11.768  71.988  1.00  0.00    -0.359 NA 
HETATM    6  C   UNL     1     -13.063  10.617  71.439  1.00  0.00    -0.400 A  
HETATM    7  C   UNL     1     -12.194  10.627  70.356  1.00  0.00    -0.432 A  
HETATM    8  C   UNL     1     -11.808  11.856  69.813  1.00  0.00    -0.411 A  
BRANCH   6   9
HETATM    9  C   UNL     1     -13.502   9.316  72.086  1.00  0.00    -0.539 C  
BRANCH   9  10
HETATM   10  C   UNL     1     -12.272   8.549  72.566  1.00  0.00    -0.315 C  
BRANCH  10  11
HETATM   11  O   UNL     1     -12.130   7.247  71.984  1.00  0.00    -0.296 OA 
BRANCH  11  12
HETATM   12  C   UNL     1     -11.092   7.177  71.072  1.00  0.00    -0.260 A  
HETATM   13  C   UNL     1     -11.127   6.444  69.882  1.00  0.00    -0.444 A  
HETATM   14  C   UNL     1     -10.066   6.479  68.982  1.00  0.00    -0.186 A  
HETATM   15  C   UNL     1      -8.944   7.269  69.242  1.00  0.00    -0.135 A  
HETATM   16  C   UNL     1      -8.873   7.959  70.460  1.00  0.00    -0.141 A  
HETATM   17  C   UNL     1      -9.946   7.915  71.367  1.00  0.00    -0.208 A  
BRANCH  15  18
HETATM   18  C   UNL     1      -7.880   7.419  68.179  1.00  0.00    -0.122 C  
BRANCH  18  19
HETATM   19  C   UNL     1      -8.479   7.708  66.797  1.00  0.00    -0.127 C  
HETATM   20  S   UNL     1      -8.333   9.455  66.271  1.00  0.00    -0.116 SA 
HETATM   21  C   UNL     1      -7.698   9.025  64.709  1.00  0.00    -0.109 C  
HETATM   22  N   UNL     1      -7.355   7.718  64.690  1.00  0.00    -0.075 N  
HETATM   23  O   UNL     1      -7.615   9.795  63.770  1.00  0.00    -0.121 OA 
HETATM   24  C   UNL     1      -7.785   6.919  65.707  1.00  0.00    -0.100 C  
HETATM   25  H   UNL     1      -6.787   7.337  63.933  1.00  0.00     0.000 HD 
HETATM   26  O   UNL     1      -7.677   5.700  65.689  1.00  0.00    -0.085 OA 
ENDBRANCH  18  19
ENDBRANCH  15  18
ENDBRANCH  11  12
ENDBRANCH  10  11
ENDBRANCH   9  10
ENDBRANCH   6   9
ENDBRANCH   2   3
TORSDOF 7
ENDMDL
MODEL      147
REMARK 921   NORMALIZED FREE ENERGY PREDICTED BY IDOCK:   -4.50 KCAL/MOL
REMARK 922        TOTAL FREE ENERGY PREDICTED BY IDOCK:   -7.48 KCAL/MOL
REMARK 923 INTER-LIGAND FREE ENERGY PREDICTED BY IDOCK:   -6.26 KCAL/MOL
REMARK 924 INTRA-LIGAND FREE ENERGY PREDICTED BY IDOCK:   -1.22 KCAL/MOL
REMARK 927      BINDING AFFINITY PREDICTED BY RF-SCORE:    0.00 PKD
ROOT
HETATM    1  C   UNL     1      -9.972   5.532  72.376  1.00  0.00    -0.201 C  
HETATM    2  C   UNL     1     -11.094   5.906  71.419  1.00  0.00    -0.313 C  
ENDROOT
BRANCH   2   3
HETATM    3  C   UNL     1     -10.631   5.901  69.991  1.00  0.00    -0.364 A  
HETATM    4  C   UNL     1      -9.387   5.397  69.649  1.00  0.00    -0.135 A  
HETATM    5  N   UNL     1      -8.895   5.392  68.392  1.00  0.00    -0.101 NA 
HETATM    6  C   UNL     1      -9.664   5.902  67.396  1.00  0.00    -0.117 A  
HETATM    7  C   UNL     1     -10.921   6.438  67.647  1.00  0.00    -0.441 A  
HETATM    8  C   UNL     1     -11.405   6.435  68.958  1.00  0.00    -0.332 A  
BRANCH   6   9
HETATM    9  C   UNL     1      -9.074   5.896  65.998  1.00  0.00    -0.154 C  
BRANCH   9  10
HETATM   10  C   UNL     1      -7.805   6.746  65.980  1.00  0.00    -0.104 C  
BRANCH  10  11
HETATM   11  O   UNL     1      -7.950   8.001  65.302  1.00  0.00    -0.109 OA 
BRANCH  11  12
HETATM   12  C   UNL     1      -8.508   8.983  66.102  1.00  0.00    -0.127 A  
HETATM   13  C   UNL     1      -8.047   9.326  67.376  1.00  0.00    -0.110 A  
HETATM   14  C   UNL     1      -8.621  10.374  68.092  1.00  0.00    -0.125 A  
HETATM   15  C   UNL     1      -9.663  11.121  67.539  1.00  0.00    -0.193 A  
HETATM   16  C   UNL     1     -10.171  10.745  66.287  1.00  0.00    -0.301 A  
HETATM   17  C   UNL     1      -9.591   9.683  65.572  1.00  0.00    -0.351 A  
BRANCH  15  18
HETATM   18  C   UNL     1     -10.158  12.352  68.262  1.00  0.00    -0.227 C  
BRANCH  18  19
HETATM   19  C   UNL     1     -11.578  12.169  68.813  1.00  0.00    -0.327 C  
HETATM   20  S   UNL     1     -11.797  10.658  69.821  1.00  0.00    -0.296 SA 
HETATM   21  C   UNL     1     -12.573  11.525  71.114  1.00  0.00    -0.359 C  
HETATM   22  N   UNL     1     -12.421  12.857  70.938  1.00  0.00    -0.351 N  
HETATM   23  O   UNL     1     -13.189  10.994  72.020  1.00  0.00    -0.499 OA 
HETATM   24  C   UNL     1     -11.976  13.305  69.730  1.00  0.00    -0.324 C  
HETATM   25  H   UNL     1     -12.634  13.511  71.691  1.00  0.00     0.000 HD 
HETATM   26  O   UNL     1     -11.975  14.488  69.418  1.00  0.00    -0.303 OA 
ENDBRANCH  18  19
ENDBRANCH  15  18
ENDBRANCH  11  12
ENDBRANCH  10  11
ENDBRANCH   9  10
ENDBRANCH   6   9
ENDBRANCH   2   3
TORSDOF 7
ENDMDL
MODEL      148
REMARK 921   NORMALIZED FREE ENERGY PREDICTED BY IDOCK:   -4.49 KCAL/MOL
REMARK 922        TOTAL FREE ENERGY PREDICTED BY IDOCK:   -7.48 KCAL/MOL
REMARK 923 INTER-LIGAND FREE ENERGY PREDICTED BY IDOCK:   -6.97 KCAL/MOL
REMARK 924 INTRA-LIGAND FREE ENERGY PREDICTED BY IDOCK:   -0.51 KCAL/MOL
REMARK 927      BINDING AFFINITY PREDICTED BY RF-SCORE:    0.00 PKD
ROOT
HETATM    1  C   UNL     1      -6.495  21.270  66.651  1.00  0.00    -0.317 C  
HETATM    2  C   UNL     1      -7.206  20.235  65.791  1.00  0.00    -0.261 C  
ENDROOT
BRANCH   2   3
HETATM    3  C   UNL     1      -8.192  19.431  66.588  1.00  0.00    -0.322 A  
HETATM    4  C   UNL     1      -7.950  18.098  66.880  1.00  0.00    -0.232 A  
HETATM    5  N   UNL     1      -8.806  17.309  67.562  1.00  0.00    -0.217 NA 
HETATM    6  C   UNL     1      -9.974  17.849  67.999  1.00  0.00    -0.333 A  
HETATM    7  C   UNL     1     -10.304  19.174  67.744  1.00  0.00    -0.513 A  
HETATM    8  C   UNL     1      -9.402  19.968  67.032  1.00  0.00    -0.510 A  
BRANCH   6   9
HETATM    9  C   UNL     1     -10.921  16.929  68.748  1.00  0.00    -0.234 C  
BRANCH   9  10
HETATM   10  C   UNL     1     -11.191  15.685  67.904  1.00  0.00    -0.328 C  
BRANCH  10  11
HETATM   11  O   UNL     1     -12.121  14.768  68.495  1.00  0.00    -0.272 OA 
BRANCH  11  12
HETATM   12  C   UNL     1     -11.840  13.447  68.191  1.00  0.00    -0.361 A  
HETATM   13  C   UNL     1     -11.574  12.967  66.906  1.00  0.00    -0.419 A  
HETATM   14  C   UNL     1     -11.232  11.634  66.691  1.00  0.00    -0.362 A  
HETATM   15  C   UNL     1     -11.128  10.749  67.765  1.00  0.00    -0.381 A  
HETATM   16  C   UNL     1     -11.451  11.207  69.050  1.00  0.00    -0.364 A  
HETATM   17  C   UNL     1     -11.801  12.553  69.260  1.00  0.00    -0.360 A  
BRANCH  15  18
HETATM   18  C   UNL     1     -10.598   9.354  67.528  1.00  0.00    -0.333 C  
BRANCH  18  19
HETATM   19  C   UNL     1      -9.241   9.126  68.205  1.00  0.00    -0.131 C  
HETATM   20  S   UNL     1      -9.348   8.278  69.823  1.00  0.00    -0.158 SA 
HETATM   21  C   UNL     1      -8.112   7.129  69.404  1.00  0.00    -0.130 C  
HETATM   22  N   UNL     1      -7.850   7.190  68.079  1.00  0.00    -0.116 N  
HETATM   23  O   UNL     1      -7.549   6.406  70.206  1.00  0.00    -0.092 OA 
HETATM   24  C   UNL     1      -8.335   8.248  67.370  1.00  0.00    -0.125 C  
HETATM   25  H   UNL     1      -7.303   6.461  67.620  1.00  0.00     0.000 HD 
HETATM   26  O   UNL     1      -8.007   8.482  66.215  1.00  0.00    -0.098 OA 
ENDBRANCH  18  19
ENDBRANCH  15  18
ENDBRANCH  11  12
ENDBRANCH  10  11
ENDBRANCH   9  10
ENDBRANCH   6   9
ENDBRANCH   2   3
TORSDOF 7
ENDMDL
MODEL      149
REMARK 921   NORMALIZED FREE ENERGY PREDICTED BY IDOCK:   -4.49 KCAL/MOL
REMARK 922        TOTAL FREE ENERGY PREDICTED BY IDOCK:   -7.47 KCAL/MOL
REMARK 923 INTER-LIGAND FREE ENERGY PREDICTED BY IDOCK:   -5.92 KCAL/MOL
REMARK 924 INTRA-LIGAND FREE ENERGY PREDICTED BY IDOCK:   -1.55 KCAL/MOL
REMARK 927      BINDING AFFINITY PREDICTED BY RF-SCORE:    0.00 PKD
ROOT
HETATM    1  C   UNL     1     -12.705  10.747  71.242  1.00  0.00    -0.546 C  
HETATM    2  C   UNL     1     -11.611   9.843  70.693  1.00  0.00    -0.413 C  
ENDROOT
BRANCH   2   3
HETATM    3  C   UNL     1     -11.472   8.585  71.501  1.00  0.00    -0.350 A  
HETATM    4  C   UNL     1     -10.461   8.451  72.440  1.00  0.00    -0.332 A  
HETATM    5  N   UNL     1     -10.258   7.338  73.174  1.00  0.00    -0.263 NA 
HETATM    6  C   UNL     1     -11.095   6.284  72.995  1.00  0.00    -0.207 A  
HETATM    7  C   UNL     1     -12.130   6.325  72.070  1.00  0.00    -0.321 A  
HETATM    8  C   UNL     1     -12.317   7.488  71.318  1.00  0.00    -0.356 A  
BRANCH   6   9
HETATM    9  C   UNL     1     -10.829   5.042  73.826  1.00  0.00    -0.366 C  
BRANCH   9  10
HETATM   10  C   UNL     1     -10.634   3.845  72.898  1.00  0.00    -0.149 C  
BRANCH  10  11
HETATM   11  O   UNL     1      -9.292   3.685  72.422  1.00  0.00    -0.111 OA 
BRANCH  11  12
HETATM   12  C   UNL     1      -9.010   4.490  71.331  1.00  0.00    -0.127 A  
HETATM   13  C   UNL     1      -9.732   4.488  70.134  1.00  0.00    -0.287 A  
HETATM   14  C   UNL     1      -9.428   5.377  69.107  1.00  0.00    -0.177 A  
HETATM   15  C   UNL     1      -8.400   6.309  69.261  1.00  0.00    -0.117 A  
HETATM   16  C   UNL     1      -7.632   6.279  70.434  1.00  0.00    -0.096 A  
HETATM   17  C   UNL     1      -7.941   5.375  71.464  1.00  0.00    -0.115 A  
BRANCH  15  18
HETATM   18  C   UNL     1      -8.195   7.369  68.203  1.00  0.00    -0.124 C  
BRANCH  18  19
HETATM   19  C   UNL     1      -9.208   8.514  68.326  1.00  0.00    -0.138 C  
HETATM   20  S   UNL     1      -8.451  10.181  68.331  1.00  0.00    -0.122 SA 
HETATM   21  C   UNL     1      -9.551  10.782  67.126  1.00  0.00    -0.161 C  
HETATM   22  N   UNL     1     -10.229   9.758  66.562  1.00  0.00    -0.232 N  
HETATM   23  O   UNL     1      -9.701  11.962  66.866  1.00  0.00    -0.195 OA 
HETATM   24  C   UNL     1     -10.177   8.536  67.164  1.00  0.00    -0.284 C  
HETATM   25  H   UNL     1     -10.768   9.895  65.706  1.00  0.00     0.000 HD 
HETATM   26  O   UNL     1     -10.891   7.599  66.833  1.00  0.00    -0.328 OA 
ENDBRANCH  18  19
ENDBRANCH  15  18
ENDBRANCH  11  12
ENDBRANCH  10  11
ENDBRANCH   9  10
ENDBRANCH   6   9
ENDBRANCH   2   3
TORSDOF 7
ENDMDL
MODEL      150
REMARK 921   NORMALIZED FREE ENERGY PREDICTED BY IDOCK:   -4.49 KCAL/MOL
REMARK 922        TOTAL FREE ENERGY PREDICTED BY IDOCK:   -7.46 KCAL/MOL
REMARK 923 INTER-LIGAND FREE ENERGY PREDICTED BY IDOCK:   -6.71 KCAL/MOL
REMARK 924 INTRA-LIGAND FREE ENERGY PREDICTED BY IDOCK:   -0.76 KCAL/MOL
REMARK 927      BINDING AFFINITY PREDICTED BY RF-SCORE:    0.00 PKD
ROOT
HETATM    1  C   UNL     1     -12.649  13.119  65.106  1.00  0.00    -0.525 C  
HETATM    2  C   UNL     1     -11.721  12.817  66.274  1.00  0.00    -0.460 C  
ENDROOT
BRANCH   2   3
HETATM    3  C   UNL     1     -10.859  11.618  66.004  1.00  0.00    -0.339 A  
HETATM    4  C   UNL     1     -10.601  11.206  64.706  1.00  0.00    -0.303 A  
HETATM    5  N   UNL     1      -9.865  10.120  64.393  1.00  0.00    -0.300 NA 
HETATM    6  C   UNL     1      -9.333   9.386  65.404  1.00  0.00    -0.247 A  
HETATM    7  C   UNL     1      -9.546   9.719  66.736  1.00  0.00    -0.228 A  
HETATM    8  C   UNL     1     -10.317  10.847  67.033  1.00  0.00    -0.276 A  
BRANCH   6   9
HETATM    9  C   UNL     1      -8.523   8.163  65.017  1.00  0.00    -0.117 C  
BRANCH   9  10
HETATM   10  C   UNL     1      -8.439   7.213  66.210  1.00  0.00    -0.138 C  
BRANCH  10  11
HETATM   11  O   UNL     1      -9.467   6.215  66.239  1.00  0.00    -0.159 OA 
BRANCH  11  12
HETATM   12  C   UNL     1      -9.904   5.930  67.521  1.00  0.00    -0.125 A  
HETATM   13  C   UNL     1      -9.358   4.942  68.345  1.00  0.00    -0.172 A  
HETATM   14  C   UNL     1      -9.809   4.762  69.650  1.00  0.00    -0.292 A  
HETATM   15  C   UNL     1     -10.809   5.584  70.172  1.00  0.00    -0.299 A  
HETATM   16  C   UNL     1     -11.404   6.538  69.334  1.00  0.00    -0.395 A  
HETATM   17  C   UNL     1     -10.948   6.711  68.015  1.00  0.00    -0.332 A  
BRANCH  15  18
HETATM   18  C   UNL     1     -11.166   5.479  71.637  1.00  0.00    -0.135 C  
BRANCH  18  19
HETATM   19  C   UNL     1     -10.407   6.499  72.493  1.00  0.00    -0.194 C  
HETATM   20  S   UNL     1      -8.641   6.681  72.046  1.00  0.00    -0.123 SA 
HETATM   21  C   UNL     1      -8.740   8.417  71.997  1.00  0.00    -0.202 C  
HETATM   22  N   UNL     1     -10.033   8.810  72.025  1.00  0.00    -0.329 N  
HETATM   23  O   UNL     1      -7.772   9.156  71.976  1.00  0.00    -0.331 OA 
HETATM   24  C   UNL     1     -10.983   7.891  72.354  1.00  0.00    -0.325 C  
HETATM   25  H   UNL     1     -10.291   9.772  71.804  1.00  0.00     0.000 HD 
HETATM   26  O   UNL     1     -12.149   8.189  72.577  1.00  0.00    -0.365 OA 
ENDBRANCH  18  19
ENDBRANCH  15  18
ENDBRANCH  11  12
ENDBRANCH  10  11
ENDBRANCH   9  10
ENDBRANCH   6   9
ENDBRANCH   2   3
TORSDOF 7
ENDMDL
MODEL      151
REMARK 921   NORMALIZED FREE ENERGY PREDICTED BY IDOCK:   -4.48 KCAL/MOL
REMARK 922        TOTAL FREE ENERGY PREDICTED BY IDOCK:   -7.46 KCAL/MOL
REMARK 923 INTER-LIGAND FREE ENERGY PREDICTED BY IDOCK:   -6.46 KCAL/MOL
REMARK 924 INTRA-LIGAND FREE ENERGY PREDICTED BY IDOCK:   -1.00 KCAL/MOL
REMARK 927      BINDING AFFINITY PREDICTED BY RF-SCORE:    0.00 PKD
ROOT
HETATM    1  C   UNL     1     -10.115   5.643  71.659  1.00  0.00    -0.245 C  
HETATM    2  C   UNL     1     -10.929   6.451  70.659  1.00  0.00    -0.355 C  
ENDROOT
BRANCH   2   3
HETATM    3  C   UNL     1     -10.444   6.247  69.253  1.00  0.00    -0.298 A  
HETATM    4  C   UNL     1      -9.140   5.853  69.001  1.00  0.00    -0.121 A  
HETATM    5  N   UNL     1      -8.630   5.684  67.764  1.00  0.00    -0.102 NA 
HETATM    6  C   UNL     1      -9.439   5.904  66.695  1.00  0.00    -0.151 A  
HETATM    7  C   UNL     1     -10.758   6.311  66.852  1.00  0.00    -0.411 A  
HETATM    8  C   UNL     1     -11.261   6.483  68.145  1.00  0.00    -0.250 A  
BRANCH   6   9
HETATM    9  C   UNL     1      -8.828   5.721  65.318  1.00  0.00    -0.057 C  
BRANCH   9  10
HETATM   10  C   UNL     1      -7.630   6.657  65.168  1.00  0.00    -0.090 C  
BRANCH  10  11
HETATM   11  O   UNL     1      -7.794   7.660  64.157  1.00  0.00    -0.129 OA 
BRANCH  11  12
HETATM   12  C   UNL     1      -8.382   8.817  64.639  1.00  0.00    -0.166 A  
HETATM   13  C   UNL     1      -8.236   9.299  65.943  1.00  0.00    -0.116 A  
HETATM   14  C   UNL     1      -8.805  10.509  66.332  1.00  0.00    -0.165 A  
HETATM   15  C   UNL     1      -9.522  11.280  65.415  1.00  0.00    -0.251 A  
HETATM   16  C   UNL     1      -9.724  10.776  64.122  1.00  0.00    -0.364 A  
HETATM   17  C   UNL     1      -9.151   9.551  63.737  1.00  0.00    -0.153 A  
BRANCH  15  18
HETATM   18  C   UNL     1      -9.989  12.661  65.813  1.00  0.00    -0.266 C  
BRANCH  18  19
HETATM   19  C   UNL     1     -11.212  12.616  66.738  1.00  0.00    -0.300 C  
HETATM   20  S   UNL     1     -10.812  12.813  68.513  1.00  0.00    -0.259 SA 
HETATM   21  C   UNL     1     -12.034  14.028  68.745  1.00  0.00    -0.347 C  
HETATM   22  N   UNL     1     -12.499  14.455  67.550  1.00  0.00    -0.529 N  
HETATM   23  O   UNL     1     -12.427  14.403  69.835  1.00  0.00    -0.327 OA 
HETATM   24  C   UNL     1     -12.187  13.733  66.437  1.00  0.00    -0.436 C  
HETATM   25  H   UNL     1     -13.070  15.298  67.482  1.00  0.00     0.000 HD 
HETATM   26  O   UNL     1     -12.700  13.937  65.345  1.00  0.00    -0.570 OA 
ENDBRANCH  18  19
ENDBRANCH  15  18
ENDBRANCH  11  12
ENDBRANCH  10  11
ENDBRANCH   9  10
ENDBRANCH   6   9
ENDBRANCH   2   3
TORSDOF 7
ENDMDL
MODEL      152
REMARK 921   NORMALIZED FREE ENERGY PREDICTED BY IDOCK:   -4.48 KCAL/MOL
REMARK 922        TOTAL FREE ENERGY PREDICTED BY IDOCK:   -7.45 KCAL/MOL
REMARK 923 INTER-LIGAND FREE ENERGY PREDICTED BY IDOCK:   -6.37 KCAL/MOL
REMARK 924 INTRA-LIGAND FREE ENERGY PREDICTED BY IDOCK:   -1.08 KCAL/MOL
REMARK 927      BINDING AFFINITY PREDICTED BY RF-SCORE:    0.00 PKD
ROOT
HETATM    1  C   UNL     1      -7.964   5.290  63.776  1.00  0.00    -0.105 C  
HETATM    2  C   UNL     1      -7.696   5.925  65.133  1.00  0.00    -0.093 C  
ENDROOT
BRANCH   2   3
HETATM    3  C   UNL     1      -8.378   7.256  65.268  1.00  0.00    -0.110 A  
HETATM    4  C   UNL     1      -8.034   8.317  64.446  1.00  0.00    -0.144 A  
HETATM    5  N   UNL     1      -8.581   9.547  64.536  1.00  0.00    -0.175 NA 
HETATM    6  C   UNL     1      -9.533   9.764  65.479  1.00  0.00    -0.262 A  
HETATM    7  C   UNL     1      -9.934   8.761  66.353  1.00  0.00    -0.346 A  
HETATM    8  C   UNL     1      -9.349   7.497  66.242  1.00  0.00    -0.176 A  
BRANCH   6   9
HETATM    9  C   UNL     1     -10.116  11.162  65.563  1.00  0.00    -0.309 C  
BRANCH   9  10
HETATM   10  C   UNL     1      -9.246  12.019  66.481  1.00  0.00    -0.216 C  
BRANCH  10  11
HETATM   11  O   UNL     1      -9.983  12.759  67.463  1.00  0.00    -0.205 OA 
BRANCH  11  12
HETATM   12  C   UNL     1     -10.478  11.958  68.478  1.00  0.00    -0.224 A  
HETATM   13  C   UNL     1     -11.771  12.046  69.000  1.00  0.00    -0.382 A  
HETATM   14  C   UNL     1     -12.217  11.158  69.976  1.00  0.00    -0.402 A  
HETATM   15  C   UNL     1     -11.381  10.142  70.441  1.00  0.00    -0.401 A  
HETATM   16  C   UNL     1     -10.062  10.083  69.967  1.00  0.00    -0.289 A  
HETATM   17  C   UNL     1      -9.617  10.986  68.986  1.00  0.00    -0.136 A  
BRANCH  15  18
HETATM   18  C   UNL     1     -11.938   9.092  71.376  1.00  0.00    -0.410 C  
BRANCH  18  19
HETATM   19  C   UNL     1     -10.971   7.918  71.571  1.00  0.00    -0.231 C  
HETATM   20  S   UNL     1     -10.589   7.550  73.323  1.00  0.00    -0.348 SA 
HETATM   21  C   UNL     1     -10.902   5.851  73.128  1.00  0.00    -0.266 C  
HETATM   22  N   UNL     1     -11.515   5.623  71.945  1.00  0.00    -0.161 N  
HETATM   23  O   UNL     1     -10.579   4.999  73.936  1.00  0.00    -0.246 OA 
HETATM   24  C   UNL     1     -11.536   6.626  71.022  1.00  0.00    -0.346 C  
HETATM   25  H   UNL     1     -11.952   4.723  71.746  1.00  0.00     0.000 HD 
HETATM   26  O   UNL     1     -11.907   6.462  69.868  1.00  0.00    -0.384 OA 
ENDBRANCH  18  19
ENDBRANCH  15  18
ENDBRANCH  11  12
ENDBRANCH  10  11
ENDBRANCH   9  10
ENDBRANCH   6   9
ENDBRANCH   2   3
TORSDOF 7
ENDMDL
MODEL      153
REMARK 921   NORMALIZED FREE ENERGY PREDICTED BY IDOCK:   -4.47 KCAL/MOL
REMARK 922        TOTAL FREE ENERGY PREDICTED BY IDOCK:   -7.45 KCAL/MOL
REMARK 923 INTER-LIGAND FREE ENERGY PREDICTED BY IDOCK:   -6.79 KCAL/MOL
REMARK 924 INTRA-LIGAND FREE ENERGY PREDICTED BY IDOCK:   -0.65 KCAL/MOL
REMARK 927      BINDING AFFINITY PREDICTED BY RF-SCORE:    0.00 PKD
ROOT
HETATM    1  C   UNL     1     -13.972   8.855  72.540  1.00  0.00    -0.466 C  
HETATM    2  C   UNL     1     -13.184   9.953  71.841  1.00  0.00    -0.558 C  
ENDROOT
BRANCH   2   3
HETATM    3  C   UNL     1     -11.903   9.432  71.256  1.00  0.00    -0.435 A  
HETATM    4  C   UNL     1     -11.661   9.508  69.893  1.00  0.00     0.015 A  
HETATM    5  N   UNL     1     -10.549   9.030  69.298  1.00  0.00    -0.227 NA 
HETATM    6  C   UNL     1      -9.600   8.445  70.075  1.00  0.00    -0.168 A  
HETATM    7  C   UNL     1      -9.762   8.316  71.448  1.00  0.00    -0.237 A  
HETATM    8  C   UNL     1     -10.926   8.816  72.040  1.00  0.00    -0.438 A  
BRANCH   6   9
HETATM    9  C   UNL     1      -8.370   7.904  69.371  1.00  0.00    -0.132 C  
BRANCH   9  10
HETATM   10  C   UNL     1      -8.733   7.527  67.936  1.00  0.00    -0.124 C  
BRANCH  10  11
HETATM   11  O   UNL     1      -7.946   8.193  66.939  1.00  0.00    -0.101 OA 
BRANCH  11  12
HETATM   12  C   UNL     1      -8.502   9.392  66.530  1.00  0.00    -0.133 A  
HETATM   13  C   UNL     1      -7.971  10.653  66.817  1.00  0.00    -0.132 A  
HETATM   14  C   UNL     1      -8.552  11.813  66.310  1.00  0.00    -0.062 A  
HETATM   15  C   UNL     1      -9.674  11.737  65.483  1.00  0.00    -0.248 A  
HETATM   16  C   UNL     1     -10.248  10.482  65.238  1.00  0.00    -0.352 A  
HETATM   17  C   UNL     1      -9.660   9.316  65.757  1.00  0.00    -0.341 A  
BRANCH  15  18
HETATM   18  C   UNL     1     -10.187  12.992  64.814  1.00  0.00    -0.312 C  
BRANCH  18  19
HETATM   19  C   UNL     1     -11.260  13.698  65.652  1.00  0.00    -0.297 C  
HETATM   20  S   UNL     1     -11.333  13.140  67.393  1.00  0.00    -0.324 SA 
HETATM   21  C   UNL     1     -11.324  14.767  68.008  1.00  0.00    -0.316 C  
HETATM   22  N   UNL     1     -11.004  15.635  67.023  1.00  0.00    -0.301 N  
HETATM   23  O   UNL     1     -11.603  15.065  69.156  1.00  0.00    -0.278 OA 
HETATM   24  C   UNL     1     -11.019  15.189  65.736  1.00  0.00    -0.349 C  
HETATM   25  H   UNL     1     -10.757  16.602  67.238  1.00  0.00     0.000 HD 
HETATM   26  O   UNL     1     -10.917  15.935  64.771  1.00  0.00    -0.480 OA 
ENDBRANCH  18  19
ENDBRANCH  15  18
ENDBRANCH  11  12
ENDBRANCH  10  11
ENDBRANCH   9  10
ENDBRANCH   6   9
ENDBRANCH   2   3
TORSDOF 7
ENDMDL
MODEL      154
REMARK 921   NORMALIZED FREE ENERGY PREDICTED BY IDOCK:   -4.47 KCAL/MOL
REMARK 922        TOTAL FREE ENERGY PREDICTED BY IDOCK:   -7.44 KCAL/MOL
REMARK 923 INTER-LIGAND FREE ENERGY PREDICTED BY IDOCK:   -7.31 KCAL/MOL
REMARK 924 INTRA-LIGAND FREE ENERGY PREDICTED BY IDOCK:   -0.13 KCAL/MOL
REMARK 927      BINDING AFFINITY PREDICTED BY RF-SCORE:    0.00 PKD
ROOT
HETATM    1  C   UNL     1     -10.471  18.474  67.108  1.00  0.00    -0.446 C  
HETATM    2  C   UNL     1      -9.882  17.071  67.077  1.00  0.00    -0.270 C  
ENDROOT
BRANCH   2   3
HETATM    3  C   UNL     1     -10.527  16.174  68.094  1.00  0.00    -0.279 A  
HETATM    4  C   UNL     1     -10.407  16.435  69.449  1.00  0.00    -0.290 A  
HETATM    5  N   UNL     1     -10.931  15.654  70.416  1.00  0.00    -0.326 NA 
HETATM    6  C   UNL     1     -11.628  14.548  70.046  1.00  0.00    -0.284 A  
HETATM    7  C   UNL     1     -11.791  14.203  68.711  1.00  0.00    -0.384 A  
HETATM    8  C   UNL     1     -11.234  15.027  67.729  1.00  0.00    -0.327 A  
BRANCH   6   9
HETATM    9  C   UNL     1     -12.190  13.683  71.159  1.00  0.00    -0.326 C  
BRANCH   9  10
HETATM   10  C   UNL     1     -12.437  12.273  70.628  1.00  0.00    -0.236 C  
BRANCH  10  11
HETATM   11  O   UNL     1     -12.885  11.343  71.623  1.00  0.00    -0.420 OA 
BRANCH  11  12
HETATM   12  C   UNL     1     -12.406  10.061  71.415  1.00  0.00    -0.415 A  
HETATM   13  C   UNL     1     -11.092   9.753  71.051  1.00  0.00    -0.431 A  
HETATM   14  C   UNL     1     -10.670   8.431  70.926  1.00  0.00    -0.260 A  
HETATM   15  C   UNL     1     -11.552   7.380  71.183  1.00  0.00    -0.313 A  
HETATM   16  C   UNL     1     -12.887   7.680  71.490  1.00  0.00    -0.376 A  
HETATM   17  C   UNL     1     -13.308   9.016  71.609  1.00  0.00    -0.433 A  
BRANCH  15  18
HETATM   18  C   UNL     1     -11.031   5.962  71.202  1.00  0.00    -0.327 C  
BRANCH  18  19
HETATM   19  C   UNL     1     -10.439   5.544  69.850  1.00  0.00    -0.316 C  
HETATM   20  S   UNL     1     -11.015   6.558  68.439  1.00  0.00    -0.251 SA 
HETATM   21  C   UNL     1      -9.400   6.809  67.844  1.00  0.00    -0.113 C  
HETATM   22  N   UNL     1      -8.497   6.419  68.771  1.00  0.00    -0.120 N  
HETATM   23  O   UNL     1      -9.140   7.242  66.736  1.00  0.00    -0.135 OA 
HETATM   24  C   UNL     1      -8.932   5.679  69.829  1.00  0.00    -0.127 C  
HETATM   25  H   UNL     1      -7.513   6.673  68.682  1.00  0.00     0.000 HD 
HETATM   26  O   UNL     1      -8.172   5.134  70.619  1.00  0.00    -0.102 OA 
ENDBRANCH  18  19
ENDBRANCH  15  18
ENDBRANCH  11  12
ENDBRANCH  10  11
ENDBRANCH   9  10
ENDBRANCH   6   9
ENDBRANCH   2   3
TORSDOF 7
ENDMDL
MODEL      155
REMARK 921   NORMALIZED FREE ENERGY PREDICTED BY IDOCK:   -4.46 KCAL/MOL
REMARK 922        TOTAL FREE ENERGY PREDICTED BY IDOCK:   -7.44 KCAL/MOL
REMARK 923 INTER-LIGAND FREE ENERGY PREDICTED BY IDOCK:   -6.57 KCAL/MOL
REMARK 924 INTRA-LIGAND FREE ENERGY PREDICTED BY IDOCK:   -0.87 KCAL/MOL
REMARK 927      BINDING AFFINITY PREDICTED BY RF-SCORE:    0.00 PKD
ROOT
HETATM    1  C   UNL     1      -6.617   8.855  66.607  1.00  0.00    -0.064 C  
HETATM    2  C   UNL     1      -6.692  10.170  65.844  1.00  0.00    -0.107 C  
ENDROOT
BRANCH   2   3
HETATM    3  C   UNL     1      -7.809  11.040  66.344  1.00  0.00    -0.150 A  
HETATM    4  C   UNL     1      -9.062  10.997  65.754  1.00  0.00    -0.202 A  
HETATM    5  N   UNL     1     -10.099  11.774  66.131  1.00  0.00    -0.217 NA 
HETATM    6  C   UNL     1      -9.914  12.647  67.154  1.00  0.00    -0.217 A  
HETATM    7  C   UNL     1      -8.689  12.765  67.798  1.00  0.00    -0.184 A  
HETATM    8  C   UNL     1      -7.630  11.952  67.386  1.00  0.00    -0.151 A  
BRANCH   6   9
HETATM    9  C   UNL     1     -11.096  13.517  67.541  1.00  0.00    -0.293 C  
BRANCH   9  10
HETATM   10  C   UNL     1     -11.765  12.937  68.786  1.00  0.00    -0.323 C  
BRANCH  10  11
HETATM   11  O   UNL     1     -12.216  11.585  68.632  1.00  0.00    -0.492 OA 
BRANCH  11  12
HETATM   12  C   UNL     1     -11.907  10.789  69.721  1.00  0.00    -0.335 A  
HETATM   13  C   UNL     1     -12.793  10.480  70.757  1.00  0.00    -0.454 A  
HETATM   14  C   UNL     1     -12.426   9.614  71.785  1.00  0.00    -0.487 A  
HETATM   15  C   UNL     1     -11.164   9.018  71.790  1.00  0.00    -0.448 A  
HETATM   16  C   UNL     1     -10.249   9.368  70.788  1.00  0.00    -0.368 A  
HETATM   17  C   UNL     1     -10.623  10.247  69.756  1.00  0.00    -0.312 A  
BRANCH  15  18
HETATM   18  C   UNL     1     -10.849   7.959  72.822  1.00  0.00    -0.451 C  
BRANCH  18  19
HETATM   19  C   UNL     1     -10.725   6.562  72.200  1.00  0.00    -0.221 C  
HETATM   20  S   UNL     1     -11.637   6.364  70.625  1.00  0.00    -0.289 SA 
HETATM   21  C   UNL     1     -10.267   5.661  69.816  1.00  0.00    -0.251 C  
HETATM   22  N   UNL     1      -9.151   5.827  70.561  1.00  0.00    -0.145 N  
HETATM   23  O   UNL     1     -10.329   5.078  68.749  1.00  0.00    -0.139 OA 
HETATM   24  C   UNL     1      -9.290   6.224  71.857  1.00  0.00    -0.149 C  
HETATM   25  H   UNL     1      -8.227   5.659  70.163  1.00  0.00     0.000 HD 
HETATM   26  O   UNL     1      -8.362   6.231  72.655  1.00  0.00    -0.120 OA 
ENDBRANCH  18  19
ENDBRANCH  15  18
ENDBRANCH  11  12
ENDBRANCH  10  11
ENDBRANCH   9  10
ENDBRANCH   6   9
ENDBRANCH   2   3
TORSDOF 7
ENDMDL
MODEL      156
REMARK 921   NORMALIZED FREE ENERGY PREDICTED BY IDOCK:   -4.46 KCAL/MOL
REMARK 922        TOTAL FREE ENERGY PREDICTED BY IDOCK:   -7.43 KCAL/MOL
REMARK 923 INTER-LIGAND FREE ENERGY PREDICTED BY IDOCK:   -6.62 KCAL/MOL
REMARK 924 INTRA-LIGAND FREE ENERGY PREDICTED BY IDOCK:   -0.81 KCAL/MOL
REMARK 927      BINDING AFFINITY PREDICTED BY RF-SCORE:    0.00 PKD
ROOT
HETATM    1  C   UNL     1     -10.865  16.288  69.261  1.00  0.00    -0.318 C  
HETATM    2  C   UNL     1     -11.865  15.221  68.840  1.00  0.00    -0.344 C  
ENDROOT
BRANCH   2   3
HETATM    3  C   UNL     1     -11.500  14.606  67.520  1.00  0.00    -0.378 A  
HETATM    4  C   UNL     1     -12.232  13.549  67.002  1.00  0.00    -0.303 A  
HETATM    5  N   UNL     1     -11.940  12.928  65.841  1.00  0.00    -0.428 NA 
HETATM    6  C   UNL     1     -10.871  13.365  65.126  1.00  0.00    -0.313 A  
HETATM    7  C   UNL     1     -10.074  14.412  65.573  1.00  0.00    -0.382 A  
HETATM    8  C   UNL     1     -10.396  15.035  66.781  1.00  0.00    -0.270 A  
BRANCH   6   9
HETATM    9  C   UNL     1     -10.561  12.634  63.833  1.00  0.00    -0.460 C  
BRANCH   9  10
HETATM   10  C   UNL     1     -10.674  11.128  64.063  1.00  0.00    -0.339 C  
BRANCH  10  11
HETATM   11  O   UNL     1      -9.418  10.472  64.274  1.00  0.00    -0.234 OA 
BRANCH  11  12
HETATM   12  C   UNL     1      -9.480   9.493  65.250  1.00  0.00    -0.258 A  
HETATM   13  C   UNL     1      -8.676   8.350  65.281  1.00  0.00    -0.148 A  
HETATM   14  C   UNL     1      -8.752   7.444  66.336  1.00  0.00    -0.154 A  
HETATM   15  C   UNL     1      -9.625   7.671  67.401  1.00  0.00    -0.187 A  
HETATM   16  C   UNL     1     -10.477   8.783  67.349  1.00  0.00    -0.349 A  
HETATM   17  C   UNL     1     -10.400   9.691  66.279  1.00  0.00    -0.230 A  
BRANCH  15  18
HETATM   18  C   UNL     1      -9.573   6.764  68.610  1.00  0.00    -0.131 C  
BRANCH  18  19
HETATM   19  C   UNL     1      -8.856   7.420  69.796  1.00  0.00    -0.141 C  
HETATM   20  S   UNL     1      -7.276   8.232  69.356  1.00  0.00    -0.060 SA 
HETATM   21  C   UNL     1      -7.692   9.699  70.191  1.00  0.00    -0.170 C  
HETATM   22  N   UNL     1      -9.004   9.691  70.520  1.00  0.00    -0.314 N  
HETATM   23  O   UNL     1      -6.897  10.580  70.463  1.00  0.00    -0.312 OA 
HETATM   24  C   UNL     1      -9.690   8.518  70.422  1.00  0.00    -0.175 C  
HETATM   25  H   UNL     1      -9.469  10.543  70.833  1.00  0.00     0.000 HD 
HETATM   26  O   UNL     1     -10.823   8.369  70.859  1.00  0.00    -0.221 OA 
ENDBRANCH  18  19
ENDBRANCH  15  18
ENDBRANCH  11  12
ENDBRANCH  10  11
ENDBRANCH   9  10
ENDBRANCH   6   9
ENDBRANCH   2   3
TORSDOF 7
ENDMDL
MODEL      157
REMARK 921   NORMALIZED FREE ENERGY PREDICTED BY IDOCK:   -4.46 KCAL/MOL
REMARK 922        TOTAL FREE ENERGY PREDICTED BY IDOCK:   -7.42 KCAL/MOL
REMARK 923 INTER-LIGAND FREE ENERGY PREDICTED BY IDOCK:   -6.51 KCAL/MOL
REMARK 924 INTRA-LIGAND FREE ENERGY PREDICTED BY IDOCK:   -0.91 KCAL/MOL
REMARK 927      BINDING AFFINITY PREDICTED BY RF-SCORE:    0.00 PKD
ROOT
HETATM    1  C   UNL     1      -5.422  18.655  70.147  1.00  0.00    -0.232 C  
HETATM    2  C   UNL     1      -5.840  17.195  70.049  1.00  0.00    -0.225 C  
ENDROOT
BRANCH   2   3
HETATM    3  C   UNL     1      -7.045  17.019  69.170  1.00  0.00    -0.221 A  
HETATM    4  C   UNL     1      -7.924  15.967  69.372  1.00  0.00    -0.152 A  
HETATM    5  N   UNL     1      -9.005  15.731  68.601  1.00  0.00    -0.192 NA 
HETATM    6  C   UNL     1      -9.260  16.576  67.569  1.00  0.00    -0.202 A  
HETATM    7  C   UNL     1      -8.428  17.652  67.286  1.00  0.00    -0.225 A  
HETATM    8  C   UNL     1      -7.312  17.872  68.097  1.00  0.00    -0.241 A  
BRANCH   6   9
HETATM    9  C   UNL     1     -10.475  16.271  66.712  1.00  0.00    -0.287 C  
BRANCH   9  10
HETATM   10  C   UNL     1     -10.074  15.323  65.583  1.00  0.00    -0.371 C  
BRANCH  10  11
HETATM   11  O   UNL     1     -11.004  14.256  65.358  1.00  0.00    -0.306 OA 
BRANCH  11  12
HETATM   12  C   UNL     1     -10.846  13.209  66.249  1.00  0.00    -0.279 A  
HETATM   13  C   UNL     1     -11.892  12.577  66.927  1.00  0.00    -0.404 A  
HETATM   14  C   UNL     1     -11.658  11.484  67.757  1.00  0.00    -0.338 A  
HETATM   15  C   UNL     1     -10.365  10.981  67.915  1.00  0.00    -0.213 A  
HETATM   16  C   UNL     1      -9.302  11.645  67.287  1.00  0.00    -0.170 A  
HETATM   17  C   UNL     1      -9.545  12.751  66.454  1.00  0.00    -0.254 A  
BRANCH  15  18
HETATM   18  C   UNL     1     -10.158   9.698  68.688  1.00  0.00    -0.196 C  
BRANCH  18  19
HETATM   19  C   UNL     1     -10.260   9.911  70.203  1.00  0.00    -0.273 C  
HETATM   20  S   UNL     1     -11.723   9.122  70.969  1.00  0.00    -0.308 SA 
HETATM   21  C   UNL     1     -10.777   8.385  72.229  1.00  0.00    -0.347 C  
HETATM   22  N   UNL     1      -9.460   8.479  71.938  1.00  0.00    -0.254 N  
HETATM   23  O   UNL     1     -11.248   7.891  73.237  1.00  0.00    -0.308 OA 
HETATM   24  C   UNL     1      -9.076   9.319  70.936  1.00  0.00    -0.222 C  
HETATM   25  H   UNL     1      -8.770   7.934  72.455  1.00  0.00     0.000 HD 
HETATM   26  O   UNL     1      -7.906   9.605  70.717  1.00  0.00    -0.292 OA 
ENDBRANCH  18  19
ENDBRANCH  15  18
ENDBRANCH  11  12
ENDBRANCH  10  11
ENDBRANCH   9  10
ENDBRANCH   6   9
ENDBRANCH   2   3
TORSDOF 7
ENDMDL
MODEL      158
REMARK 921   NORMALIZED FREE ENERGY PREDICTED BY IDOCK:   -4.45 KCAL/MOL
REMARK 922        TOTAL FREE ENERGY PREDICTED BY IDOCK:   -7.42 KCAL/MOL
REMARK 923 INTER-LIGAND FREE ENERGY PREDICTED BY IDOCK:   -6.84 KCAL/MOL
REMARK 924 INTRA-LIGAND FREE ENERGY PREDICTED BY IDOCK:   -0.58 KCAL/MOL
REMARK 927      BINDING AFFINITY PREDICTED BY RF-SCORE:    0.00 PKD
ROOT
HETATM    1  C   UNL     1      -9.510   3.860  64.062  1.00  0.00    -0.157 C  
HETATM    2  C   UNL     1      -8.432   4.777  64.620  1.00  0.00    -0.139 C  
ENDROOT
BRANCH   2   3
HETATM    3  C   UNL     1      -9.002   5.799  65.561  1.00  0.00    -0.088 A  
HETATM    4  C   UNL     1     -10.103   5.503  66.349  1.00  0.00    -0.182 A  
HETATM    5  N   UNL     1     -10.686   6.382  67.189  1.00  0.00    -0.316 NA 
HETATM    6  C   UNL     1     -10.164   7.632  67.281  1.00  0.00    -0.272 A  
HETATM    7  C   UNL     1      -9.067   8.021  66.523  1.00  0.00    -0.213 A  
HETATM    8  C   UNL     1      -8.484   7.092  65.656  1.00  0.00    -0.144 A  
BRANCH   6   9
HETATM    9  C   UNL     1     -10.854   8.601  68.224  1.00  0.00    -0.005 C  
BRANCH   9  10
HETATM   10  C   UNL     1     -10.658  10.028  67.716  1.00  0.00    -0.261 C  
BRANCH  10  11
HETATM   11  O   UNL     1     -11.855  10.817  67.712  1.00  0.00    -0.538 OA 
BRANCH  11  12
HETATM   12  C   UNL     1     -11.605  12.172  67.844  1.00  0.00    -0.347 A  
HETATM   13  C   UNL     1     -11.134  12.997  66.819  1.00  0.00    -0.316 A  
HETATM   14  C   UNL     1     -10.973  14.367  67.013  1.00  0.00    -0.304 A  
HETATM   15  C   UNL     1     -11.300  14.950  68.238  1.00  0.00    -0.325 A  
HETATM   16  C   UNL     1     -11.716  14.122  69.290  1.00  0.00    -0.368 A  
HETATM   17  C   UNL     1     -11.872  12.739  69.090  1.00  0.00    -0.352 A  
BRANCH  15  18
HETATM   18  C   UNL     1     -11.274  16.456  68.374  1.00  0.00    -0.324 C  
BRANCH  18  19
HETATM   19  C   UNL     1     -10.110  17.087  67.599  1.00  0.00    -0.298 C  
HETATM   20  S   UNL     1     -10.470  18.757  66.944  1.00  0.00    -0.413 SA 
HETATM   21  C   UNL     1      -8.990  19.420  67.571  1.00  0.00    -0.303 C  
HETATM   22  N   UNL     1      -8.420  18.551  68.436  1.00  0.00    -0.321 N  
HETATM   23  O   UNL     1      -8.530  20.498  67.241  1.00  0.00    -0.343 OA 
HETATM   24  C   UNL     1      -8.887  17.272  68.471  1.00  0.00    -0.269 C  
HETATM   25  H   UNL     1      -7.659  18.846  69.048  1.00  0.00     0.000 HD 
HETATM   26  O   UNL     1      -8.327  16.374  69.086  1.00  0.00    -0.239 OA 
ENDBRANCH  18  19
ENDBRANCH  15  18
ENDBRANCH  11  12
ENDBRANCH  10  11
ENDBRANCH   9  10
ENDBRANCH   6   9
ENDBRANCH   2   3
TORSDOF 7
ENDMDL
MODEL      159
REMARK 921   NORMALIZED FREE ENERGY PREDICTED BY IDOCK:   -4.45 KCAL/MOL
REMARK 922        TOTAL FREE ENERGY PREDICTED BY IDOCK:   -7.42 KCAL/MOL
REMARK 923 INTER-LIGAND FREE ENERGY PREDICTED BY IDOCK:   -6.78 KCAL/MOL
REMARK 924 INTRA-LIGAND FREE ENERGY PREDICTED BY IDOCK:   -0.64 KCAL/MOL
REMARK 927      BINDING AFFINITY PREDICTED BY RF-SCORE:    0.00 PKD
ROOT
HETATM    1  C   UNL     1      -6.049  20.988  65.986  1.00  0.00    -0.304 C  
HETATM    2  C   UNL     1      -7.022  21.034  67.154  1.00  0.00    -0.411 C  
ENDROOT
BRANCH   2   3
HETATM    3  C   UNL     1      -7.931  19.838  67.168  1.00  0.00    -0.323 A  
HETATM    4  C   UNL     1      -8.922  19.688  66.211  1.00  0.00    -0.375 A  
HETATM    5  N   UNL     1      -9.793  18.658  66.184  1.00  0.00    -0.489 NA 
HETATM    6  C   UNL     1      -9.694  17.703  67.144  1.00  0.00    -0.291 A  
HETATM    7  C   UNL     1      -8.737  17.776  68.149  1.00  0.00    -0.266 A  
HETATM    8  C   UNL     1      -7.850  18.856  68.156  1.00  0.00    -0.327 A  
BRANCH   6   9
HETATM    9  C   UNL     1     -10.700  16.567  67.094  1.00  0.00    -0.220 C  
BRANCH   9  10
HETATM   10  C   UNL     1     -10.583  15.847  65.752  1.00  0.00    -0.355 C  
BRANCH  10  11
HETATM   11  O   UNL     1     -11.620  14.887  65.511  1.00  0.00    -0.336 OA 
BRANCH  11  12
HETATM   12  C   UNL     1     -11.229  13.590  65.797  1.00  0.00    -0.297 A  
HETATM   13  C   UNL     1     -11.671  12.852  66.899  1.00  0.00    -0.445 A  
HETATM   14  C   UNL     1     -11.284  11.527  67.081  1.00  0.00    -0.365 A  
HETATM   15  C   UNL     1     -10.456  10.898  66.149  1.00  0.00    -0.290 A  
HETATM   16  C   UNL     1      -9.961  11.648  65.073  1.00  0.00    -0.297 A  
HETATM   17  C   UNL     1     -10.351  12.988  64.898  1.00  0.00    -0.343 A  
BRANCH  15  18
HETATM   18  C   UNL     1     -10.184   9.417  66.279  1.00  0.00    -0.284 C  
BRANCH  18  19
HETATM   19  C   UNL     1      -8.732   9.128  66.679  1.00  0.00    -0.127 C  
HETATM   20  S   UNL     1      -8.557   8.291  68.297  1.00  0.00    -0.133 SA 
HETATM   21  C   UNL     1      -7.481   7.083  67.656  1.00  0.00    -0.098 C  
HETATM   22  N   UNL     1      -7.483   7.128  66.305  1.00  0.00    -0.085 N  
HETATM   23  O   UNL     1      -6.805   6.337  68.342  1.00  0.00    -0.065 OA 
HETATM   24  C   UNL     1      -8.049   8.206  65.693  1.00  0.00    -0.119 C  
HETATM   25  H   UNL     1      -7.071   6.373  65.757  1.00  0.00     0.000 HD 
HETATM   26  O   UNL     1      -7.945   8.421  64.493  1.00  0.00    -0.131 OA 
ENDBRANCH  18  19
ENDBRANCH  15  18
ENDBRANCH  11  12
ENDBRANCH  10  11
ENDBRANCH   9  10
ENDBRANCH   6   9
ENDBRANCH   2   3
TORSDOF 7
ENDMDL
MODEL      160
REMARK 921   NORMALIZED FREE ENERGY PREDICTED BY IDOCK:   -4.45 KCAL/MOL
REMARK 922        TOTAL FREE ENERGY PREDICTED BY IDOCK:   -7.42 KCAL/MOL
REMARK 923 INTER-LIGAND FREE ENERGY PREDICTED BY IDOCK:   -7.06 KCAL/MOL
REMARK 924 INTRA-LIGAND FREE ENERGY PREDICTED BY IDOCK:   -0.35 KCAL/MOL
REMARK 927      BINDING AFFINITY PREDICTED BY RF-SCORE:    0.00 PKD
ROOT
HETATM    1  C   UNL     1     -10.716   6.301  71.689  1.00  0.00    -0.284 C  
HETATM    2  C   UNL     1     -11.967   6.785  70.973  1.00  0.00    -0.431 C  
ENDROOT
BRANCH   2   3
HETATM    3  C   UNL     1     -12.189   8.257  71.174  1.00  0.00    -0.253 A  
HETATM    4  C   UNL     1     -13.225   8.717  71.971  1.00  0.00    -0.386 A  
HETATM    5  N   UNL     1     -13.501  10.022  72.168  1.00  0.00    -0.397 NA 
HETATM    6  C   UNL     1     -12.716  10.948  71.558  1.00  0.00    -0.428 A  
HETATM    7  C   UNL     1     -11.661  10.579  70.734  1.00  0.00    -0.454 A  
HETATM    8  C   UNL     1     -11.399   9.220  70.543  1.00  0.00    -0.306 A  
BRANCH   6   9
HETATM    9  C   UNL     1     -13.065  12.407  71.788  1.00  0.00    -0.446 C  
BRANCH   9  10
HETATM   10  C   UNL     1     -12.758  13.206  70.523  1.00  0.00    -0.070 C  
BRANCH  10  11
HETATM   11  O   UNL     1     -11.756  14.215  70.697  1.00  0.00    -0.277 OA 
BRANCH  11  12
HETATM   12  C   UNL     1     -11.104  14.534  69.518  1.00  0.00    -0.253 A  
HETATM   13  C   UNL     1     -11.731  14.680  68.278  1.00  0.00    -0.359 A  
HETATM   14  C   UNL     1     -11.015  15.070  67.149  1.00  0.00    -0.329 A  
HETATM   15  C   UNL     1      -9.649  15.344  67.239  1.00  0.00    -0.213 A  
HETATM   16  C   UNL     1      -9.000  15.144  68.466  1.00  0.00    -0.186 A  
HETATM   17  C   UNL     1      -9.728  14.744  69.600  1.00  0.00     0.107 A  
BRANCH  15  18
HETATM   18  C   UNL     1      -8.928  15.922  66.043  1.00  0.00    -0.337 C  
BRANCH  18  19
HETATM   19  C   UNL     1      -8.453  17.359  66.291  1.00  0.00    -0.225 C  
HETATM   20  S   UNL     1      -9.466  18.280  67.506  1.00  0.00    -0.270 SA 
HETATM   21  C   UNL     1      -8.072  18.817  68.396  1.00  0.00    -0.340 C  
HETATM   22  N   UNL     1      -6.974  18.136  67.997  1.00  0.00    -0.212 N  
HETATM   23  O   UNL     1      -8.093  19.704  69.230  1.00  0.00    -0.244 OA 
HETATM   24  C   UNL     1      -7.049  17.399  66.853  1.00  0.00    -0.194 C  
HETATM   25  H   UNL     1      -6.111  18.172  68.539  1.00  0.00     0.000 HD 
HETATM   26  O   UNL     1      -6.069  16.895  66.320  1.00  0.00    -0.278 OA 
ENDBRANCH  18  19
ENDBRANCH  15  18
ENDBRANCH  11  12
ENDBRANCH  10  11
ENDBRANCH   9  10
ENDBRANCH   6   9
ENDBRANCH   2   3
TORSDOF 7
ENDMDL
MODEL      161
REMARK 921   NORMALIZED FREE ENERGY PREDICTED BY IDOCK:   -4.45 KCAL/MOL
REMARK 922        TOTAL FREE ENERGY PREDICTED BY IDOCK:   -7.41 KCAL/MOL
REMARK 923 INTER-LIGAND FREE ENERGY PREDICTED BY IDOCK:   -6.95 KCAL/MOL
REMARK 924 INTRA-LIGAND FREE ENERGY PREDICTED BY IDOCK:   -0.46 KCAL/MOL
REMARK 927      BINDING AFFINITY PREDICTED BY RF-SCORE:    0.00 PKD
ROOT
HETATM    1  C   UNL     1     -10.202  19.624  68.221  1.00  0.00    -0.567 C  
HETATM    2  C   UNL     1      -9.835  18.827  66.978  1.00  0.00    -0.359 C  
ENDROOT
BRANCH   2   3
HETATM    3  C   UNL     1     -10.314  17.407  67.066  1.00  0.00    -0.318 A  
HETATM    4  C   UNL     1     -10.296  16.581  65.953  1.00  0.00    -0.350 A  
HETATM    5  N   UNL     1     -10.742  15.308  65.954  1.00  0.00    -0.322 NA 
HETATM    6  C   UNL     1     -11.232  14.795  67.112  1.00  0.00    -0.343 A  
HETATM    7  C   UNL     1     -11.297  15.553  68.274  1.00  0.00    -0.360 A  
HETATM    8  C   UNL     1     -10.833  16.871  68.246  1.00  0.00    -0.357 A  
BRANCH   6   9
HETATM    9  C   UNL     1     -11.740  13.365  67.073  1.00  0.00    -0.426 C  
BRANCH   9  10
HETATM   10  C   UNL     1     -10.715  12.445  67.733  1.00  0.00    -0.221 C  
BRANCH  10  11
HETATM   11  O   UNL     1      -9.489  12.313  67.001  1.00  0.00    -0.194 OA 
BRANCH  11  12
HETATM   12  C   UNL     1      -9.076  10.998  66.879  1.00  0.00    -0.156 A  
HETATM   13  C   UNL     1      -7.899  10.481  67.428  1.00  0.00    -0.106 A  
HETATM   14  C   UNL     1      -7.586   9.128  67.319  1.00  0.00    -0.088 A  
HETATM   15  C   UNL     1      -8.458   8.252  66.671  1.00  0.00    -0.124 A  
HETATM   16  C   UNL     1      -9.611   8.772  66.066  1.00  0.00    -0.297 A  
HETATM   17  C   UNL     1      -9.918  10.139  66.175  1.00  0.00    -0.310 A  
BRANCH  15  18
HETATM   18  C   UNL     1      -8.179   6.766  66.707  1.00  0.00    -0.114 C  
BRANCH  18  19
HETATM   19  C   UNL     1      -9.031   6.042  67.757  1.00  0.00    -0.111 C  
HETATM   20  S   UNL     1      -9.225   6.965  69.326  1.00  0.00    -0.137 SA 
HETATM   21  C   UNL     1     -10.950   6.742  69.348  1.00  0.00    -0.276 C  
HETATM   22  N   UNL     1     -11.374   6.276  68.152  1.00  0.00    -0.514 N  
HETATM   23  O   UNL     1     -11.653   6.948  70.321  1.00  0.00    -0.324 OA 
HETATM   24  C   UNL     1     -10.445   5.810  67.271  1.00  0.00    -0.266 C  
HETATM   25  H   UNL     1     -12.366   6.275  67.914  1.00  0.00     0.000 HD 
HETATM   26  O   UNL     1     -10.741   5.211  66.245  1.00  0.00    -0.310 OA 
ENDBRANCH  18  19
ENDBRANCH  15  18
ENDBRANCH  11  12
ENDBRANCH  10  11
ENDBRANCH   9  10
ENDBRANCH   6   9
ENDBRANCH   2   3
TORSDOF 7
ENDMDL
MODEL      162
REMARK 921   NORMALIZED FREE ENERGY PREDICTED BY IDOCK:   -4.44 KCAL/MOL
REMARK 922        TOTAL FREE ENERGY PREDICTED BY IDOCK:   -7.40 KCAL/MOL
REMARK 923 INTER-LIGAND FREE ENERGY PREDICTED BY IDOCK:   -6.84 KCAL/MOL
REMARK 924 INTRA-LIGAND FREE ENERGY PREDICTED BY IDOCK:   -0.56 KCAL/MOL
REMARK 927      BINDING AFFINITY PREDICTED BY RF-SCORE:    0.00 PKD
ROOT
HETATM    1  C   UNL     1     -10.228  19.966  68.276  1.00  0.00    -0.562 C  
HETATM    2  C   UNL     1      -9.043  19.013  68.246  1.00  0.00    -0.371 C  
ENDROOT
BRANCH   2   3
HETATM    3  C   UNL     1      -9.435  17.653  67.746  1.00  0.00    -0.260 A  
HETATM    4  C   UNL     1      -8.862  17.124  66.601  1.00  0.00    -0.252 A  
HETATM    5  N   UNL     1      -9.193  15.925  66.078  1.00  0.00    -0.341 NA 
HETATM    6  C   UNL     1     -10.136  15.181  66.712  1.00  0.00    -0.258 A  
HETATM    7  C   UNL     1     -10.771  15.635  67.861  1.00  0.00    -0.294 A  
HETATM    8  C   UNL     1     -10.413  16.883  68.380  1.00  0.00    -0.355 A  
BRANCH   6   9
HETATM    9  C   UNL     1     -10.495  13.845  66.088  1.00  0.00    -0.297 C  
BRANCH   9  10
HETATM   10  C   UNL     1     -11.877  13.414  66.575  1.00  0.00    -0.396 C  
BRANCH  10  11
HETATM   11  O   UNL     1     -12.110  12.002  66.500  1.00  0.00    -0.617 OA 
BRANCH  11  12
HETATM   12  C   UNL     1     -11.448  11.296  67.490  1.00  0.00    -0.246 A  
HETATM   13  C   UNL     1     -10.332  10.483  67.275  1.00  0.00    -0.275 A  
HETATM   14  C   UNL     1      -9.680   9.859  68.335  1.00  0.00    -0.161 A  
HETATM   15  C   UNL     1     -10.120  10.049  69.646  1.00  0.00    -0.263 A  
HETATM   16  C   UNL     1     -11.275  10.814  69.866  1.00  0.00    -0.371 A  
HETATM   17  C   UNL     1     -11.931  11.437  68.790  1.00  0.00    -0.353 A  
BRANCH  15  18
HETATM   18  C   UNL     1      -9.302   9.497  70.791  1.00  0.00    -0.218 C  
BRANCH  18  19
HETATM   19  C   UNL     1      -9.404   7.970  70.893  1.00  0.00    -0.153 C  
HETATM   20  S   UNL     1     -11.016   7.293  70.349  1.00  0.00    -0.256 SA 
HETATM   21  C   UNL     1     -10.271   6.092  69.336  1.00  0.00    -0.211 C  
HETATM   22  N   UNL     1      -8.953   6.358  69.190  1.00  0.00    -0.129 N  
HETATM   23  O   UNL     1     -10.859   5.136  68.863  1.00  0.00     0.006 OA 
HETATM   24  C   UNL     1      -8.382   7.277  70.018  1.00  0.00    -0.137 C  
HETATM   25  H   UNL     1      -8.400   5.883  68.477  1.00  0.00     0.000 HD 
HETATM   26  O   UNL     1      -7.173   7.457  70.081  1.00  0.00    -0.067 OA 
ENDBRANCH  18  19
ENDBRANCH  15  18
ENDBRANCH  11  12
ENDBRANCH  10  11
ENDBRANCH   9  10
ENDBRANCH   6   9
ENDBRANCH   2   3
TORSDOF 7
ENDMDL
MODEL      163
REMARK 921   NORMALIZED FREE ENERGY PREDICTED BY IDOCK:   -4.44 KCAL/MOL
REMARK 922        TOTAL FREE ENERGY PREDICTED BY IDOCK:   -7.40 KCAL/MOL
REMARK 923 INTER-LIGAND FREE ENERGY PREDICTED BY IDOCK:   -6.83 KCAL/MOL
REMARK 924 INTRA-LIGAND FREE ENERGY PREDICTED BY IDOCK:   -0.56 KCAL/MOL
REMARK 927      BINDING AFFINITY PREDICTED BY RF-SCORE:    0.00 PKD
ROOT
HETATM    1  C   UNL     1     -12.471  11.614  70.957  1.00  0.00    -0.436 C  
HETATM    2  C   UNL     1     -11.938  11.548  69.533  1.00  0.00    -0.402 C  
ENDROOT
BRANCH   2   3
HETATM    3  C   UNL     1     -11.066  10.344  69.320  1.00  0.00    -0.303 A  
HETATM    4  C   UNL     1     -10.232   9.884  70.327  1.00  0.00    -0.264 A  
HETATM    5  N   UNL     1      -9.400   8.832  70.192  1.00  0.00    -0.162 NA 
HETATM    6  C   UNL     1      -9.378   8.172  69.005  1.00  0.00    -0.147 A  
HETATM    7  C   UNL     1     -10.173   8.568  67.937  1.00  0.00    -0.273 A  
HETATM    8  C   UNL     1     -11.023   9.665  68.101  1.00  0.00    -0.185 A  
BRANCH   6   9
HETATM    9  C   UNL     1      -8.418   7.003  68.883  1.00  0.00    -0.125 C  
BRANCH   9  10
HETATM   10  C   UNL     1      -7.949   6.882  67.435  1.00  0.00    -0.112 C  
BRANCH  10  11
HETATM   11  O   UNL     1      -7.064   7.930  67.017  1.00  0.00    -0.075 OA 
BRANCH  11  12
HETATM   12  C   UNL     1      -7.653   8.805  66.121  1.00  0.00    -0.094 A  
HETATM   13  C   UNL     1      -8.212   8.431  64.896  1.00  0.00    -0.155 A  
HETATM   14  C   UNL     1      -8.848   9.363  64.080  1.00  0.00    -0.210 A  
HETATM   15  C   UNL     1      -8.958  10.695  64.481  1.00  0.00    -0.214 A  
HETATM   16  C   UNL     1      -8.348  11.091  65.680  1.00  0.00    -0.060 A  
HETATM   17  C   UNL     1      -7.702  10.147  66.496  1.00  0.00    -0.108 A  
BRANCH  15  18
HETATM   18  C   UNL     1      -9.792  11.651  63.659  1.00  0.00    -0.366 C  
BRANCH  18  19
HETATM   19  C   UNL     1     -10.781  12.446  64.521  1.00  0.00    -0.321 C  
HETATM   20  S   UNL     1     -10.132  14.052  65.111  1.00  0.00    -0.244 SA 
HETATM   21  C   UNL     1     -11.554  14.915  64.603  1.00  0.00    -0.395 C  
HETATM   22  N   UNL     1     -12.315  14.131  63.808  1.00  0.00    -1.027 N  
HETATM   23  O   UNL     1     -11.826  16.050  64.952  1.00  0.00     0.050 OA 
HETATM   24  C   UNL     1     -12.038  12.798  63.756  1.00  0.00    -0.517 C  
HETATM   25  H   UNL     1     -13.078  14.527  63.259  1.00  0.00     0.000 HD 
HETATM   26  O   UNL     1     -12.772  11.985  63.209  1.00  0.00    -0.685 OA 
ENDBRANCH  18  19
ENDBRANCH  15  18
ENDBRANCH  11  12
ENDBRANCH  10  11
ENDBRANCH   9  10
ENDBRANCH   6   9
ENDBRANCH   2   3
TORSDOF 7
ENDMDL
MODEL      164
REMARK 921   NORMALIZED FREE ENERGY PREDICTED BY IDOCK:   -4.43 KCAL/MOL
REMARK 922        TOTAL FREE ENERGY PREDICTED BY IDOCK:   -7.39 KCAL/MOL
REMARK 923 INTER-LIGAND FREE ENERGY PREDICTED BY IDOCK:   -6.70 KCAL/MOL
REMARK 924 INTRA-LIGAND FREE ENERGY PREDICTED BY IDOCK:   -0.69 KCAL/MOL
REMARK 927      BINDING AFFINITY PREDICTED BY RF-SCORE:    0.00 PKD
ROOT
HETATM    1  C   UNL     1     -10.497   5.367  66.722  1.00  0.00    -0.347 C  
HETATM    2  C   UNL     1     -10.639   6.285  67.927  1.00  0.00    -0.327 C  
ENDROOT
BRANCH   2   3
HETATM    3  C   UNL     1      -9.536   7.302  67.984  1.00  0.00    -0.139 A  
HETATM    4  C   UNL     1      -8.622   7.301  69.026  1.00  0.00    -0.129 A  
HETATM    5  N   UNL     1      -7.629   8.204  69.157  1.00  0.00    -0.094 NA 
HETATM    6  C   UNL     1      -7.505   9.171  68.212  1.00  0.00    -0.083 A  
HETATM    7  C   UNL     1      -8.382   9.256  67.138  1.00  0.00    -0.124 A  
HETATM    8  C   UNL     1      -9.405   8.310  67.027  1.00  0.00    -0.203 A  
BRANCH   6   9
HETATM    9  C   UNL     1      -6.388  10.180  68.399  1.00  0.00    -0.049 C  
BRANCH   9  10
HETATM   10  C   UNL     1      -6.577  10.905  69.730  1.00  0.00    -0.140 C  
BRANCH  10  11
HETATM   11  O   UNL     1      -6.392  12.324  69.656  1.00  0.00    -0.124 OA 
BRANCH  11  12
HETATM   12  C   UNL     1      -7.308  12.943  68.823  1.00  0.00    -0.066 A  
HETATM   13  C   UNL     1      -8.678  12.665  68.804  1.00  0.00     0.169 A  
HETATM   14  C   UNL     1      -9.547  13.381  67.984  1.00  0.00    -0.219 A  
HETATM   15  C   UNL     1      -9.066  14.410  67.173  1.00  0.00    -0.238 A  
HETATM   16  C   UNL     1      -7.686  14.656  67.141  1.00  0.00    -0.121 A  
HETATM   17  C   UNL     1      -6.814  13.926  67.968  1.00  0.00    -0.146 A  
BRANCH  15  18
HETATM   18  C   UNL     1     -10.046  15.279  66.417  1.00  0.00    -0.287 C  
BRANCH  18  19
HETATM   19  C   UNL     1     -10.239  14.811  64.970  1.00  0.00    -0.344 C  
HETATM   20  S   UNL     1     -10.740  13.058  64.813  1.00  0.00    -0.373 SA 
HETATM   21  C   UNL     1     -12.041  13.434  63.722  1.00  0.00    -0.456 C  
HETATM   22  N   UNL     1     -12.263  14.767  63.704  1.00  0.00    -1.025 N  
HETATM   23  O   UNL     1     -12.632  12.606  63.052  1.00  0.00    -0.484 OA 
HETATM   24  C   UNL     1     -11.332  15.587  64.268  1.00  0.00    -0.155 C  
HETATM   25  H   UNL     1     -13.108  15.151  63.281  1.00  0.00     0.000 HD 
HETATM   26  O   UNL     1     -11.356  16.805  64.148  1.00  0.00    -1.194 OA 
ENDBRANCH  18  19
ENDBRANCH  15  18
ENDBRANCH  11  12
ENDBRANCH  10  11
ENDBRANCH   9  10
ENDBRANCH   6   9
ENDBRANCH   2   3
TORSDOF 7
ENDMDL
MODEL      165
REMARK 921   NORMALIZED FREE ENERGY PREDICTED BY IDOCK:   -4.43 KCAL/MOL
REMARK 922        TOTAL FREE ENERGY PREDICTED BY IDOCK:   -7.39 KCAL/MOL
REMARK 923 INTER-LIGAND FREE ENERGY PREDICTED BY IDOCK:   -6.49 KCAL/MOL
REMARK 924 INTRA-LIGAND FREE ENERGY PREDICTED BY IDOCK:   -0.91 KCAL/MOL
REMARK 927      BINDING AFFINITY PREDICTED BY RF-SCORE:    0.00 PKD
ROOT
HETATM    1  C   UNL     1     -10.419   9.053  67.208  1.00  0.00    -0.343 C  
HETATM    2  C   UNL     1      -9.113   8.742  67.923  1.00  0.00    -0.145 C  
ENDROOT
BRANCH   2   3
HETATM    3  C   UNL     1      -8.187   9.924  67.931  1.00  0.00    -0.113 A  
HETATM    4  C   UNL     1      -7.542  10.329  66.773  1.00  0.00    -0.107 A  
HETATM    5  N   UNL     1      -6.673  11.359  66.716  1.00  0.00    -0.142 NA 
HETATM    6  C   UNL     1      -6.416  12.052  67.855  1.00  0.00    -0.072 A  
HETATM    7  C   UNL     1      -7.009  11.711  69.064  1.00  0.00    -0.111 A  
HETATM    8  C   UNL     1      -7.902  10.636  69.098  1.00  0.00    -0.142 A  
BRANCH   6   9
HETATM    9  C   UNL     1      -5.421  13.194  67.759  1.00  0.00    -0.110 C  
BRANCH   9  10
HETATM   10  C   UNL     1      -6.155  14.521  67.943  1.00  0.00    -0.150 C  
BRANCH  10  11
HETATM   11  O   UNL     1      -7.198  14.750  66.988  1.00  0.00    -0.127 OA 
BRANCH  11  12
HETATM   12  C   UNL     1      -8.462  14.696  67.550  1.00  0.00    -0.188 A  
HETATM   13  C   UNL     1      -9.422  13.724  67.255  1.00  0.00    -0.236 A  
HETATM   14  C   UNL     1     -10.649  13.699  67.915  1.00  0.00    -0.255 A  
HETATM   15  C   UNL     1     -10.938  14.639  68.905  1.00  0.00    -0.264 A  
HETATM   16  C   UNL     1     -10.005  15.653  69.165  1.00  0.00    -0.244 A  
HETATM   17  C   UNL     1      -8.771  15.677  68.492  1.00  0.00    -0.182 A  
BRANCH  15  18
HETATM   18  C   UNL     1     -12.203  14.494  69.720  1.00  0.00    -0.360 C  
BRANCH  18  19
HETATM   19  C   UNL     1     -11.916  14.393  71.223  1.00  0.00    -0.291 C  
HETATM   20  S   UNL     1     -11.689  16.010  72.049  1.00  0.00    -0.462 SA 
HETATM   21  C   UNL     1     -12.791  15.610  73.333  1.00  0.00    -0.548 C  
HETATM   22  N   UNL     1     -13.484  14.493  73.020  1.00  0.00    -0.430 N  
HETATM   23  O   UNL     1     -12.887  16.238  74.372  1.00  0.00    -0.689 OA 
HETATM   24  C   UNL     1     -13.056  13.737  71.971  1.00  0.00    -0.396 C  
HETATM   25  H   UNL     1     -14.309  14.222  73.556  1.00  0.00     0.000 HD 
HETATM   26  O   UNL     1     -13.506  12.626  71.722  1.00  0.00    -0.379 OA 
ENDBRANCH  18  19
ENDBRANCH  15  18
ENDBRANCH  11  12
ENDBRANCH  10  11
ENDBRANCH   9  10
ENDBRANCH   6   9
ENDBRANCH   2   3
TORSDOF 7
ENDMDL
MODEL      166
REMARK 921   NORMALIZED FREE ENERGY PREDICTED BY IDOCK:   -4.42 KCAL/MOL
REMARK 922        TOTAL FREE ENERGY PREDICTED BY IDOCK:   -7.37 KCAL/MOL
REMARK 923 INTER-LIGAND FREE ENERGY PREDICTED BY IDOCK:   -6.86 KCAL/MOL
REMARK 924 INTRA-LIGAND FREE ENERGY PREDICTED BY IDOCK:   -0.51 KCAL/MOL
REMARK 927      BINDING AFFINITY PREDICTED BY RF-SCORE:    0.00 PKD
ROOT
HETATM    1  C   UNL     1      -7.710   2.705  72.038  1.00  0.00    -0.052 C  
HETATM    2  C   UNL     1      -7.449   3.854  73.001  1.00  0.00    -0.073 C  
ENDROOT
BRANCH   2   3
HETATM    3  C   UNL     1      -8.462   4.951  72.845  1.00  0.00    -0.108 A  
HETATM    4  C   UNL     1      -8.069   6.278  72.779  1.00  0.00    -0.105 A  
HETATM    5  N   UNL     1      -8.926   7.314  72.673  1.00  0.00    -0.129 NA 
HETATM    6  C   UNL     1     -10.257   7.049  72.619  1.00  0.00    -0.194 A  
HETATM    7  C   UNL     1     -10.744   5.750  72.688  1.00  0.00    -0.280 A  
HETATM    8  C   UNL     1      -9.834   4.694  72.802  1.00  0.00    -0.186 A  
BRANCH   6   9
HETATM    9  C   UNL     1     -11.194   8.238  72.517  1.00  0.00    -0.446 C  
BRANCH   9  10
HETATM   10  C   UNL     1     -11.982   8.151  71.211  1.00  0.00    -0.291 C  
BRANCH  10  11
HETATM   11  O   UNL     1     -11.163   8.076  70.037  1.00  0.00    -0.208 OA 
BRANCH  11  12
HETATM   12  C   UNL     1     -11.027   9.297  69.399  1.00  0.00    -0.120 A  
HETATM   13  C   UNL     1     -11.673  10.474  69.788  1.00  0.00    -0.354 A  
HETATM   14  C   UNL     1     -11.431  11.679  69.134  1.00  0.00    -0.364 A  
HETATM   15  C   UNL     1     -10.516  11.741  68.082  1.00  0.00    -0.221 A  
HETATM   16  C   UNL     1      -9.908  10.555  67.646  1.00  0.00    -0.192 A  
HETATM   17  C   UNL     1     -10.161   9.340  68.307  1.00  0.00    -0.236 A  
BRANCH  15  18
HETATM   18  C   UNL     1     -10.148  13.085  67.497  1.00  0.00    -0.218 C  
BRANCH  18  19
HETATM   19  C   UNL     1     -10.173  13.077  65.964  1.00  0.00    -0.287 C  
HETATM   20  S   UNL     1     -11.644  12.257  65.247  1.00  0.00    -0.338 SA 
HETATM   21  C   UNL     1     -11.966  13.581  64.166  1.00  0.00    -0.448 C  
HETATM   22  N   UNL     1     -11.222  14.655  64.511  1.00  0.00    -0.603 N  
HETATM   23  O   UNL     1     -12.730  13.520  63.220  1.00  0.00    -0.726 OA 
HETATM   24  C   UNL     1     -10.199  14.479  65.393  1.00  0.00    -0.389 C  
HETATM   25  H   UNL     1     -11.421  15.576  64.120  1.00  0.00     0.000 HD 
HETATM   26  O   UNL     1      -9.366  15.344  65.630  1.00  0.00    -0.296 OA 
ENDBRANCH  18  19
ENDBRANCH  15  18
ENDBRANCH  11  12
ENDBRANCH  10  11
ENDBRANCH   9  10
ENDBRANCH   6   9
ENDBRANCH   2   3
TORSDOF 7
ENDMDL
MODEL      167
REMARK 921   NORMALIZED FREE ENERGY PREDICTED BY IDOCK:   -4.41 KCAL/MOL
REMARK 922        TOTAL FREE ENERGY PREDICTED BY IDOCK:   -7.35 KCAL/MOL
REMARK 923 INTER-LIGAND FREE ENERGY PREDICTED BY IDOCK:   -6.62 KCAL/MOL
REMARK 924 INTRA-LIGAND FREE ENERGY PREDICTED BY IDOCK:   -0.73 KCAL/MOL
REMARK 927      BINDING AFFINITY PREDICTED BY RF-SCORE:    0.00 PKD
ROOT
HETATM    1  C   UNL     1     -11.039  11.626  63.878  1.00  0.00    -0.477 C  
HETATM    2  C   UNL     1     -10.184  10.924  64.923  1.00  0.00    -0.381 C  
ENDROOT
BRANCH   2   3
HETATM    3  C   UNL     1     -10.707  11.151  66.312  1.00  0.00    -0.298 A  
HETATM    4  C   UNL     1     -10.675  10.139  67.258  1.00  0.00    -0.254 A  
HETATM    5  N   UNL     1     -11.157  10.264  68.511  1.00  0.00    -0.253 NA 
HETATM    6  C   UNL     1     -11.701  11.453  68.879  1.00  0.00    -0.343 A  
HETATM    7  C   UNL     1     -11.785  12.520  67.995  1.00  0.00    -0.410 A  
HETATM    8  C   UNL     1     -11.282  12.364  66.700  1.00  0.00    -0.366 A  
BRANCH   6   9
HETATM    9  C   UNL     1     -12.249  11.553  70.291  1.00  0.00    -0.415 C  
BRANCH   9  10
HETATM   10  C   UNL     1     -12.820  10.200  70.710  1.00  0.00    -0.308 C  
BRANCH  10  11
HETATM   11  O   UNL     1     -12.303   9.707  71.953  1.00  0.00    -0.375 OA 
BRANCH  11  12
HETATM   12  C   UNL     1     -11.426   8.650  71.788  1.00  0.00    -0.324 A  
HETATM   13  C   UNL     1     -11.807   7.340  71.482  1.00  0.00    -0.335 A  
HETATM   14  C   UNL     1     -10.857   6.345  71.264  1.00  0.00    -0.306 A  
HETATM   15  C   UNL     1      -9.495   6.642  71.327  1.00  0.00    -0.166 A  
HETATM   16  C   UNL     1      -9.104   7.939  71.692  1.00  0.00    -0.175 A  
HETATM   17  C   UNL     1     -10.067   8.937  71.916  1.00  0.00    -0.393 A  
BRANCH  15  18
HETATM   18  C   UNL     1      -8.487   5.590  70.927  1.00  0.00    -0.123 C  
BRANCH  18  19
HETATM   19  C   UNL     1      -8.458   5.361  69.411  1.00  0.00    -0.099 C  
HETATM   20  S   UNL     1     -10.028   4.720  68.724  1.00  0.00    -0.063 SA 
HETATM   21  C   UNL     1     -10.061   5.907  67.453  1.00  0.00    -0.169 C  
HETATM   22  N   UNL     1      -9.144   6.870  67.692  1.00  0.00    -0.119 N  
HETATM   23  O   UNL     1     -10.789   5.845  66.479  1.00  0.00    -0.269 OA 
HETATM   24  C   UNL     1      -8.204   6.646  68.653  1.00  0.00    -0.119 C  
HETATM   25  H   UNL     1      -9.154   7.745  67.167  1.00  0.00     0.000 HD 
HETATM   26  O   UNL     1      -7.234   7.374  68.819  1.00  0.00    -0.084 OA 
ENDBRANCH  18  19
ENDBRANCH  15  18
ENDBRANCH  11  12
ENDBRANCH  10  11
ENDBRANCH   9  10
ENDBRANCH   6   9
ENDBRANCH   2   3
TORSDOF 7
ENDMDL
MODEL      168
REMARK 921   NORMALIZED FREE ENERGY PREDICTED BY IDOCK:   -4.39 KCAL/MOL
REMARK 922        TOTAL FREE ENERGY PREDICTED BY IDOCK:   -7.33 KCAL/MOL
REMARK 923 INTER-LIGAND FREE ENERGY PREDICTED BY IDOCK:   -6.58 KCAL/MOL
REMARK 924 INTRA-LIGAND FREE ENERGY PREDICTED BY IDOCK:   -0.76 KCAL/MOL
REMARK 927      BINDING AFFINITY PREDICTED BY RF-SCORE:    0.00 PKD
ROOT
HETATM    1  C   UNL     1     -10.599  19.580  67.466  1.00  0.00    -0.599 C  
HETATM    2  C   UNL     1      -9.160  19.943  67.802  1.00  0.00    -0.418 C  
ENDROOT
BRANCH   2   3
HETATM    3  C   UNL     1      -8.416  18.779  68.390  1.00  0.00    -0.374 A  
HETATM    4  C   UNL     1      -7.112  18.923  68.838  1.00  0.00    -0.321 A  
HETATM    5  N   UNL     1      -6.375  17.914  69.345  1.00  0.00    -0.247 NA 
HETATM    6  C   UNL     1      -6.939  16.682  69.433  1.00  0.00    -0.194 A  
HETATM    7  C   UNL     1      -8.237  16.442  68.999  1.00  0.00    -0.222 A  
HETATM    8  C   UNL     1      -8.978  17.504  68.473  1.00  0.00    -0.279 A  
BRANCH   6   9
HETATM    9  C   UNL     1      -6.076  15.566  69.992  1.00  0.00    -0.148 C  
BRANCH   9  10
HETATM   10  C   UNL     1      -5.327  14.884  68.849  1.00  0.00    -0.092 C  
BRANCH  10  11
HETATM   11  O   UNL     1      -5.496  13.461  68.806  1.00  0.00    -0.071 OA 
BRANCH  11  12
HETATM   12  C   UNL     1      -6.752  13.083  68.365  1.00  0.00    -0.093 A  
HETATM   13  C   UNL     1      -7.485  13.754  67.383  1.00  0.00    -0.142 A  
HETATM   14  C   UNL     1      -8.716  13.271  66.945  1.00  0.00    -0.152 A  
HETATM   15  C   UNL     1      -9.236  12.086  67.468  1.00  0.00    -0.180 A  
HETATM   16  C   UNL     1      -8.536  11.438  68.496  1.00  0.00    -0.150 A  
HETATM   17  C   UNL     1      -7.297  11.934  68.938  1.00  0.00    -0.080 A  
BRANCH  15  18
HETATM   18  C   UNL     1     -10.489  11.495  66.863  1.00  0.00    -0.270 C  
BRANCH  18  19
HETATM   19  C   UNL     1     -11.764  12.116  67.449  1.00  0.00    -0.304 C  
HETATM   20  S   UNL     1     -11.665  12.470  69.241  1.00  0.00    -0.313 SA 
HETATM   21  C   UNL     1     -12.264  14.091  69.045  1.00  0.00    -0.245 C  
HETATM   22  N   UNL     1     -12.262  14.433  67.737  1.00  0.00    -0.624 N  
HETATM   23  O   UNL     1     -12.657  14.790  69.962  1.00  0.00    -0.301 OA 
HETATM   24  C   UNL     1     -12.085  13.450  66.811  1.00  0.00    -0.365 C  
HETATM   25  H   UNL     1     -12.389  15.404  67.450  1.00  0.00     0.000 HD 
HETATM   26  O   UNL     1     -12.242  13.629  65.610  1.00  0.00    -0.396 OA 
ENDBRANCH  18  19
ENDBRANCH  15  18
ENDBRANCH  11  12
ENDBRANCH  10  11
ENDBRANCH   9  10
ENDBRANCH   6   9
ENDBRANCH   2   3
TORSDOF 7
ENDMDL
MODEL      169
REMARK 921   NORMALIZED FREE ENERGY PREDICTED BY IDOCK:   -4.39 KCAL/MOL
REMARK 922        TOTAL FREE ENERGY PREDICTED BY IDOCK:   -7.33 KCAL/MOL
REMARK 923 INTER-LIGAND FREE ENERGY PREDICTED BY IDOCK:   -6.24 KCAL/MOL
REMARK 924 INTRA-LIGAND FREE ENERGY PREDICTED BY IDOCK:   -1.09 KCAL/MOL
REMARK 927      BINDING AFFINITY PREDICTED BY RF-SCORE:    0.00 PKD
ROOT
HETATM    1  C   UNL     1      -9.720  12.697  66.510  1.00  0.00    -0.256 C  
HETATM    2  C   UNL     1     -10.818  13.552  67.125  1.00  0.00    -0.291 C  
ENDROOT
BRANCH   2   3
HETATM    3  C   UNL     1     -11.420  12.898  68.335  1.00  0.00    -0.347 A  
HETATM    4  C   UNL     1     -11.793  13.649  69.438  1.00  0.00    -0.339 A  
HETATM    5  N   UNL     1     -12.307  13.124  70.569  1.00  0.00    -0.334 NA 
HETATM    6  C   UNL     1     -12.480  11.779  70.636  1.00  0.00    -0.274 A  
HETATM    7  C   UNL     1     -12.125  10.945  69.582  1.00  0.00    -0.400 A  
HETATM    8  C   UNL     1     -11.591  11.515  68.423  1.00  0.00    -0.375 A  
BRANCH   6   9
HETATM    9  C   UNL     1     -13.045  11.220  71.928  1.00  0.00    -0.510 C  
BRANCH   9  10
HETATM   10  C   UNL     1     -13.479   9.772  71.707  1.00  0.00    -0.376 C  
BRANCH  10  11
HETATM   11  O   UNL     1     -12.813   8.826  72.553  1.00  0.00    -0.399 OA 
BRANCH  11  12
HETATM   12  C   UNL     1     -11.879   8.062  71.874  1.00  0.00    -0.307 A  
HETATM   13  C   UNL     1     -12.184   6.943  71.094  1.00  0.00    -0.428 A  
HETATM   14  C   UNL     1     -11.194   6.267  70.385  1.00  0.00    -0.439 A  
HETATM   15  C   UNL     1      -9.870   6.708  70.425  1.00  0.00    -0.189 A  
HETATM   16  C   UNL     1      -9.545   7.793  71.252  1.00  0.00    -0.178 A  
HETATM   17  C   UNL     1     -10.549   8.467  71.969  1.00  0.00    -0.408 A  
BRANCH  15  18
HETATM   18  C   UNL     1      -8.845   6.061  69.522  1.00  0.00    -0.125 C  
BRANCH  18  19
HETATM   19  C   UNL     1      -8.123   4.894  70.208  1.00  0.00    -0.077 C  
HETATM   20  S   UNL     1      -8.157   3.333  69.254  1.00  0.00    -0.052 SA 
HETATM   21  C   UNL     1      -6.446   3.080  69.435  1.00  0.00    -0.029 C  
HETATM   22  N   UNL     1      -5.858   4.201  69.911  1.00  0.00    -0.017 N  
HETATM   23  O   UNL     1      -5.881   2.028  69.196  1.00  0.00    -0.021 OA 
HETATM   24  C   UNL     1      -6.653   5.186  70.415  1.00  0.00    -0.035 C  
HETATM   25  H   UNL     1      -4.843   4.307  69.893  1.00  0.00     0.000 HD 
HETATM   26  O   UNL     1      -6.212   6.152  71.024  1.00  0.00    -0.036 OA 
ENDBRANCH  18  19
ENDBRANCH  15  18
ENDBRANCH  11  12
ENDBRANCH  10  11
ENDBRANCH   9  10
ENDBRANCH   6   9
ENDBRANCH   2   3
TORSDOF 7
ENDMDL
MODEL      170
REMARK 921   NORMALIZED FREE ENERGY PREDICTED BY IDOCK:   -4.38 KCAL/MOL
REMARK 922        TOTAL FREE ENERGY PREDICTED BY IDOCK:   -7.31 KCAL/MOL
REMARK 923 INTER-LIGAND FREE ENERGY PREDICTED BY IDOCK:   -6.48 KCAL/MOL
REMARK 924 INTRA-LIGAND FREE ENERGY PREDICTED BY IDOCK:   -0.83 KCAL/MOL
REMARK 927      BINDING AFFINITY PREDICTED BY RF-SCORE:    0.00 PKD
ROOT
HETATM    1  C   UNL     1      -7.799   6.477  63.414  1.00  0.00    -0.106 C  
HETATM    2  C   UNL     1      -7.549   6.924  64.847  1.00  0.00    -0.106 C  
ENDROOT
BRANCH   2   3
HETATM    3  C   UNL     1      -8.525   7.981  65.278  1.00  0.00    -0.133 A  
HETATM    4  C   UNL     1      -8.604   9.191  64.609  1.00  0.00    -0.182 A  
HETATM    5  N   UNL     1      -9.433  10.195  64.962  1.00  0.00    -0.248 NA 
HETATM    6  C   UNL     1     -10.248  10.013  66.033  1.00  0.00    -0.207 A  
HETATM    7  C   UNL     1     -10.231   8.836  66.770  1.00  0.00    -0.354 A  
HETATM    8  C   UNL     1      -9.360   7.812  66.385  1.00  0.00    -0.237 A  
BRANCH   6   9
HETATM    9  C   UNL     1     -11.156  11.168  66.413  1.00  0.00    -0.204 C  
BRANCH   9  10
HETATM   10  C   UNL     1     -10.753  11.697  67.788  1.00  0.00    -0.204 C  
BRANCH  10  11
HETATM   11  O   UNL     1     -11.835  11.775  68.725  1.00  0.00    -0.306 OA 
BRANCH  11  12
HETATM   12  C   UNL     1     -11.699  10.886  69.777  1.00  0.00    -0.338 A  
HETATM   13  C   UNL     1     -12.726  10.531  70.656  1.00  0.00    -0.441 A  
HETATM   14  C   UNL     1     -12.527   9.576  71.650  1.00  0.00    -0.476 A  
HETATM   15  C   UNL     1     -11.294   8.934  71.776  1.00  0.00    -0.431 A  
HETATM   16  C   UNL     1     -10.240   9.326  70.938  1.00  0.00    -0.371 A  
HETATM   17  C   UNL     1     -10.446  10.295  69.941  1.00  0.00    -0.304 A  
BRANCH  15  18
HETATM   18  C   UNL     1     -11.151   7.788  72.751  1.00  0.00    -0.457 C  
BRANCH  18  19
HETATM   19  C   UNL     1     -11.133   6.426  72.046  1.00  0.00    -0.265 C  
HETATM   20  S   UNL     1     -11.735   6.473  70.319  1.00  0.00    -0.258 SA 
HETATM   21  C   UNL     1     -10.364   5.585  69.722  1.00  0.00    -0.296 C  
HETATM   22  N   UNL     1      -9.406   5.514  70.673  1.00  0.00    -0.155 N  
HETATM   23  O   UNL     1     -10.307   5.079  68.616  1.00  0.00    -0.129 OA 
HETATM   24  C   UNL     1      -9.733   5.861  71.949  1.00  0.00    -0.151 C  
HETATM   25  H   UNL     1      -8.461   5.209  70.441  1.00  0.00     0.000 HD 
HETATM   26  O   UNL     1      -8.992   5.664  72.904  1.00  0.00    -0.125 OA 
ENDBRANCH  18  19
ENDBRANCH  15  18
ENDBRANCH  11  12
ENDBRANCH  10  11
ENDBRANCH   9  10
ENDBRANCH   6   9
ENDBRANCH   2   3
TORSDOF 7
ENDMDL
MODEL      171
REMARK 921   NORMALIZED FREE ENERGY PREDICTED BY IDOCK:   -4.37 KCAL/MOL
REMARK 922        TOTAL FREE ENERGY PREDICTED BY IDOCK:   -7.30 KCAL/MOL
REMARK 923 INTER-LIGAND FREE ENERGY PREDICTED BY IDOCK:   -6.84 KCAL/MOL
REMARK 924 INTRA-LIGAND FREE ENERGY PREDICTED BY IDOCK:   -0.46 KCAL/MOL
REMARK 927      BINDING AFFINITY PREDICTED BY RF-SCORE:    0.00 PKD
ROOT
HETATM    1  C   UNL     1      -8.886   9.381  62.330  1.00  0.00    -0.257 C  
HETATM    2  C   UNL     1      -8.652   9.615  63.815  1.00  0.00    -0.217 C  
ENDROOT
BRANCH   2   3
HETATM    3  C   UNL     1      -9.529  10.710  64.351  1.00  0.00    -0.317 A  
HETATM    4  C   UNL     1      -9.490  11.060  65.691  1.00  0.00    -0.217 A  
HETATM    5  N   UNL     1     -10.273  12.008  66.245  1.00  0.00    -0.217 NA 
HETATM    6  C   UNL     1     -11.149  12.671  65.446  1.00  0.00    -0.292 A  
HETATM    7  C   UNL     1     -11.264  12.380  64.093  1.00  0.00    -0.434 A  
HETATM    8  C   UNL     1     -10.444  11.389  63.544  1.00  0.00    -0.477 A  
BRANCH   6   9
HETATM    9  C   UNL     1     -12.026  13.720  66.104  1.00  0.00    -0.449 C  
BRANCH   9  10
HETATM   10  C   UNL     1     -11.343  14.227  67.373  1.00  0.00    -0.332 C  
BRANCH  10  11
HETATM   11  O   UNL     1     -12.015  15.326  68.000  1.00  0.00    -0.247 OA 
BRANCH  11  12
HETATM   12  C   UNL     1     -11.215  16.450  68.116  1.00  0.00    -0.273 A  
HETATM   13  C   UNL     1     -10.591  16.863  69.296  1.00  0.00    -0.325 A  
HETATM   14  C   UNL     1      -9.745  17.969  69.315  1.00  0.00     0.008 A  
HETATM   15  C   UNL     1      -9.486  18.681  68.143  1.00  0.00    -0.356 A  
HETATM   16  C   UNL     1     -10.154  18.310  66.967  1.00  0.00    -0.370 A  
HETATM   17  C   UNL     1     -11.012  17.196  66.956  1.00  0.00     0.081 A  
BRANCH  15  18
HETATM   18  C   UNL     1      -8.441  19.773  68.153  1.00  0.00    -0.327 C  
BRANCH  18  19
HETATM   19  C   UNL     1      -7.075  19.273  67.666  1.00  0.00    -0.225 C  
HETATM   20  S   UNL     1      -6.495  17.752  68.504  1.00  0.00    -0.217 SA 
HETATM   21  C   UNL     1      -6.108  16.965  67.002  1.00  0.00    -0.190 C  
HETATM   22  N   UNL     1      -6.633  17.656  65.965  1.00  0.00    -0.256 N  
HETATM   23  O   UNL     1      -5.432  15.956  66.914  1.00  0.00    -0.292 OA 
HETATM   24  C   UNL     1      -7.098  18.916  66.195  1.00  0.00    -0.256 C  
HETATM   25  H   UNL     1      -6.679  17.245  65.033  1.00  0.00     0.000 HD 
HETATM   26  O   UNL     1      -7.426  19.680  65.297  1.00  0.00    -0.382 OA 
ENDBRANCH  18  19
ENDBRANCH  15  18
ENDBRANCH  11  12
ENDBRANCH  10  11
ENDBRANCH   9  10
ENDBRANCH   6   9
ENDBRANCH   2   3
TORSDOF 7
ENDMDL
MODEL      172
REMARK 921   NORMALIZED FREE ENERGY PREDICTED BY IDOCK:   -4.35 KCAL/MOL
REMARK 922        TOTAL FREE ENERGY PREDICTED BY IDOCK:   -7.28 KCAL/MOL
REMARK 923 INTER-LIGAND FREE ENERGY PREDICTED BY IDOCK:   -6.93 KCAL/MOL
REMARK 924 INTRA-LIGAND FREE ENERGY PREDICTED BY IDOCK:   -0.35 KCAL/MOL
REMARK 927      BINDING AFFINITY PREDICTED BY RF-SCORE:    0.00 PKD
ROOT
HETATM    1  C   UNL     1     -14.266   8.541  72.196  1.00  0.00    -0.516 C  
HETATM    2  C   UNL     1     -13.527   9.870  72.206  1.00  0.00    -0.397 C  
ENDROOT
BRANCH   2   3
HETATM    3  C   UNL     1     -12.192   9.770  71.524  1.00  0.00    -0.493 A  
HETATM    4  C   UNL     1     -11.883  10.580  70.444  1.00  0.00    -0.340 A  
HETATM    5  N   UNL     1     -10.719  10.519  69.765  1.00  0.00    -0.269 NA 
HETATM    6  C   UNL     1      -9.785   9.618  70.164  1.00  0.00    -0.254 A  
HETATM    7  C   UNL     1     -10.011   8.758  71.231  1.00  0.00    -0.333 A  
HETATM    8  C   UNL     1     -11.228   8.839  71.915  1.00  0.00    -0.438 A  
BRANCH   6   9
HETATM    9  C   UNL     1      -8.494   9.565  69.369  1.00  0.00    -0.146 C  
BRANCH   9  10
HETATM   10  C   UNL     1      -8.713  10.214  68.004  1.00  0.00    -0.122 C  
BRANCH  10  11
HETATM   11  O   UNL     1      -7.603  10.994  67.542  1.00  0.00    -0.101 OA 
BRANCH  11  12
HETATM   12  C   UNL     1      -7.612  12.287  68.035  1.00  0.00    -0.126 A  
HETATM   13  C   UNL     1      -6.475  12.991  68.442  1.00  0.00    -0.084 A  
HETATM   14  C   UNL     1      -6.560  14.316  68.863  1.00  0.00    -0.096 A  
HETATM   15  C   UNL     1      -7.789  14.978  68.869  1.00  0.00    -0.162 A  
HETATM   16  C   UNL     1      -8.943  14.262  68.520  1.00  0.00    -0.185 A  
HETATM   17  C   UNL     1      -8.851  12.924  68.101  1.00  0.00    -0.194 A  
BRANCH  15  18
HETATM   18  C   UNL     1      -7.832  16.459  69.173  1.00  0.00    -0.214 C  
BRANCH  18  19
HETATM   19  C   UNL     1      -8.428  17.270  68.016  1.00  0.00    -0.229 C  
HETATM   20  S   UNL     1      -8.320  16.439  66.389  1.00  0.00    -0.331 SA 
HETATM   21  C   UNL     1      -9.995  16.733  66.027  1.00  0.00    -0.313 C  
HETATM   22  N   UNL     1     -10.644  17.153  67.136  1.00  0.00    -0.286 N  
HETATM   23  O   UNL     1     -10.488  16.606  64.920  1.00  0.00    -0.657 OA 
HETATM   24  C   UNL     1      -9.904  17.535  68.214  1.00  0.00    -0.319 C  
HETATM   25  H   UNL     1     -11.663  17.183  67.165  1.00  0.00     0.000 HD 
HETATM   26  O   UNL     1     -10.388  18.091  69.191  1.00  0.00    -0.322 OA 
ENDBRANCH  18  19
ENDBRANCH  15  18
ENDBRANCH  11  12
ENDBRANCH  10  11
ENDBRANCH   9  10
ENDBRANCH   6   9
ENDBRANCH   2   3
TORSDOF 7
ENDMDL
MODEL      173
REMARK 921   NORMALIZED FREE ENERGY PREDICTED BY IDOCK:   -4.33 KCAL/MOL
REMARK 922        TOTAL FREE ENERGY PREDICTED BY IDOCK:   -7.25 KCAL/MOL
REMARK 923 INTER-LIGAND FREE ENERGY PREDICTED BY IDOCK:   -6.19 KCAL/MOL
REMARK 924 INTRA-LIGAND FREE ENERGY PREDICTED BY IDOCK:   -1.06 KCAL/MOL
REMARK 927      BINDING AFFINITY PREDICTED BY RF-SCORE:    0.00 PKD
ROOT
HETATM    1  C   UNL     1      -7.358   4.449  66.735  1.00  0.00    -0.080 C  
HETATM    2  C   UNL     1      -8.355   5.562  67.021  1.00  0.00    -0.107 C  
ENDROOT
BRANCH   2   3
HETATM    3  C   UNL     1      -8.754   5.594  68.469  1.00  0.00    -0.110 A  
HETATM    4  C   UNL     1      -7.808   5.794  69.462  1.00  0.00    -0.093 A  
HETATM    5  N   UNL     1      -8.091   5.800  70.781  1.00  0.00    -0.116 NA 
HETATM    6  C   UNL     1      -9.379   5.608  71.166  1.00  0.00    -0.153 A  
HETATM    7  C   UNL     1     -10.392   5.390  70.241  1.00  0.00    -0.357 A  
HETATM    8  C   UNL     1     -10.071   5.384  68.880  1.00  0.00    -0.265 A  
BRANCH   6   9
HETATM    9  C   UNL     1      -9.660   5.605  72.658  1.00  0.00    -0.164 C  
BRANCH   9  10
HETATM   10  C   UNL     1     -10.994   6.299  72.924  1.00  0.00    -0.254 C  
BRANCH  10  11
HETATM   11  O   UNL     1     -10.871   7.676  73.302  1.00  0.00    -0.394 OA 
BRANCH  11  12
HETATM   12  C   UNL     1     -10.929   8.538  72.221  1.00  0.00    -0.355 A  
HETATM   13  C   UNL     1      -9.830   8.904  71.437  1.00  0.00    -0.376 A  
HETATM   14  C   UNL     1      -9.982   9.724  70.322  1.00  0.00    -0.309 A  
HETATM   15  C   UNL     1     -11.246  10.184  69.950  1.00  0.00    -0.343 A  
HETATM   16  C   UNL     1     -12.345   9.871  70.763  1.00  0.00    -0.363 A  
HETATM   17  C   UNL     1     -12.184   9.047  71.891  1.00  0.00    -0.451 A  
BRANCH  15  18
HETATM   18  C   UNL     1     -11.409  10.934  68.647  1.00  0.00    -0.360 C  
BRANCH  18  19
HETATM   19  C   UNL     1     -10.128  10.915  67.804  1.00  0.00    -0.177 C  
HETATM   20  S   UNL     1     -10.286  10.000  66.227  1.00  0.00    -0.182 SA 
HETATM   21  C   UNL     1      -9.585  11.295  65.302  1.00  0.00    -0.232 C  
HETATM   22  N   UNL     1      -9.508  12.416  66.053  1.00  0.00    -0.363 N  
HETATM   23  O   UNL     1      -9.193  11.181  64.154  1.00  0.00    -0.187 OA 
HETATM   24  C   UNL     1      -9.701  12.309  67.398  1.00  0.00    -0.185 C  
HETATM   25  H   UNL     1      -9.312  13.321  65.625  1.00  0.00     0.000 HD 
HETATM   26  O   UNL     1      -9.480  13.226  68.178  1.00  0.00    -0.212 OA 
ENDBRANCH  18  19
ENDBRANCH  15  18
ENDBRANCH  11  12
ENDBRANCH  10  11
ENDBRANCH   9  10
ENDBRANCH   6   9
ENDBRANCH   2   3
TORSDOF 7
ENDMDL
MODEL      174
REMARK 921   NORMALIZED FREE ENERGY PREDICTED BY IDOCK:   -4.33 KCAL/MOL
REMARK 922        TOTAL FREE ENERGY PREDICTED BY IDOCK:   -7.25 KCAL/MOL
REMARK 923 INTER-LIGAND FREE ENERGY PREDICTED BY IDOCK:   -6.62 KCAL/MOL
REMARK 924 INTRA-LIGAND FREE ENERGY PREDICTED BY IDOCK:   -0.63 KCAL/MOL
REMARK 927      BINDING AFFINITY PREDICTED BY RF-SCORE:    0.00 PKD
ROOT
HETATM    1  C   UNL     1     -10.350  19.617  68.311  1.00  0.00    -0.539 C  
HETATM    2  C   UNL     1      -9.392  18.587  67.732  1.00  0.00    -0.308 C  
ENDROOT
BRANCH   2   3
HETATM    3  C   UNL     1     -10.104  17.326  67.334  1.00  0.00    -0.307 A  
HETATM    4  C   UNL     1     -10.887  16.635  68.245  1.00  0.00    -0.356 A  
HETATM    5  N   UNL     1     -11.526  15.481  67.965  1.00  0.00    -0.335 NA 
HETATM    6  C   UNL     1     -11.406  14.962  66.716  1.00  0.00    -0.328 A  
HETATM    7  C   UNL     1     -10.634  15.581  65.741  1.00  0.00    -0.370 A  
HETATM    8  C   UNL     1      -9.979  16.774  66.058  1.00  0.00    -0.334 A  
BRANCH   6   9
HETATM    9  C   UNL     1     -12.124  13.654  66.440  1.00  0.00    -0.478 C  
BRANCH   9  10
HETATM   10  C   UNL     1     -11.180  12.488  66.727  1.00  0.00    -0.296 C  
BRANCH  10  11
HETATM   11  O   UNL     1     -10.736  11.793  65.554  1.00  0.00    -0.265 OA 
BRANCH  11  12
HETATM   12  C   UNL     1     -10.290  10.511  65.826  1.00  0.00    -0.200 A  
HETATM   13  C   UNL     1      -9.326   9.830  65.078  1.00  0.00    -0.325 A  
HETATM   14  C   UNL     1      -8.879   8.567  65.457  1.00  0.00    -0.196 A  
HETATM   15  C   UNL     1      -9.374   7.959  66.612  1.00  0.00    -0.244 A  
HETATM   16  C   UNL     1     -10.384   8.609  67.336  1.00  0.00    -0.353 A  
HETATM   17  C   UNL     1     -10.835   9.882  66.945  1.00  0.00    -0.137 A  
BRANCH  15  18
HETATM   18  C   UNL     1      -8.758   6.665  67.092  1.00  0.00    -0.111 C  
BRANCH  18  19
HETATM   19  C   UNL     1      -8.808   5.568  66.022  1.00  0.00    -0.147 C  
HETATM   20  S   UNL     1      -7.350   4.461  66.021  1.00  0.00    -0.078 SA 
HETATM   21  C   UNL     1      -8.329   3.024  65.995  1.00  0.00    -0.098 C  
HETATM   22  N   UNL     1      -9.618   3.334  66.256  1.00  0.00    -0.395 N  
HETATM   23  O   UNL     1      -7.903   1.911  65.741  1.00  0.00    -0.070 OA 
HETATM   24  C   UNL     1      -9.991   4.644  66.217  1.00  0.00    -0.247 C  
HETATM   25  H   UNL     1     -10.297   2.605  66.478  1.00  0.00     0.000 HD 
HETATM   26  O   UNL     1     -11.158   5.007  66.265  1.00  0.00    -0.108 OA 
ENDBRANCH  18  19
ENDBRANCH  15  18
ENDBRANCH  11  12
ENDBRANCH  10  11
ENDBRANCH   9  10
ENDBRANCH   6   9
ENDBRANCH   2   3
TORSDOF 7
ENDMDL
MODEL      175
REMARK 921   NORMALIZED FREE ENERGY PREDICTED BY IDOCK:   -4.33 KCAL/MOL
REMARK 922        TOTAL FREE ENERGY PREDICTED BY IDOCK:   -7.24 KCAL/MOL
REMARK 923 INTER-LIGAND FREE ENERGY PREDICTED BY IDOCK:   -7.09 KCAL/MOL
REMARK 924 INTRA-LIGAND FREE ENERGY PREDICTED BY IDOCK:   -0.15 KCAL/MOL
REMARK 927      BINDING AFFINITY PREDICTED BY RF-SCORE:    0.00 PKD
ROOT
HETATM    1  C   UNL     1      -9.321   6.200  65.978  1.00  0.00    -0.085 C  
HETATM    2  C   UNL     1      -8.835   7.191  67.025  1.00  0.00    -0.125 C  
ENDROOT
BRANCH   2   3
HETATM    3  C   UNL     1      -9.570   8.498  66.938  1.00  0.00    -0.257 A  
HETATM    4  C   UNL     1      -9.558   9.243  65.770  1.00  0.00    -0.271 A  
HETATM    5  N   UNL     1     -10.167  10.439  65.633  1.00  0.00    -0.260 NA 
HETATM    6  C   UNL     1     -10.842  10.946  66.697  1.00  0.00    -0.197 A  
HETATM    7  C   UNL     1     -10.899  10.273  67.911  1.00  0.00    -0.337 A  
HETATM    8  C   UNL     1     -10.255   9.038  68.028  1.00  0.00    -0.260 A  
BRANCH   6   9
HETATM    9  C   UNL     1     -11.501  12.300  66.514  1.00  0.00    -0.438 C  
BRANCH   9  10
HETATM   10  C   UNL     1     -10.585  13.389  67.071  1.00  0.00    -0.264 C  
BRANCH  10  11
HETATM   11  O   UNL     1     -11.262  14.376  67.860  1.00  0.00    -0.265 OA 
BRANCH  11  12
HETATM   12  C   UNL     1     -10.951  15.671  67.482  1.00  0.00    -0.309 A  
HETATM   13  C   UNL     1     -11.008  16.781  68.329  1.00  0.00    -0.327 A  
HETATM   14  C   UNL     1     -10.613  18.042  67.891  1.00  0.00    -0.387 A  
HETATM   15  C   UNL     1     -10.130  18.221  66.594  1.00  0.00    -0.386 A  
HETATM   16  C   UNL     1     -10.127  17.125  65.719  1.00  0.00    -0.192 A  
HETATM   17  C   UNL     1     -10.532  15.856  66.165  1.00  0.00    -0.336 A  
BRANCH  15  18
HETATM   18  C   UNL     1      -9.555  19.561  66.194  1.00  0.00    -0.431 C  
BRANCH  18  19
HETATM   19  C   UNL     1      -8.159  19.792  66.784  1.00  0.00    -0.304 C  
HETATM   20  S   UNL     1      -8.082  19.624  68.605  1.00  0.00    -0.233 SA 
HETATM   21  C   UNL     1      -6.697  18.575  68.540  1.00  0.00    -0.255 C  
HETATM   22  N   UNL     1      -6.489  18.156  67.272  1.00  0.00    -0.175 N  
HETATM   23  O   UNL     1      -6.004  18.297  69.503  1.00  0.00    -0.234 OA 
HETATM   24  C   UNL     1      -7.154  18.787  66.264  1.00  0.00    -0.246 C  
HETATM   25  H   UNL     1      -5.851  17.385  67.074  1.00  0.00     0.000 HD 
HETATM   26  O   UNL     1      -6.903  18.600  65.081  1.00  0.00    -0.522 OA 
ENDBRANCH  18  19
ENDBRANCH  15  18
ENDBRANCH  11  12
ENDBRANCH  10  11
ENDBRANCH   9  10
ENDBRANCH   6   9
ENDBRANCH   2   3
TORSDOF 7
ENDMDL
MODEL      176
REMARK 921   NORMALIZED FREE ENERGY PREDICTED BY IDOCK:   -4.32 KCAL/MOL
REMARK 922        TOTAL FREE ENERGY PREDICTED BY IDOCK:   -7.23 KCAL/MOL
REMARK 923 INTER-LIGAND FREE ENERGY PREDICTED BY IDOCK:   -6.92 KCAL/MOL
REMARK 924 INTRA-LIGAND FREE ENERGY PREDICTED BY IDOCK:   -0.32 KCAL/MOL
REMARK 927      BINDING AFFINITY PREDICTED BY RF-SCORE:    0.00 PKD
ROOT
HETATM    1  C   UNL     1     -12.020  14.309  65.913  1.00  0.00    -0.400 C  
HETATM    2  C   UNL     1     -11.494  13.828  64.569  1.00  0.00    -0.401 C  
ENDROOT
BRANCH   2   3
HETATM    3  C   UNL     1     -10.807  12.498  64.684  1.00  0.00    -0.343 A  
HETATM    4  C   UNL     1     -10.349  12.039  65.909  1.00  0.00    -0.244 A  
HETATM    5  N   UNL     1      -9.695  10.871  66.078  1.00  0.00    -0.214 NA 
HETATM    6  C   UNL     1      -9.475  10.089  64.990  1.00  0.00    -0.277 A  
HETATM    7  C   UNL     1      -9.890  10.474  63.721  1.00  0.00    -0.363 A  
HETATM    8  C   UNL     1     -10.562  11.690  63.572  1.00  0.00    -0.496 A  
BRANCH   6   9
HETATM    9  C   UNL     1      -8.722   8.791  65.214  1.00  0.00    -0.216 C  
BRANCH   9  10
HETATM   10  C   UNL     1      -8.939   8.321  66.651  1.00  0.00    -0.150 C  
BRANCH  10  11
HETATM   11  O   UNL     1     -10.154   7.587  66.849  1.00  0.00    -0.224 OA 
BRANCH  11  12
HETATM   12  C   UNL     1     -10.601   7.630  68.159  1.00  0.00    -0.130 A  
HETATM   13  C   UNL     1     -11.085   6.529  68.870  1.00  0.00    -0.371 A  
HETATM   14  C   UNL     1     -11.452   6.640  70.209  1.00  0.00    -0.449 A  
HETATM   15  C   UNL     1     -11.324   7.859  70.878  1.00  0.00    -0.290 A  
HETATM   16  C   UNL     1     -10.896   8.983  70.156  1.00  0.00    -0.261 A  
HETATM   17  C   UNL     1     -10.532   8.865  68.804  1.00  0.00    -0.223 A  
BRANCH  15  18
HETATM   18  C   UNL     1     -11.572   7.917  72.368  1.00  0.00    -0.436 C  
BRANCH  18  19
HETATM   19  C   UNL     1     -10.513   7.144  73.162  1.00  0.00    -0.321 C  
HETATM   20  S   UNL     1     -10.637   5.325  72.997  1.00  0.00    -0.257 SA 
HETATM   21  C   UNL     1      -8.942   5.150  72.649  1.00  0.00    -0.125 C  
HETATM   22  N   UNL     1      -8.393   6.359  72.393  1.00  0.00    -0.107 N  
HETATM   23  O   UNL     1      -8.346   4.089  72.671  1.00  0.00    -0.096 OA 
HETATM   24  C   UNL     1      -9.110   7.475  72.702  1.00  0.00    -0.150 C  
HETATM   25  H   UNL     1      -7.464   6.433  71.978  1.00  0.00     0.000 HD 
HETATM   26  O   UNL     1      -8.634   8.603  72.672  1.00  0.00    -0.376 OA 
ENDBRANCH  18  19
ENDBRANCH  15  18
ENDBRANCH  11  12
ENDBRANCH  10  11
ENDBRANCH   9  10
ENDBRANCH   6   9
ENDBRANCH   2   3
TORSDOF 7
ENDMDL
MODEL      177
REMARK 921   NORMALIZED FREE ENERGY PREDICTED BY IDOCK:   -4.31 KCAL/MOL
REMARK 922        TOTAL FREE ENERGY PREDICTED BY IDOCK:   -7.22 KCAL/MOL
REMARK 923 INTER-LIGAND FREE ENERGY PREDICTED BY IDOCK:   -7.18 KCAL/MOL
REMARK 924 INTRA-LIGAND FREE ENERGY PREDICTED BY IDOCK:   -0.04 KCAL/MOL
REMARK 927      BINDING AFFINITY PREDICTED BY RF-SCORE:    0.00 PKD
ROOT
HETATM    1  C   UNL     1     -13.528   8.146  72.526  1.00  0.00     0.006 C  
HETATM    2  C   UNL     1     -12.007   8.092  72.518  1.00  0.00    -0.384 C  
ENDROOT
BRANCH   2   3
HETATM    3  C   UNL     1     -11.436   8.704  71.272  1.00  0.00    -0.341 A  
HETATM    4  C   UNL     1     -10.685   7.945  70.388  1.00  0.00    -0.233 A  
HETATM    5  N   UNL     1     -10.115   8.437  69.269  1.00  0.00    -0.197 NA 
HETATM    6  C   UNL     1     -10.289   9.753  68.980  1.00  0.00    -0.208 A  
HETATM    7  C   UNL     1     -11.018  10.591  69.813  1.00  0.00    -0.350 A  
HETATM    8  C   UNL     1     -11.595  10.057  70.969  1.00  0.00    -0.476 A  
BRANCH   6   9
HETATM    9  C   UNL     1      -9.621  10.277  67.722  1.00  0.00    -0.171 C  
BRANCH   9  10
HETATM   10  C   UNL     1     -10.684  10.555  66.662  1.00  0.00    -0.155 C  
BRANCH  10  11
HETATM   11  O   UNL     1     -11.564  11.639  66.985  1.00  0.00    -0.500 OA 
BRANCH  11  12
HETATM   12  C   UNL     1     -10.976  12.880  66.807  1.00  0.00    -0.272 A  
HETATM   13  C   UNL     1     -10.423  13.651  67.833  1.00  0.00    -0.249 A  
HETATM   14  C   UNL     1      -9.788  14.860  67.563  1.00  0.00    -0.217 A  
HETATM   15  C   UNL     1      -9.672  15.320  66.250  1.00  0.00    -0.325 A  
HETATM   16  C   UNL     1     -10.276  14.583  65.221  1.00  0.00    -0.431 A  
HETATM   17  C   UNL     1     -10.921  13.365  65.502  1.00  0.00    -0.294 A  
BRANCH  15  18
HETATM   18  C   UNL     1      -8.838  16.548  65.964  1.00  0.00    -0.267 C  
BRANCH  18  19
HETATM   19  C   UNL     1      -9.609  17.847  66.229  1.00  0.00    -0.241 C  
HETATM   20  S   UNL     1     -10.436  17.904  67.861  1.00  0.00    -0.380 SA 
HETATM   21  C   UNL     1      -9.801  19.480  68.228  1.00  0.00    -0.416 C  
HETATM   22  N   UNL     1      -8.830  19.808  67.346  1.00  0.00    -0.315 N  
HETATM   23  O   UNL     1     -10.207  20.187  69.133  1.00  0.00    -0.321 OA 
HETATM   24  C   UNL     1      -8.699  19.055  66.218  1.00  0.00    -0.273 C  
HETATM   25  H   UNL     1      -8.211  20.600  67.520  1.00  0.00     0.000 HD 
HETATM   26  O   UNL     1      -7.974  19.374  65.284  1.00  0.00    -0.169 OA 
ENDBRANCH  18  19
ENDBRANCH  15  18
ENDBRANCH  11  12
ENDBRANCH  10  11
ENDBRANCH   9  10
ENDBRANCH   6   9
ENDBRANCH   2   3
TORSDOF 7
ENDMDL
MODEL      178
REMARK 921   NORMALIZED FREE ENERGY PREDICTED BY IDOCK:   -4.31 KCAL/MOL
REMARK 922        TOTAL FREE ENERGY PREDICTED BY IDOCK:   -7.21 KCAL/MOL
REMARK 923 INTER-LIGAND FREE ENERGY PREDICTED BY IDOCK:   -6.75 KCAL/MOL
REMARK 924 INTRA-LIGAND FREE ENERGY PREDICTED BY IDOCK:   -0.47 KCAL/MOL
REMARK 927      BINDING AFFINITY PREDICTED BY RF-SCORE:    0.00 PKD
ROOT
HETATM    1  C   UNL     1     -13.717   8.113  72.190  1.00  0.00    -0.282 C  
HETATM    2  C   UNL     1     -12.247   8.077  71.799  1.00  0.00    -0.352 C  
ENDROOT
BRANCH   2   3
HETATM    3  C   UNL     1     -11.928   9.094  70.741  1.00  0.00    -0.243 A  
HETATM    4  C   UNL     1     -11.160   8.755  69.638  1.00  0.00    -0.028 A  
HETATM    5  N   UNL     1     -10.808   9.626  68.669  1.00  0.00    -0.200 NA 
HETATM    6  C   UNL     1     -11.236  10.911  68.768  1.00  0.00    -0.270 A  
HETATM    7  C   UNL     1     -12.002  11.343  69.844  1.00  0.00    -0.434 A  
HETATM    8  C   UNL     1     -12.349  10.422  70.837  1.00  0.00    -0.480 A  
BRANCH   6   9
HETATM    9  C   UNL     1     -10.809  11.867  67.670  1.00  0.00    -0.271 C  
BRANCH   9  10
HETATM   10  C   UNL     1     -12.019  12.673  67.202  1.00  0.00    -0.256 C  
BRANCH  10  11
HETATM   11  O   UNL     1     -12.128  13.968  67.807  1.00  0.00    -0.371 OA 
BRANCH  11  12
HETATM   12  C   UNL     1     -11.026  14.770  67.563  1.00  0.00    -0.304 A  
HETATM   13  C   UNL     1     -10.110  15.179  68.536  1.00  0.00    -0.228 A  
HETATM   14  C   UNL     1      -8.987  15.930  68.198  1.00  0.00    -0.181 A  
HETATM   15  C   UNL     1      -8.741  16.275  66.868  1.00  0.00    -0.237 A  
HETATM   16  C   UNL     1      -9.685  15.920  65.894  1.00  0.00    -0.386 A  
HETATM   17  C   UNL     1     -10.820  15.167  66.242  1.00  0.00    -0.333 A  
BRANCH  15  18
HETATM   18  C   UNL     1      -7.437  16.947  66.505  1.00  0.00    -0.328 C  
BRANCH  18  19
HETATM   19  C   UNL     1      -7.481  18.462  66.735  1.00  0.00    -0.219 C  
HETATM   20  S   UNL     1      -9.089  19.232  66.321  1.00  0.00    -0.274 SA 
HETATM   21  C   UNL     1      -9.168  20.092  67.830  1.00  0.00    -0.270 C  
HETATM   22  N   UNL     1      -8.229  19.623  68.683  1.00  0.00    -0.316 N  
HETATM   23  O   UNL     1      -9.940  21.006  68.057  1.00  0.00    -0.023 OA 
HETATM   24  C   UNL     1      -7.248  18.818  68.187  1.00  0.00    -0.252 C  
HETATM   25  H   UNL     1      -8.254  19.866  69.673  1.00  0.00     0.000 HD 
HETATM   26  O   UNL     1      -6.263  18.491  68.837  1.00  0.00    -0.210 OA 
ENDBRANCH  18  19
ENDBRANCH  15  18
ENDBRANCH  11  12
ENDBRANCH  10  11
ENDBRANCH   9  10
ENDBRANCH   6   9
ENDBRANCH   2   3
TORSDOF 7
ENDMDL
MODEL      179
REMARK 921   NORMALIZED FREE ENERGY PREDICTED BY IDOCK:   -4.30 KCAL/MOL
REMARK 922        TOTAL FREE ENERGY PREDICTED BY IDOCK:   -7.21 KCAL/MOL
REMARK 923 INTER-LIGAND FREE ENERGY PREDICTED BY IDOCK:   -6.70 KCAL/MOL
REMARK 924 INTRA-LIGAND FREE ENERGY PREDICTED BY IDOCK:   -0.51 KCAL/MOL
REMARK 927      BINDING AFFINITY PREDICTED BY RF-SCORE:    0.00 PKD
ROOT
HETATM    1  C   UNL     1      -9.812  20.161  66.365  1.00  0.00    -0.560 C  
HETATM    2  C   UNL     1      -9.117  18.815  66.228  1.00  0.00    -0.250 C  
ENDROOT
BRANCH   2   3
HETATM    3  C   UNL     1      -9.638  17.816  67.220  1.00  0.00    -0.272 A  
HETATM    4  C   UNL     1      -9.905  18.187  68.528  1.00  0.00    -0.382 A  
HETATM    5  N   UNL     1     -10.341  17.334  69.478  1.00  0.00    -0.178 NA 
HETATM    6  C   UNL     1     -10.542  16.035  69.138  1.00  0.00    -0.260 A  
HETATM    7  C   UNL     1     -10.291  15.571  67.853  1.00  0.00    -0.250 A  
HETATM    8  C   UNL     1      -9.835  16.474  66.888  1.00  0.00    -0.262 A  
BRANCH   6   9
HETATM    9  C   UNL     1     -11.018  15.100  70.235  1.00  0.00    -0.277 C  
BRANCH   9  10
HETATM   10  C   UNL     1     -12.178  14.255  69.712  1.00  0.00    -0.339 C  
BRANCH  10  11
HETATM   11  O   UNL     1     -12.426  13.067  70.474  1.00  0.00    -0.305 OA 
BRANCH  11  12
HETATM   12  C   UNL     1     -11.965  11.921  69.848  1.00  0.00    -0.325 A  
HETATM   13  C   UNL     1     -11.634  11.835  68.493  1.00  0.00    -0.380 A  
HETATM   14  C   UNL     1     -11.112  10.663  67.951  1.00  0.00    -0.371 A  
HETATM   15  C   UNL     1     -10.888   9.549  68.762  1.00  0.00    -0.173 A  
HETATM   16  C   UNL     1     -11.272   9.607  70.109  1.00  0.00    -0.302 A  
HETATM   17  C   UNL     1     -11.804  10.791  70.648  1.00  0.00    -0.460 A  
BRANCH  15  18
HETATM   18  C   UNL     1     -10.170   8.348  68.190  1.00  0.00    -0.253 C  
BRANCH  18  19
HETATM   19  C   UNL     1      -8.763   8.180  68.776  1.00  0.00    -0.138 C  
HETATM   20  S   UNL     1      -8.015   9.739  69.375  1.00  0.00    -0.140 SA 
HETATM   21  C   UNL     1      -7.557   9.038  70.900  1.00  0.00    -0.124 C  
HETATM   22  N   UNL     1      -8.162   7.840  71.061  1.00  0.00    -0.101 N  
HETATM   23  O   UNL     1      -6.776   9.551  71.681  1.00  0.00    -0.310 OA 
HETATM   24  C   UNL     1      -8.760   7.265  69.980  1.00  0.00    -0.141 C  
HETATM   25  H   UNL     1      -8.171   7.378  71.971  1.00  0.00     0.000 HD 
HETATM   26  O   UNL     1      -9.176   6.114  69.983  1.00  0.00    -0.148 OA 
ENDBRANCH  18  19
ENDBRANCH  15  18
ENDBRANCH  11  12
ENDBRANCH  10  11
ENDBRANCH   9  10
ENDBRANCH   6   9
ENDBRANCH   2   3
TORSDOF 7
ENDMDL
MODEL      180
REMARK 921   NORMALIZED FREE ENERGY PREDICTED BY IDOCK:   -4.30 KCAL/MOL
REMARK 922        TOTAL FREE ENERGY PREDICTED BY IDOCK:   -7.21 KCAL/MOL
REMARK 923 INTER-LIGAND FREE ENERGY PREDICTED BY IDOCK:   -7.06 KCAL/MOL
REMARK 924 INTRA-LIGAND FREE ENERGY PREDICTED BY IDOCK:   -0.15 KCAL/MOL
REMARK 927      BINDING AFFINITY PREDICTED BY RF-SCORE:    0.00 PKD
ROOT
HETATM    1  C   UNL     1      -6.053   5.941  72.770  1.00  0.00    -0.045 C  
HETATM    2  C   UNL     1      -6.990   5.954  71.570  1.00  0.00    -0.076 C  
ENDROOT
BRANCH   2   3
HETATM    3  C   UNL     1      -8.322   6.558  71.911  1.00  0.00    -0.115 A  
HETATM    4  C   UNL     1      -9.482   5.804  71.844  1.00  0.00    -0.151 A  
HETATM    5  N   UNL     1     -10.713   6.291  72.103  1.00  0.00    -0.223 NA 
HETATM    6  C   UNL     1     -10.830   7.596  72.461  1.00  0.00    -0.314 A  
HETATM    7  C   UNL     1      -9.722   8.430  72.545  1.00  0.00    -0.359 A  
HETATM    8  C   UNL     1      -8.458   7.902  72.267  1.00  0.00    -0.185 A  
BRANCH   6   9
HETATM    9  C   UNL     1     -12.230   8.115  72.729  1.00  0.00    -0.158 C  
BRANCH   9  10
HETATM   10  C   UNL     1     -12.680   8.987  71.559  1.00  0.00    -0.339 C  
BRANCH  10  11
HETATM   11  O   UNL     1     -12.619  10.395  71.820  1.00  0.00    -0.408 OA 
BRANCH  11  12
HETATM   12  C   UNL     1     -12.299  11.136  70.696  1.00  0.00    -0.388 A  
HETATM   13  C   UNL     1     -11.894  10.592  69.474  1.00  0.00    -0.345 A  
HETATM   14  C   UNL     1     -11.655  11.404  68.367  1.00  0.00    -0.385 A  
HETATM   15  C   UNL     1     -11.835  12.786  68.452  1.00  0.00    -0.353 A  
HETATM   16  C   UNL     1     -12.182  13.346  69.690  1.00  0.00    -0.279 A  
HETATM   17  C   UNL     1     -12.417  12.521  70.804  1.00  0.00    -0.357 A  
BRANCH  15  18
HETATM   18  C   UNL     1     -11.730  13.626  67.200  1.00  0.00    -0.418 C  
BRANCH  18  19
HETATM   19  C   UNL     1     -10.458  13.316  66.400  1.00  0.00    -0.284 C  
HETATM   20  S   UNL     1     -10.506  11.714  65.516  1.00  0.00    -0.283 SA 
HETATM   21  C   UNL     1      -9.973  12.423  64.019  1.00  0.00    -0.233 C  
HETATM   22  N   UNL     1     -10.035  13.771  64.095  1.00  0.00    -0.246 N  
HETATM   23  O   UNL     1      -9.573  11.782  63.064  1.00  0.00    -0.378 OA 
HETATM   24  C   UNL     1     -10.209  14.345  65.318  1.00  0.00    -0.389 C  
HETATM   25  H   UNL     1      -9.953  14.346  63.256  1.00  0.00     0.000 HD 
HETATM   26  O   UNL     1     -10.102  15.548  65.511  1.00  0.00    -0.347 OA 
ENDBRANCH  18  19
ENDBRANCH  15  18
ENDBRANCH  11  12
ENDBRANCH  10  11
ENDBRANCH   9  10
ENDBRANCH   6   9
ENDBRANCH   2   3
TORSDOF 7
ENDMDL
MODEL      181
REMARK 921   NORMALIZED FREE ENERGY PREDICTED BY IDOCK:   -4.29 KCAL/MOL
REMARK 922        TOTAL FREE ENERGY PREDICTED BY IDOCK:   -7.19 KCAL/MOL
REMARK 923 INTER-LIGAND FREE ENERGY PREDICTED BY IDOCK:   -7.03 KCAL/MOL
REMARK 924 INTRA-LIGAND FREE ENERGY PREDICTED BY IDOCK:   -0.17 KCAL/MOL
REMARK 927      BINDING AFFINITY PREDICTED BY RF-SCORE:    0.00 PKD
ROOT
HETATM    1  C   UNL     1     -10.256  10.914  63.210  1.00  0.00    -0.317 C  
HETATM    2  C   UNL     1      -9.443  10.932  64.495  1.00  0.00    -0.284 C  
ENDROOT
BRANCH   2   3
HETATM    3  C   UNL     1     -10.111  11.746  65.565  1.00  0.00    -0.285 A  
HETATM    4  C   UNL     1      -9.413  12.144  66.695  1.00  0.00    -0.223 A  
HETATM    5  N   UNL     1      -9.960  12.847  67.708  1.00  0.00    -0.224 NA 
HETATM    6  C   UNL     1     -11.269  13.197  67.620  1.00  0.00    -0.282 A  
HETATM    7  C   UNL     1     -12.048  12.833  66.529  1.00  0.00    -0.338 A  
HETATM    8  C   UNL     1     -11.459  12.101  65.495  1.00  0.00    -0.394 A  
BRANCH   6   9
HETATM    9  C   UNL     1     -11.855  13.973  68.785  1.00  0.00    -0.396 C  
BRANCH   9  10
HETATM   10  C   UNL     1     -10.770  14.848  69.409  1.00  0.00    -0.256 C  
BRANCH  10  11
HETATM   11  O   UNL     1     -11.201  16.178  69.726  1.00  0.00    -0.323 OA 
BRANCH  11  12
HETATM   12  C   UNL     1     -10.765  17.117  68.808  1.00  0.00    -0.289 A  
HETATM   13  C   UNL     1     -10.407  18.431  69.124  1.00  0.00     0.034 A  
HETATM   14  C   UNL     1      -9.912  19.297  68.152  1.00  0.00    -0.482 A  
HETATM   15  C   UNL     1      -9.743  18.861  66.837  1.00  0.00    -0.356 A  
HETATM   16  C   UNL     1     -10.155  17.564  66.498  1.00  0.00    -0.331 A  
HETATM   17  C   UNL     1     -10.659  16.696  67.483  1.00  0.00    -0.311 A  
BRANCH  15  18
HETATM   18  C   UNL     1      -9.053  19.763  65.839  1.00  0.00    -0.188 C  
BRANCH  18  19
HETATM   19  C   UNL     1      -7.537  19.823  66.064  1.00  0.00    -0.330 C  
HETATM   20  S   UNL     1      -7.039  20.793  67.534  1.00  0.00    -0.325 SA 
HETATM   21  C   UNL     1      -5.984  19.538  68.115  1.00  0.00    -0.212 C  
HETATM   22  N   UNL     1      -6.205  18.392  67.434  1.00  0.00    -0.179 N  
HETATM   23  O   UNL     1      -5.149  19.697  68.987  1.00  0.00    -0.184 OA 
HETATM   24  C   UNL     1      -6.947  18.448  66.293  1.00  0.00    -0.243 C  
HETATM   25  H   UNL     1      -5.825  17.505  67.766  1.00  0.00     0.000 HD 
HETATM   26  O   UNL     1      -7.053  17.506  65.519  1.00  0.00    -0.308 OA 
ENDBRANCH  18  19
ENDBRANCH  15  18
ENDBRANCH  11  12
ENDBRANCH  10  11
ENDBRANCH   9  10
ENDBRANCH   6   9
ENDBRANCH   2   3
TORSDOF 7
ENDMDL
MODEL      182
REMARK 921   NORMALIZED FREE ENERGY PREDICTED BY IDOCK:   -4.28 KCAL/MOL
REMARK 922        TOTAL FREE ENERGY PREDICTED BY IDOCK:   -7.18 KCAL/MOL
REMARK 923 INTER-LIGAND FREE ENERGY PREDICTED BY IDOCK:   -6.49 KCAL/MOL
REMARK 924 INTRA-LIGAND FREE ENERGY PREDICTED BY IDOCK:   -0.69 KCAL/MOL
REMARK 927      BINDING AFFINITY PREDICTED BY RF-SCORE:    0.00 PKD
ROOT
HETATM    1  C   UNL     1     -13.666   8.682  71.616  1.00  0.00    -0.424 C  
HETATM    2  C   UNL     1     -12.410   8.414  72.432  1.00  0.00    -0.412 C  
ENDROOT
BRANCH   2   3
HETATM    3  C   UNL     1     -11.180   8.401  71.571  1.00  0.00    -0.328 A  
HETATM    4  C   UNL     1     -10.772   7.241  70.931  1.00  0.00    -0.234 A  
HETATM    5  N   UNL     1      -9.661   7.150  70.172  1.00  0.00    -0.172 NA 
HETATM    6  C   UNL     1      -8.895   8.259  70.012  1.00  0.00    -0.134 A  
HETATM    7  C   UNL     1      -9.221   9.464  70.623  1.00  0.00    -0.303 A  
HETATM    8  C   UNL     1     -10.375   9.530  71.408  1.00  0.00    -0.216 A  
BRANCH   6   9
HETATM    9  C   UNL     1      -7.644   8.117  69.165  1.00  0.00    -0.096 C  
BRANCH   9  10
HETATM   10  C   UNL     1      -7.301   9.467  68.538  1.00  0.00    -0.079 C  
BRANCH  10  11
HETATM   11  O   UNL     1      -8.277   9.944  67.603  1.00  0.00    -0.113 OA 
BRANCH  11  12
HETATM   12  C   UNL     1      -8.286  11.323  67.491  1.00  0.00    -0.124 A  
HETATM   13  C   UNL     1      -7.263  12.163  67.940  1.00  0.00    -0.102 A  
HETATM   14  C   UNL     1      -7.314  13.539  67.729  1.00  0.00    -0.166 A  
HETATM   15  C   UNL     1      -8.388  14.108  67.041  1.00  0.00    -0.142 A  
HETATM   16  C   UNL     1      -9.446  13.281  66.639  1.00  0.00    -0.262 A  
HETATM   17  C   UNL     1      -9.391  11.894  66.861  1.00  0.00    -0.198 A  
BRANCH  15  18
HETATM   18  C   UNL     1      -8.343  15.575  66.680  1.00  0.00    -0.286 C  
BRANCH  18  19
HETATM   19  C   UNL     1      -9.640  16.303  67.051  1.00  0.00    -0.231 C  
HETATM   20  S   UNL     1      -9.412  17.673  68.244  1.00  0.00    -0.305 SA 
HETATM   21  C   UNL     1     -10.338  18.786  67.281  1.00  0.00    -0.416 C  
HETATM   22  N   UNL     1     -10.551  18.270  66.049  1.00  0.00    -0.384 N  
HETATM   23  O   UNL     1     -10.756  19.856  67.684  1.00  0.00    -0.375 OA 
HETATM   24  C   UNL     1     -10.289  16.948  65.846  1.00  0.00    -0.315 C  
HETATM   25  H   UNL     1     -10.900  18.856  65.290  1.00  0.00     0.000 HD 
HETATM   26  O   UNL     1     -10.613  16.354  64.826  1.00  0.00    -0.676 OA 
ENDBRANCH  18  19
ENDBRANCH  15  18
ENDBRANCH  11  12
ENDBRANCH  10  11
ENDBRANCH   9  10
ENDBRANCH   6   9
ENDBRANCH   2   3
TORSDOF 7
ENDMDL
MODEL      183
REMARK 921   NORMALIZED FREE ENERGY PREDICTED BY IDOCK:   -4.28 KCAL/MOL
REMARK 922        TOTAL FREE ENERGY PREDICTED BY IDOCK:   -7.18 KCAL/MOL
REMARK 923 INTER-LIGAND FREE ENERGY PREDICTED BY IDOCK:   -6.93 KCAL/MOL
REMARK 924 INTRA-LIGAND FREE ENERGY PREDICTED BY IDOCK:   -0.24 KCAL/MOL
REMARK 927      BINDING AFFINITY PREDICTED BY RF-SCORE:    0.00 PKD
ROOT
HETATM    1  C   UNL     1      -8.382   4.233  72.108  1.00  0.00    -0.103 C  
HETATM    2  C   UNL     1      -9.887   4.071  71.950  1.00  0.00    -0.247 C  
ENDROOT
BRANCH   2   3
HETATM    3  C   UNL     1     -10.605   5.383  72.085  1.00  0.00    -0.284 A  
HETATM    4  C   UNL     1     -11.634   5.722  71.221  1.00  0.00     0.120 A  
HETATM    5  N   UNL     1     -12.297   6.896  71.264  1.00  0.00    -0.375 NA 
HETATM    6  C   UNL     1     -11.948   7.801  72.215  1.00  0.00    -0.309 A  
HETATM    7  C   UNL     1     -10.923   7.550  73.117  1.00  0.00    -0.420 A  
HETATM    8  C   UNL     1     -10.248   6.328  73.048  1.00  0.00    -0.213 A  
BRANCH   6   9
HETATM    9  C   UNL     1     -12.704   9.117  72.224  1.00  0.00    -0.447 C  
BRANCH   9  10
HETATM   10  C   UNL     1     -11.929  10.152  71.411  1.00  0.00    -0.358 C  
BRANCH  10  11
HETATM   11  O   UNL     1     -12.325  11.507  71.659  1.00  0.00    -0.133 OA 
BRANCH  11  12
HETATM   12  C   UNL     1     -12.198  12.316  70.544  1.00  0.00    -0.300 A  
HETATM   13  C   UNL     1     -12.189  13.714  70.573  1.00  0.00    -0.438 A  
HETATM   14  C   UNL     1     -11.988  14.458  69.413  1.00  0.00    -0.370 A  
HETATM   15  C   UNL     1     -11.770  13.817  68.191  1.00  0.00    -0.392 A  
HETATM   16  C   UNL     1     -11.836  12.417  68.143  1.00  0.00    -0.372 A  
HETATM   17  C   UNL     1     -12.045  11.673  69.316  1.00  0.00    -0.323 A  
BRANCH  15  18
HETATM   18  C   UNL     1     -11.392  14.639  66.980  1.00  0.00    -0.362 C  
BRANCH  18  19
HETATM   19  C   UNL     1      -9.949  14.378  66.530  1.00  0.00    -0.283 C  
HETATM   20  S   UNL     1      -8.897  13.603  67.812  1.00  0.00    -0.203 SA 
HETATM   21  C   UNL     1      -8.311  12.382  66.721  1.00  0.00    -0.059 C  
HETATM   22  N   UNL     1      -9.051  12.376  65.589  1.00  0.00    -0.416 N  
HETATM   23  O   UNL     1      -7.350  11.669  66.945  1.00  0.00    -0.143 OA 
HETATM   24  C   UNL     1      -9.889  13.425  65.356  1.00  0.00    -0.110 C  
HETATM   25  H   UNL     1      -8.984  11.604  64.925  1.00  0.00     0.000 HD 
HETATM   26  O   UNL     1     -10.462  13.596  64.289  1.00  0.00    -0.392 OA 
ENDBRANCH  18  19
ENDBRANCH  15  18
ENDBRANCH  11  12
ENDBRANCH  10  11
ENDBRANCH   9  10
ENDBRANCH   6   9
ENDBRANCH   2   3
TORSDOF 7
ENDMDL
MODEL      184
REMARK 921   NORMALIZED FREE ENERGY PREDICTED BY IDOCK:   -4.28 KCAL/MOL
REMARK 922        TOTAL FREE ENERGY PREDICTED BY IDOCK:   -7.17 KCAL/MOL
REMARK 923 INTER-LIGAND FREE ENERGY PREDICTED BY IDOCK:   -6.62 KCAL/MOL
REMARK 924 INTRA-LIGAND FREE ENERGY PREDICTED BY IDOCK:   -0.55 KCAL/MOL
REMARK 927      BINDING AFFINITY PREDICTED BY RF-SCORE:    0.00 PKD
ROOT
HETATM    1  C   UNL     1     -11.859  15.770  71.359  1.00  0.00    -0.503 C  
HETATM    2  C   UNL     1     -12.079  14.796  70.210  1.00  0.00    -0.380 C  
ENDROOT
BRANCH   2   3
HETATM    3  C   UNL     1     -12.390  13.413  70.706  1.00  0.00    -0.433 A  
HETATM    4  C   UNL     1     -13.109  13.222  71.875  1.00  0.00    -0.388 A  
HETATM    5  N   UNL     1     -13.394  12.010  72.395  1.00  0.00    -0.258 NA 
HETATM    6  C   UNL     1     -12.963  10.906  71.733  1.00  0.00    -0.451 A  
HETATM    7  C   UNL     1     -12.227  11.001  70.558  1.00  0.00    -0.472 A  
HETATM    8  C   UNL     1     -11.941  12.269  70.044  1.00  0.00    -0.379 A  
BRANCH   6   9
HETATM    9  C   UNL     1     -13.287   9.559  72.354  1.00  0.00    -0.469 C  
BRANCH   9  10
HETATM   10  C   UNL     1     -12.958   8.450  71.357  1.00  0.00    -0.229 C  
BRANCH  10  11
HETATM   11  O   UNL     1     -11.732   7.759  71.634  1.00  0.00    -0.263 OA 
BRANCH  11  12
HETATM   12  C   UNL     1     -11.016   7.455  70.489  1.00  0.00    -0.253 A  
HETATM   13  C   UNL     1      -9.820   8.072  70.113  1.00  0.00    -0.184 A  
HETATM   14  C   UNL     1      -9.122   7.662  68.979  1.00  0.00    -0.144 A  
HETATM   15  C   UNL     1      -9.599   6.606  68.201  1.00  0.00    -0.120 A  
HETATM   16  C   UNL     1     -10.828   6.021  68.536  1.00  0.00    -0.363 A  
HETATM   17  C   UNL     1     -11.530   6.444  69.678  1.00  0.00    -0.446 A  
BRANCH  15  18
HETATM   18  C   UNL     1      -8.745   6.072  67.073  1.00  0.00    -0.110 C  
BRANCH  18  19
HETATM   19  C   UNL     1      -8.099   4.726  67.423  1.00  0.00    -0.102 C  
HETATM   20  S   UNL     1      -7.884   4.446  69.219  1.00  0.00    -0.057 SA 
HETATM   21  C   UNL     1      -8.592   2.859  69.147  1.00  0.00    -0.073 C  
HETATM   22  N   UNL     1      -9.195   2.672  67.952  1.00  0.00    -0.190 N  
HETATM   23  O   UNL     1      -8.515   2.035  70.041  1.00  0.00    -0.044 OA 
HETATM   24  C   UNL     1      -8.938   3.559  66.950  1.00  0.00    -0.152 C  
HETATM   25  H   UNL     1      -9.829   1.886  67.804  1.00  0.00     0.000 HD 
HETATM   26  O   UNL     1      -9.294   3.378  65.793  1.00  0.00    -0.157 OA 
ENDBRANCH  18  19
ENDBRANCH  15  18
ENDBRANCH  11  12
ENDBRANCH  10  11
ENDBRANCH   9  10
ENDBRANCH   6   9
ENDBRANCH   2   3
TORSDOF 7
ENDMDL
MODEL      185
REMARK 921   NORMALIZED FREE ENERGY PREDICTED BY IDOCK:   -4.26 KCAL/MOL
REMARK 922        TOTAL FREE ENERGY PREDICTED BY IDOCK:   -7.14 KCAL/MOL
REMARK 923 INTER-LIGAND FREE ENERGY PREDICTED BY IDOCK:   -6.52 KCAL/MOL
REMARK 924 INTRA-LIGAND FREE ENERGY PREDICTED BY IDOCK:   -0.62 KCAL/MOL
REMARK 927      BINDING AFFINITY PREDICTED BY RF-SCORE:    0.00 PKD
ROOT
HETATM    1  C   UNL     1      -9.549   3.708  66.543  1.00  0.00    -0.159 C  
HETATM    2  C   UNL     1     -10.479   4.823  66.087  1.00  0.00    -0.332 C  
ENDROOT
BRANCH   2   3
HETATM    3  C   UNL     1     -10.412   6.012  67.001  1.00  0.00    -0.334 A  
HETATM    4  C   UNL     1     -10.876   5.933  68.305  1.00  0.00    -0.240 A  
HETATM    5  N   UNL     1     -10.877   6.970  69.167  1.00  0.00    -0.217 NA 
HETATM    6  C   UNL     1     -10.387   8.164  68.744  1.00  0.00    -0.202 A  
HETATM    7  C   UNL     1      -9.909   8.338  67.451  1.00  0.00    -0.246 A  
HETATM    8  C   UNL     1      -9.924   7.249  66.575  1.00  0.00    -0.182 A  
BRANCH   6   9
HETATM    9  C   UNL     1     -10.418   9.313  69.735  1.00  0.00    -0.235 C  
BRANCH   9  10
HETATM   10  C   UNL     1     -10.034  10.608  69.021  1.00  0.00    -0.213 C  
BRANCH  10  11
HETATM   11  O   UNL     1     -11.141  11.480  68.757  1.00  0.00    -0.200 OA 
BRANCH  11  12
HETATM   12  C   UNL     1     -10.795  12.819  68.815  1.00  0.00    -0.234 A  
HETATM   13  C   UNL     1     -11.602  13.825  69.352  1.00  0.00    -0.365 A  
HETATM   14  C   UNL     1     -11.154  15.141  69.437  1.00  0.00    -0.283 A  
HETATM   15  C   UNL     1      -9.871  15.480  69.002  1.00  0.00    -0.235 A  
HETATM   16  C   UNL     1      -9.077  14.489  68.408  1.00  0.00    -0.191 A  
HETATM   17  C   UNL     1      -9.538  13.164  68.320  1.00  0.00    -0.218 A  
BRANCH  15  18
HETATM   18  C   UNL     1      -9.347  16.875  69.254  1.00  0.00    -0.031 C  
BRANCH  18  19
HETATM   19  C   UNL     1      -8.979  17.600  67.954  1.00  0.00    -0.250 C  
HETATM   20  S   UNL     1     -10.369  17.765  66.774  1.00  0.00    -0.320 SA 
HETATM   21  C   UNL     1     -10.077  19.462  66.530  1.00  0.00    -0.422 C  
HETATM   22  N   UNL     1      -9.211  19.924  67.460  1.00  0.00    -0.333 N  
HETATM   23  O   UNL     1     -10.564  20.116  65.626  1.00  0.00    -0.404 OA 
HETATM   24  C   UNL     1      -8.522  19.019  68.210  1.00  0.00    -0.331 C  
HETATM   25  H   UNL     1      -9.076  20.926  67.597  1.00  0.00     0.000 HD 
HETATM   26  O   UNL     1      -7.596  19.331  68.946  1.00  0.00    -0.345 OA 
ENDBRANCH  18  19
ENDBRANCH  15  18
ENDBRANCH  11  12
ENDBRANCH  10  11
ENDBRANCH   9  10
ENDBRANCH   6   9
ENDBRANCH   2   3
TORSDOF 7
ENDMDL
MODEL      186
REMARK 921   NORMALIZED FREE ENERGY PREDICTED BY IDOCK:   -4.25 KCAL/MOL
REMARK 922        TOTAL FREE ENERGY PREDICTED BY IDOCK:   -7.14 KCAL/MOL
REMARK 923 INTER-LIGAND FREE ENERGY PREDICTED BY IDOCK:   -6.51 KCAL/MOL
REMARK 924 INTRA-LIGAND FREE ENERGY PREDICTED BY IDOCK:   -0.63 KCAL/MOL
REMARK 927      BINDING AFFINITY PREDICTED BY RF-SCORE:    0.00 PKD
ROOT
HETATM    1  C   UNL     1     -12.574  16.067  72.278  1.00  0.00    -0.505 C  
HETATM    2  C   UNL     1     -12.991  15.387  70.982  1.00  0.00    -0.556 C  
ENDROOT
BRANCH   2   3
HETATM    3  C   UNL     1     -12.909  13.892  71.086  1.00  0.00    -0.423 A  
HETATM    4  C   UNL     1     -13.502  13.220  72.143  1.00  0.00    -0.562 A  
HETATM    5  N   UNL     1     -13.438  11.884  72.317  1.00  0.00    -0.304 NA 
HETATM    6  C   UNL     1     -12.762  11.144  71.400  1.00  0.00    -0.418 A  
HETATM    7  C   UNL     1     -12.129  11.734  70.313  1.00  0.00    -0.426 A  
HETATM    8  C   UNL     1     -12.206  13.121  70.159  1.00  0.00    -0.360 A  
BRANCH   6   9
HETATM    9  C   UNL     1     -12.696   9.646  71.634  1.00  0.00    -0.499 C  
BRANCH   9  10
HETATM   10  C   UNL     1     -11.725   9.020  70.636  1.00  0.00    -0.198 C  
BRANCH  10  11
HETATM   11  O   UNL     1     -10.492   8.576  71.218  1.00  0.00    -0.202 OA 
BRANCH  11  12
HETATM   12  C   UNL     1      -9.394   8.845  70.419  1.00  0.00    -0.193 A  
HETATM   13  C   UNL     1      -9.155  10.066  69.782  1.00  0.00    -0.219 A  
HETATM   14  C   UNL     1      -7.990  10.281  69.050  1.00  0.00    -0.125 A  
HETATM   15  C   UNL     1      -7.021   9.280  68.954  1.00  0.00    -0.064 A  
HETATM   16  C   UNL     1      -7.279   8.033  69.540  1.00  0.00    -0.070 A  
HETATM   17  C   UNL     1      -8.460   7.821  70.273  1.00  0.00    -0.133 A  
BRANCH  15  18
HETATM   18  C   UNL     1      -5.697   9.591  68.295  1.00  0.00    -0.037 C  
BRANCH  18  19
HETATM   19  C   UNL     1      -5.785   9.542  66.764  1.00  0.00    -0.051 C  
HETATM   20  S   UNL     1      -7.100   8.438  66.129  1.00  0.00    -0.077 SA 
HETATM   21  C   UNL     1      -7.717   9.649  65.044  1.00  0.00    -0.119 C  
HETATM   22  N   UNL     1      -7.179  10.854  65.338  1.00  0.00    -0.362 N  
HETATM   23  O   UNL     1      -8.494   9.421  64.135  1.00  0.00    -0.167 OA 
HETATM   24  C   UNL     1      -6.105  10.898  66.175  1.00  0.00    -0.135 C  
HETATM   25  H   UNL     1      -7.568  11.711  64.943  1.00  0.00     0.000 HD 
HETATM   26  O   UNL     1      -5.444  11.912  66.359  1.00  0.00    -0.306 OA 
ENDBRANCH  18  19
ENDBRANCH  15  18
ENDBRANCH  11  12
ENDBRANCH  10  11
ENDBRANCH   9  10
ENDBRANCH   6   9
ENDBRANCH   2   3
TORSDOF 7
ENDMDL
MODEL      187
REMARK 921   NORMALIZED FREE ENERGY PREDICTED BY IDOCK:   -4.25 KCAL/MOL
REMARK 922        TOTAL FREE ENERGY PREDICTED BY IDOCK:   -7.13 KCAL/MOL
REMARK 923 INTER-LIGAND FREE ENERGY PREDICTED BY IDOCK:   -7.04 KCAL/MOL
REMARK 924 INTRA-LIGAND FREE ENERGY PREDICTED BY IDOCK:   -0.08 KCAL/MOL
REMARK 927      BINDING AFFINITY PREDICTED BY RF-SCORE:    0.00 PKD
ROOT
HETATM    1  C   UNL     1      -9.460   9.641  65.486  1.00  0.00    -0.330 C  
HETATM    2  C   UNL     1      -8.900   9.505  66.894  1.00  0.00    -0.140 C  
ENDROOT
BRANCH   2   3
HETATM    3  C   UNL     1      -9.913   9.884  67.935  1.00  0.00    -0.190 A  
HETATM    4  C   UNL     1     -11.145  10.404  67.571  1.00  0.00    -0.267 A  
HETATM    5  N   UNL     1     -12.087  10.796  68.453  1.00  0.00    -0.439 NA 
HETATM    6  C   UNL     1     -11.824  10.669  69.780  1.00  0.00    -0.304 A  
HETATM    7  C   UNL     1     -10.612  10.166  70.237  1.00  0.00    -0.324 A  
HETATM    8  C   UNL     1      -9.651   9.771  69.302  1.00  0.00    -0.204 A  
BRANCH   6   9
HETATM    9  C   UNL     1     -12.898  11.134  70.744  1.00  0.00    -0.322 C  
BRANCH   9  10
HETATM   10  C   UNL     1     -12.521  12.506  71.299  1.00  0.00    -0.170 C  
BRANCH  10  11
HETATM   11  O   UNL     1     -12.930  13.604  70.474  1.00  0.00    -0.156 OA 
BRANCH  11  12
HETATM   12  C   UNL     1     -11.874  14.187  69.794  1.00  0.00    -0.322 A  
HETATM   13  C   UNL     1     -10.890  14.983  70.387  1.00  0.00    -0.182 A  
HETATM   14  C   UNL     1      -9.820  15.478  69.645  1.00  0.00    -0.281 A  
HETATM   15  C   UNL     1      -9.698  15.171  68.289  1.00  0.00    -0.219 A  
HETATM   16  C   UNL     1     -10.711  14.423  67.673  1.00  0.00    -0.263 A  
HETATM   17  C   UNL     1     -11.792  13.931  68.426  1.00  0.00    -0.409 A  
BRANCH  15  18
HETATM   18  C   UNL     1      -8.447  15.581  67.546  1.00  0.00    -0.188 C  
BRANCH  18  19
HETATM   19  C   UNL     1      -8.764  16.261  66.208  1.00  0.00    -0.335 C  
HETATM   20  S   UNL     1      -9.795  15.249  65.084  1.00  0.00     0.035 SA 
HETATM   21  C   UNL     1     -10.899  16.557  64.773  1.00  0.00    -0.127 C  
HETATM   22  N   UNL     1     -10.687  17.563  65.651  1.00  0.00    -0.218 N  
HETATM   23  O   UNL     1     -11.715  16.562  63.870  1.00  0.00    -1.148 OA 
HETATM   24  C   UNL     1      -9.549  17.541  66.400  1.00  0.00    -0.269 C  
HETATM   25  H   UNL     1     -11.362  18.321  65.750  1.00  0.00     0.000 HD 
HETATM   26  O   UNL     1      -9.184  18.486  67.086  1.00  0.00    -0.270 OA 
ENDBRANCH  18  19
ENDBRANCH  15  18
ENDBRANCH  11  12
ENDBRANCH  10  11
ENDBRANCH   9  10
ENDBRANCH   6   9
ENDBRANCH   2   3
TORSDOF 7
ENDMDL
MODEL      188
REMARK 921   NORMALIZED FREE ENERGY PREDICTED BY IDOCK:   -4.23 KCAL/MOL
REMARK 922        TOTAL FREE ENERGY PREDICTED BY IDOCK:   -7.11 KCAL/MOL
REMARK 923 INTER-LIGAND FREE ENERGY PREDICTED BY IDOCK:   -6.67 KCAL/MOL
REMARK 924 INTRA-LIGAND FREE ENERGY PREDICTED BY IDOCK:   -0.44 KCAL/MOL
REMARK 927      BINDING AFFINITY PREDICTED BY RF-SCORE:    0.00 PKD
ROOT
HETATM    1  C   UNL     1     -11.296   7.532  71.705  1.00  0.00    -0.283 C  
HETATM    2  C   UNL     1     -10.324   8.691  71.870  1.00  0.00    -0.405 C  
ENDROOT
BRANCH   2   3
HETATM    3  C   UNL     1     -10.026   9.358  70.559  1.00  0.00    -0.328 A  
HETATM    4  C   UNL     1     -11.010   9.501  69.594  1.00  0.00    -0.212 A  
HETATM    5  N   UNL     1     -10.803  10.058  68.383  1.00  0.00    -0.237 NA 
HETATM    6  C   UNL     1      -9.560  10.518  68.088  1.00  0.00    -0.154 A  
HETATM    7  C   UNL     1      -8.509  10.409  68.990  1.00  0.00    -0.155 A  
HETATM    8  C   UNL     1      -8.749   9.823  70.236  1.00  0.00    -0.172 A  
BRANCH   6   9
HETATM    9  C   UNL     1      -9.357  11.125  66.711  1.00  0.00    -0.193 C  
BRANCH   9  10
HETATM   10  C   UNL     1      -9.363  12.648  66.823  1.00  0.00    -0.232 C  
BRANCH  10  11
HETATM   11  O   UNL     1     -10.589  13.193  67.328  1.00  0.00    -0.244 OA 
BRANCH  11  12
HETATM   12  C   UNL     1     -10.433  14.458  67.867  1.00  0.00    -0.239 A  
HETATM   13  C   UNL     1      -9.754  14.737  69.056  1.00  0.00    -0.190 A  
HETATM   14  C   UNL     1      -9.581  16.046  69.498  1.00  0.00    -0.200 A  
HETATM   15  C   UNL     1     -10.069  17.116  68.745  1.00  0.00    -0.329 A  
HETATM   16  C   UNL     1     -10.803  16.843  67.582  1.00  0.00    -0.244 A  
HETATM   17  C   UNL     1     -10.979  15.519  67.145  1.00  0.00    -0.295 A  
BRANCH  15  18
HETATM   18  C   UNL     1      -9.728  18.530  69.158  1.00  0.00    -0.177 C  
BRANCH  18  19
HETATM   19  C   UNL     1      -8.515  19.079  68.396  1.00  0.00    -0.348 C  
HETATM   20  S   UNL     1      -7.481  17.789  67.611  1.00  0.00    -0.204 SA 
HETATM   21  C   UNL     1      -7.452  18.617  66.082  1.00  0.00    -0.255 C  
HETATM   22  N   UNL     1      -8.366  19.612  66.074  1.00  0.00    -0.334 N  
HETATM   23  O   UNL     1      -6.687  18.347  65.173  1.00  0.00    -0.504 OA 
HETATM   24  C   UNL     1      -8.928  19.986  67.257  1.00  0.00    -0.346 C  
HETATM   25  H   UNL     1      -8.629  20.073  65.203  1.00  0.00     0.000 HD 
HETATM   26  O   UNL     1      -9.627  20.983  67.378  1.00  0.00    -0.395 OA 
ENDBRANCH  18  19
ENDBRANCH  15  18
ENDBRANCH  11  12
ENDBRANCH  10  11
ENDBRANCH   9  10
ENDBRANCH   6   9
ENDBRANCH   2   3
TORSDOF 7
ENDMDL
MODEL      189
REMARK 921   NORMALIZED FREE ENERGY PREDICTED BY IDOCK:   -4.23 KCAL/MOL
REMARK 922        TOTAL FREE ENERGY PREDICTED BY IDOCK:   -7.11 KCAL/MOL
REMARK 923 INTER-LIGAND FREE ENERGY PREDICTED BY IDOCK:   -6.96 KCAL/MOL
REMARK 924 INTRA-LIGAND FREE ENERGY PREDICTED BY IDOCK:   -0.15 KCAL/MOL
REMARK 927      BINDING AFFINITY PREDICTED BY RF-SCORE:    0.00 PKD
ROOT
HETATM    1  C   UNL     1      -9.837   6.410  71.220  1.00  0.00    -0.200 C  
HETATM    2  C   UNL     1     -11.319   6.712  71.055  1.00  0.00    -0.366 C  
ENDROOT
BRANCH   2   3
HETATM    3  C   UNL     1     -11.588   8.189  71.036  1.00  0.00    -0.301 A  
HETATM    4  C   UNL     1     -12.449   8.767  71.955  1.00  0.00    -0.386 A  
HETATM    5  N   UNL     1     -12.761  10.079  71.974  1.00  0.00    -0.381 NA 
HETATM    6  C   UNL     1     -12.194  10.891  71.045  1.00  0.00    -0.358 A  
HETATM    7  C   UNL     1     -11.326  10.398  70.078  1.00  0.00    -0.384 A  
HETATM    8  C   UNL     1     -11.023   9.033  70.078  1.00  0.00    -0.230 A  
BRANCH   6   9
HETATM    9  C   UNL     1     -12.579  12.358  71.084  1.00  0.00    -0.349 C  
BRANCH   9  10
HETATM   10  C   UNL     1     -11.907  13.089  69.923  1.00  0.00    -0.307 C  
BRANCH  10  11
HETATM   11  O   UNL     1     -11.971  14.518  70.016  1.00  0.00    -0.291 OA 
BRANCH  11  12
HETATM   12  C   UNL     1     -10.868  15.142  69.460  1.00  0.00    -0.263 A  
HETATM   13  C   UNL     1      -9.922  14.510  68.647  1.00  0.00    -0.237 A  
HETATM   14  C   UNL     1      -8.876  15.224  68.070  1.00  0.00    -0.169 A  
HETATM   15  C   UNL     1      -8.760  16.600  68.276  1.00  0.00    -0.216 A  
HETATM   16  C   UNL     1      -9.668  17.231  69.138  1.00  0.00    -0.129 A  
HETATM   17  C   UNL     1     -10.719  16.504  69.723  1.00  0.00    -0.298 A  
BRANCH  15  18
HETATM   18  C   UNL     1      -7.716  17.380  67.510  1.00  0.00    -0.205 C  
BRANCH  18  19
HETATM   19  C   UNL     1      -8.282  17.999  66.226  1.00  0.00    -0.208 C  
HETATM   20  S   UNL     1     -10.088  17.777  66.025  1.00  0.00    -0.188 SA 
HETATM   21  C   UNL     1     -10.344  19.458  65.659  1.00  0.00    -0.216 C  
HETATM   22  N   UNL     1      -9.232  20.171  65.946  1.00  0.00    -0.546 N  
HETATM   23  O   UNL     1     -11.371  19.905  65.182  1.00  0.00    -0.170 OA 
HETATM   24  C   UNL     1      -8.072  19.497  66.183  1.00  0.00    -0.333 C  
HETATM   25  H   UNL     1      -9.260  21.190  65.985  1.00  0.00     0.000 HD 
HETATM   26  O   UNL     1      -6.986  20.052  66.276  1.00  0.00    -0.224 OA 
ENDBRANCH  18  19
ENDBRANCH  15  18
ENDBRANCH  11  12
ENDBRANCH  10  11
ENDBRANCH   9  10
ENDBRANCH   6   9
ENDBRANCH   2   3
TORSDOF 7
ENDMDL
MODEL      190
REMARK 921   NORMALIZED FREE ENERGY PREDICTED BY IDOCK:   -4.22 KCAL/MOL
REMARK 922        TOTAL FREE ENERGY PREDICTED BY IDOCK:   -7.10 KCAL/MOL
REMARK 923 INTER-LIGAND FREE ENERGY PREDICTED BY IDOCK:   -6.57 KCAL/MOL
REMARK 924 INTRA-LIGAND FREE ENERGY PREDICTED BY IDOCK:   -0.53 KCAL/MOL
REMARK 927      BINDING AFFINITY PREDICTED BY RF-SCORE:    0.00 PKD
ROOT
HETATM    1  C   UNL     1      -9.934  20.323  66.737  1.00  0.00    -0.587 C  
HETATM    2  C   UNL     1      -8.977  19.213  66.325  1.00  0.00    -0.320 C  
ENDROOT
BRANCH   2   3
HETATM    3  C   UNL     1      -9.398  17.882  66.878  1.00  0.00    -0.276 A  
HETATM    4  C   UNL     1     -10.377  17.796  67.855  1.00  0.00    -0.386 A  
HETATM    5  N   UNL     1     -10.779  16.638  68.419  1.00  0.00    -0.337 NA 
HETATM    6  C   UNL     1     -10.201  15.482  68.003  1.00  0.00    -0.229 A  
HETATM    7  C   UNL     1      -9.205  15.473  67.034  1.00  0.00    -0.242 A  
HETATM    8  C   UNL     1      -8.803  16.687  66.469  1.00  0.00    -0.314 A  
BRANCH   6   9
HETATM    9  C   UNL     1     -10.665  14.200  68.669  1.00  0.00    -0.263 C  
BRANCH   9  10
HETATM   10  C   UNL     1     -11.888  13.660  67.930  1.00  0.00    -0.366 C  
BRANCH  10  11
HETATM   11  O   UNL     1     -12.053  12.239  68.032  1.00  0.00    -0.439 OA 
BRANCH  11  12
HETATM   12  C   UNL     1     -11.375  11.547  67.044  1.00  0.00    -0.269 A  
HETATM   13  C   UNL     1     -11.173  12.015  65.742  1.00  0.00    -0.383 A  
HETATM   14  C   UNL     1     -10.420  11.288  64.824  1.00  0.00    -0.384 A  
HETATM   15  C   UNL     1      -9.831  10.078  65.194  1.00  0.00    -0.388 A  
HETATM   16  C   UNL     1     -10.078   9.572  66.478  1.00  0.00    -0.326 A  
HETATM   17  C   UNL     1     -10.843  10.308  67.398  1.00  0.00    -0.336 A  
BRANCH  15  18
HETATM   18  C   UNL     1      -8.886   9.389  64.235  1.00  0.00    -0.220 C  
BRANCH  18  19
HETATM   19  C   UNL     1      -7.454   9.323  64.780  1.00  0.00    -0.104 C  
HETATM   20  S   UNL     1      -7.012  10.714  65.885  1.00  0.00    -0.083 SA 
HETATM   21  C   UNL     1      -6.371   9.656  67.108  1.00  0.00    -0.065 C  
HETATM   22  N   UNL     1      -6.718   8.377  66.845  1.00  0.00    -0.061 N  
HETATM   23  O   UNL     1      -5.681  10.028  68.040  1.00  0.00    -0.039 OA 
HETATM   24  C   UNL     1      -7.226   8.082  65.616  1.00  0.00    -0.071 C  
HETATM   25  H   UNL     1      -6.604   7.648  67.551  1.00  0.00     0.000 HD 
HETATM   26  O   UNL     1      -7.403   6.936  65.225  1.00  0.00    -0.076 OA 
ENDBRANCH  18  19
ENDBRANCH  15  18
ENDBRANCH  11  12
ENDBRANCH  10  11
ENDBRANCH   9  10
ENDBRANCH   6   9
ENDBRANCH   2   3
TORSDOF 7
ENDMDL
MODEL      191
REMARK 921   NORMALIZED FREE ENERGY PREDICTED BY IDOCK:   -4.22 KCAL/MOL
REMARK 922        TOTAL FREE ENERGY PREDICTED BY IDOCK:   -7.09 KCAL/MOL
REMARK 923 INTER-LIGAND FREE ENERGY PREDICTED BY IDOCK:   -6.12 KCAL/MOL
REMARK 924 INTRA-LIGAND FREE ENERGY PREDICTED BY IDOCK:   -0.97 KCAL/MOL
REMARK 927      BINDING AFFINITY PREDICTED BY RF-SCORE:    0.00 PKD
ROOT
HETATM    1  C   UNL     1     -10.277  12.831  66.350  1.00  0.00    -0.263 C  
HETATM    2  C   UNL     1     -11.294  13.670  67.109  1.00  0.00    -0.340 C  
ENDROOT
BRANCH   2   3
HETATM    3  C   UNL     1     -11.760  12.983  68.360  1.00  0.00    -0.386 A  
HETATM    4  C   UNL     1     -12.035  13.707  69.509  1.00  0.00    -0.341 A  
HETATM    5  N   UNL     1     -12.424  13.151  70.675  1.00  0.00    -0.321 NA 
HETATM    6  C   UNL     1     -12.566  11.802  70.732  1.00  0.00    -0.253 A  
HETATM    7  C   UNL     1     -12.304  10.995  69.632  1.00  0.00    -0.303 A  
HETATM    8  C   UNL     1     -11.898  11.596  68.437  1.00  0.00    -0.346 A  
BRANCH   6   9
HETATM    9  C   UNL     1     -12.989  11.209  72.063  1.00  0.00    -0.385 C  
BRANCH   9  10
HETATM   10  C   UNL     1     -13.306   9.726  71.878  1.00  0.00    -0.436 C  
BRANCH  10  11
HETATM   11  O   UNL     1     -12.642   8.865  72.813  1.00  0.00    -0.306 OA 
BRANCH  11  12
HETATM   12  C   UNL     1     -11.741   8.007  72.207  1.00  0.00    -0.371 A  
HETATM   13  C   UNL     1     -11.793   7.619  70.865  1.00  0.00    -0.272 A  
HETATM   14  C   UNL     1     -10.808   6.805  70.311  1.00  0.00    -0.314 A  
HETATM   15  C   UNL     1      -9.731   6.371  71.087  1.00  0.00    -0.191 A  
HETATM   16  C   UNL     1      -9.703   6.705  72.448  1.00  0.00    -0.162 A  
HETATM   17  C   UNL     1     -10.703   7.524  73.002  1.00  0.00    -0.438 A  
BRANCH  15  18
HETATM   18  C   UNL     1      -8.593   5.627  70.426  1.00  0.00    -0.132 C  
BRANCH  18  19
HETATM   19  C   UNL     1      -8.271   6.180  69.033  1.00  0.00    -0.112 C  
HETATM   20  S   UNL     1      -6.508   6.609  68.791  1.00  0.00    -0.048 SA 
HETATM   21  C   UNL     1      -6.412   5.747  67.284  1.00  0.00    -0.044 C  
HETATM   22  N   UNL     1      -7.507   4.970  67.121  1.00  0.00    -0.086 N  
HETATM   23  O   UNL     1      -5.500   5.864  66.486  1.00  0.00    -0.012 OA 
HETATM   24  C   UNL     1      -8.574   5.174  67.944  1.00  0.00    -0.103 C  
HETATM   25  H   UNL     1      -7.534   4.249  66.401  1.00  0.00     0.000 HD 
HETATM   26  O   UNL     1      -9.664   4.648  67.763  1.00  0.00    -0.158 OA 
ENDBRANCH  18  19
ENDBRANCH  15  18
ENDBRANCH  11  12
ENDBRANCH  10  11
ENDBRANCH   9  10
ENDBRANCH   6   9
ENDBRANCH   2   3
TORSDOF 7
ENDMDL
MODEL      192
REMARK 921   NORMALIZED FREE ENERGY PREDICTED BY IDOCK:   -4.22 KCAL/MOL
REMARK 922        TOTAL FREE ENERGY PREDICTED BY IDOCK:   -7.09 KCAL/MOL
REMARK 923 INTER-LIGAND FREE ENERGY PREDICTED BY IDOCK:   -6.77 KCAL/MOL
REMARK 924 INTRA-LIGAND FREE ENERGY PREDICTED BY IDOCK:   -0.32 KCAL/MOL
REMARK 927      BINDING AFFINITY PREDICTED BY RF-SCORE:    0.00 PKD
ROOT
HETATM    1  C   UNL     1     -10.218   1.863  72.556  1.00  0.00    -0.221 C  
HETATM    2  C   UNL     1      -9.820   3.144  73.275  1.00  0.00    -0.169 C  
ENDROOT
BRANCH   2   3
HETATM    3  C   UNL     1     -10.296   4.364  72.541  1.00  0.00    -0.252 A  
HETATM    4  C   UNL     1      -9.697   4.760  71.356  1.00  0.00    -0.175 A  
HETATM    5  N   UNL     1     -10.051   5.862  70.664  1.00  0.00    -0.188 NA 
HETATM    6  C   UNL     1     -11.061   6.632  71.147  1.00  0.00    -0.279 A  
HETATM    7  C   UNL     1     -11.712   6.318  72.333  1.00  0.00    -0.301 A  
HETATM    8  C   UNL     1     -11.323   5.172  73.033  1.00  0.00    -0.381 A  
BRANCH   6   9
HETATM    9  C   UNL     1     -11.423   7.873  70.353  1.00  0.00    -0.154 C  
BRANCH   9  10
HETATM   10  C   UNL     1     -10.354   8.124  69.291  1.00  0.00    -0.217 C  
BRANCH  10  11
HETATM   11  O   UNL     1      -9.693   9.390  69.414  1.00  0.00    -0.164 OA 
BRANCH  11  12
HETATM   12  C   UNL     1     -10.423  10.433  68.870  1.00  0.00    -0.212 A  
HETATM   13  C   UNL     1     -11.207  11.324  69.608  1.00  0.00    -0.321 A  
HETATM   14  C   UNL     1     -11.859  12.390  68.993  1.00  0.00    -0.349 A  
HETATM   15  C   UNL     1     -11.724  12.603  67.620  1.00  0.00    -0.420 A  
HETATM   16  C   UNL     1     -10.988  11.680  66.863  1.00  0.00    -0.342 A  
HETATM   17  C   UNL     1     -10.338  10.603  67.489  1.00  0.00    -0.254 A  
BRANCH  15  18
HETATM   18  C   UNL     1     -12.304  13.856  67.003  1.00  0.00    -0.287 C  
BRANCH  18  19
HETATM   19  C   UNL     1     -11.269  14.983  66.901  1.00  0.00    -0.323 C  
HETATM   20  S   UNL     1      -9.826  14.774  68.007  1.00  0.00    -0.221 SA 
HETATM   21  C   UNL     1      -8.688  15.080  66.728  1.00  0.00    -0.260 C  
HETATM   22  N   UNL     1      -9.315  15.054  65.530  1.00  0.00    -0.403 N  
HETATM   23  O   UNL     1      -7.507  15.318  66.906  1.00  0.00    -0.153 OA 
HETATM   24  C   UNL     1     -10.677  15.080  65.511  1.00  0.00    -0.359 C  
HETATM   25  H   UNL     1      -8.782  15.014  64.661  1.00  0.00     0.000 HD 
HETATM   26  O   UNL     1     -11.327  15.235  64.486  1.00  0.00    -0.366 OA 
ENDBRANCH  18  19
ENDBRANCH  15  18
ENDBRANCH  11  12
ENDBRANCH  10  11
ENDBRANCH   9  10
ENDBRANCH   6   9
ENDBRANCH   2   3
TORSDOF 7
ENDMDL
MODEL      193
REMARK 921   NORMALIZED FREE ENERGY PREDICTED BY IDOCK:   -4.21 KCAL/MOL
REMARK 922        TOTAL FREE ENERGY PREDICTED BY IDOCK:   -7.08 KCAL/MOL
REMARK 923 INTER-LIGAND FREE ENERGY PREDICTED BY IDOCK:   -6.47 KCAL/MOL
REMARK 924 INTRA-LIGAND FREE ENERGY PREDICTED BY IDOCK:   -0.61 KCAL/MOL
REMARK 927      BINDING AFFINITY PREDICTED BY RF-SCORE:    0.00 PKD
ROOT
HETATM    1  C   UNL     1     -11.812  16.209  72.197  1.00  0.00    -0.626 C  
HETATM    2  C   UNL     1     -11.960  15.427  70.900  1.00  0.00    -0.406 C  
ENDROOT
BRANCH   2   3
HETATM    3  C   UNL     1     -12.390  14.010  71.151  1.00  0.00    -0.443 A  
HETATM    4  C   UNL     1     -13.230  13.699  72.209  1.00  0.00    -0.469 A  
HETATM    5  N   UNL     1     -13.627  12.446  72.511  1.00  0.00    -0.260 NA 
HETATM    6  C   UNL     1     -13.191  11.423  71.732  1.00  0.00    -0.367 A  
HETATM    7  C   UNL     1     -12.339  11.640  70.656  1.00  0.00    -0.437 A  
HETATM    8  C   UNL     1     -11.937  12.947  70.367  1.00  0.00    -0.329 A  
BRANCH   6   9
HETATM    9  C   UNL     1     -13.644  10.026  72.110  1.00  0.00    -0.351 C  
BRANCH   9  10
HETATM   10  C   UNL     1     -12.899   9.003  71.255  1.00  0.00    -0.245 C  
BRANCH  10  11
HETATM   11  O   UNL     1     -12.250   7.971  72.009  1.00  0.00    -0.303 OA 
BRANCH  11  12
HETATM   12  C   UNL     1     -11.012   7.628  71.493  1.00  0.00    -0.233 A  
HETATM   13  C   UNL     1     -10.217   6.580  71.967  1.00  0.00    -0.212 A  
HETATM   14  C   UNL     1      -9.012   6.253  71.349  1.00  0.00    -0.139 A  
HETATM   15  C   UNL     1      -8.581   6.958  70.224  1.00  0.00    -0.140 A  
HETATM   16  C   UNL     1      -9.342   8.048  69.778  1.00  0.00    -0.159 A  
HETATM   17  C   UNL     1     -10.555   8.376  70.409  1.00  0.00    -0.236 A  
BRANCH  15  18
HETATM   18  C   UNL     1      -7.358   6.483  69.474  1.00  0.00    -0.091 C  
BRANCH  18  19
HETATM   19  C   UNL     1      -7.719   5.794  68.152  1.00  0.00    -0.096 C  
HETATM   20  S   UNL     1      -9.200   4.723  68.250  1.00  0.00    -0.131 SA 
HETATM   21  C   UNL     1      -9.912   5.425  66.827  1.00  0.00    -0.192 C  
HETATM   22  N   UNL     1      -9.247   6.550  66.480  1.00  0.00    -0.154 N  
HETATM   23  O   UNL     1     -10.853   4.942  66.224  1.00  0.00    -0.259 OA 
HETATM   24  C   UNL     1      -8.041   6.796  67.065  1.00  0.00    -0.109 C  
HETATM   25  H   UNL     1      -9.638   7.199  65.798  1.00  0.00     0.000 HD 
HETATM   26  O   UNL     1      -7.289   7.686  66.692  1.00  0.00    -0.084 OA 
ENDBRANCH  18  19
ENDBRANCH  15  18
ENDBRANCH  11  12
ENDBRANCH  10  11
ENDBRANCH   9  10
ENDBRANCH   6   9
ENDBRANCH   2   3
TORSDOF 7
ENDMDL
MODEL      194
REMARK 921   NORMALIZED FREE ENERGY PREDICTED BY IDOCK:   -4.21 KCAL/MOL
REMARK 922        TOTAL FREE ENERGY PREDICTED BY IDOCK:   -7.07 KCAL/MOL
REMARK 923 INTER-LIGAND FREE ENERGY PREDICTED BY IDOCK:   -6.33 KCAL/MOL
REMARK 924 INTRA-LIGAND FREE ENERGY PREDICTED BY IDOCK:   -0.75 KCAL/MOL
REMARK 927      BINDING AFFINITY PREDICTED BY RF-SCORE:    0.00 PKD
ROOT
HETATM    1  C   UNL     1      -7.315   8.810  67.679  1.00  0.00    -0.085 C  
HETATM    2  C   UNL     1      -7.410   9.926  66.650  1.00  0.00    -0.099 C  
ENDROOT
BRANCH   2   3
HETATM    3  C   UNL     1      -7.046  11.259  67.239  1.00  0.00    -0.114 A  
HETATM    4  C   UNL     1      -7.935  11.944  68.051  1.00  0.00    -0.147 A  
HETATM    5  N   UNL     1      -7.687  13.157  68.585  1.00  0.00    -0.110 NA 
HETATM    6  C   UNL     1      -6.491  13.746  68.323  1.00  0.00    -0.110 A  
HETATM    7  C   UNL     1      -5.542  13.138  67.511  1.00  0.00    -0.036 A  
HETATM    8  C   UNL     1      -5.827  11.882  66.966  1.00  0.00    -0.153 A  
BRANCH   6   9
HETATM    9  C   UNL     1      -6.251  15.118  68.925  1.00  0.00    -0.093 C  
BRANCH   9  10
HETATM   10  C   UNL     1      -7.592  15.759  69.276  1.00  0.00    -0.224 C  
BRANCH  10  11
HETATM   11  O   UNL     1      -8.179  16.512  68.206  1.00  0.00    -0.172 OA 
BRANCH  11  12
HETATM   12  C   UNL     1      -9.244  15.858  67.611  1.00  0.00    -0.208 A  
HETATM   13  C   UNL     1     -10.448  15.554  68.252  1.00  0.00    -0.242 A  
HETATM   14  C   UNL     1     -11.500  14.954  67.563  1.00  0.00    -0.361 A  
HETATM   15  C   UNL     1     -11.378  14.661  66.204  1.00  0.00    -0.350 A  
HETATM   16  C   UNL     1     -10.153  14.907  65.567  1.00  0.00    -0.400 A  
HETATM   17  C   UNL     1      -9.093  15.508  66.270  1.00  0.00    -0.369 A  
BRANCH  15  18
HETATM   18  C   UNL     1     -12.584  14.163  65.441  1.00  0.00    -0.485 C  
BRANCH  18  19
HETATM   19  C   UNL     1     -12.435  12.698  65.012  1.00  0.00    -0.487 C  
HETATM   20  S   UNL     1     -11.427  12.462  63.503  1.00  0.00    -0.476 SA 
HETATM   21  C   UNL     1     -10.460  11.216  64.236  1.00  0.00    -0.362 C  
HETATM   22  N   UNL     1     -10.676  11.183  65.570  1.00  0.00    -0.224 N  
HETATM   23  O   UNL     1      -9.725  10.468  63.617  1.00  0.00    -0.291 OA 
HETATM   24  C   UNL     1     -11.742  11.869  66.071  1.00  0.00    -0.135 C  
HETATM   25  H   UNL     1     -10.057  10.658  66.188  1.00  0.00     0.000 HD 
HETATM   26  O   UNL     1     -12.121  11.758  67.230  1.00  0.00    -0.595 OA 
ENDBRANCH  18  19
ENDBRANCH  15  18
ENDBRANCH  11  12
ENDBRANCH  10  11
ENDBRANCH   9  10
ENDBRANCH   6   9
ENDBRANCH   2   3
TORSDOF 7
ENDMDL
MODEL      195
REMARK 921   NORMALIZED FREE ENERGY PREDICTED BY IDOCK:   -4.18 KCAL/MOL
REMARK 922        TOTAL FREE ENERGY PREDICTED BY IDOCK:   -7.04 KCAL/MOL
REMARK 923 INTER-LIGAND FREE ENERGY PREDICTED BY IDOCK:   -6.76 KCAL/MOL
REMARK 924 INTRA-LIGAND FREE ENERGY PREDICTED BY IDOCK:   -0.28 KCAL/MOL
REMARK 927      BINDING AFFINITY PREDICTED BY RF-SCORE:    0.00 PKD
ROOT
HETATM    1  C   UNL     1      -8.055   7.107  64.905  1.00  0.00    -0.107 C  
HETATM    2  C   UNL     1      -8.356   7.772  66.240  1.00  0.00    -0.131 C  
ENDROOT
BRANCH   2   3
HETATM    3  C   UNL     1      -9.246   8.970  66.075  1.00  0.00    -0.284 A  
HETATM    4  C   UNL     1      -9.324   9.637  64.863  1.00  0.00    -0.242 A  
HETATM    5  N   UNL     1     -10.076  10.738  64.656  1.00  0.00    -0.322 NA 
HETATM    6  C   UNL     1     -10.810  11.223  65.690  1.00  0.00    -0.177 A  
HETATM    7  C   UNL     1     -10.786  10.626  66.944  1.00  0.00    -0.297 A  
HETATM    8  C   UNL     1      -9.995   9.489  67.134  1.00  0.00    -0.261 A  
BRANCH   6   9
HETATM    9  C   UNL     1     -11.630  12.472  65.427  1.00  0.00    -0.416 C  
BRANCH   9  10
HETATM   10  C   UNL     1     -10.747  13.706  65.604  1.00  0.00    -0.283 C  
BRANCH  10  11
HETATM   11  O   UNL     1      -9.833  13.618  66.704  1.00  0.00    -0.267 OA 
BRANCH  11  12
HETATM   12  C   UNL     1      -9.697  14.814  67.387  1.00  0.00    -0.214 A  
HETATM   13  C   UNL     1      -8.764  15.049  68.401  1.00  0.00    -0.175 A  
HETATM   14  C   UNL     1      -8.645  16.303  68.994  1.00  0.00    -0.247 A  
HETATM   15  C   UNL     1      -9.447  17.364  68.570  1.00  0.00    -0.297 A  
HETATM   16  C   UNL     1     -10.427  17.122  67.596  1.00  0.00    -0.355 A  
HETATM   17  C   UNL     1     -10.546  15.852  67.006  1.00  0.00    -0.306 A  
BRANCH  15  18
HETATM   18  C   UNL     1      -9.188  18.752  69.111  1.00  0.00    -0.081 C  
BRANCH  18  19
HETATM   19  C   UNL     1      -8.280  19.573  68.188  1.00  0.00    -0.317 C  
HETATM   20  S   UNL     1      -6.929  18.607  67.419  1.00  0.00    -0.205 SA 
HETATM   21  C   UNL     1      -7.276  19.218  65.829  1.00  0.00    -0.264 C  
HETATM   22  N   UNL     1      -8.468  19.856  65.825  1.00  0.00    -0.355 N  
HETATM   23  O   UNL     1      -6.526  19.108  64.876  1.00  0.00    -0.428 OA 
HETATM   24  C   UNL     1      -9.044  20.160  67.022  1.00  0.00    -0.367 C  
HETATM   25  H   UNL     1      -8.926  20.103  64.947  1.00  0.00     0.000 HD 
HETATM   26  O   UNL     1     -10.025  20.884  67.124  1.00  0.00    -0.361 OA 
ENDBRANCH  18  19
ENDBRANCH  15  18
ENDBRANCH  11  12
ENDBRANCH  10  11
ENDBRANCH   9  10
ENDBRANCH   6   9
ENDBRANCH   2   3
TORSDOF 7
ENDMDL
MODEL      196
REMARK 921   NORMALIZED FREE ENERGY PREDICTED BY IDOCK:   -4.18 KCAL/MOL
REMARK 922        TOTAL FREE ENERGY PREDICTED BY IDOCK:   -7.03 KCAL/MOL
REMARK 923 INTER-LIGAND FREE ENERGY PREDICTED BY IDOCK:   -6.56 KCAL/MOL
REMARK 924 INTRA-LIGAND FREE ENERGY PREDICTED BY IDOCK:   -0.47 KCAL/MOL
REMARK 927      BINDING AFFINITY PREDICTED BY RF-SCORE:    0.00 PKD
ROOT
HETATM    1  C   UNL     1      -8.463   3.372  68.636  1.00  0.00    -0.103 C  
HETATM    2  C   UNL     1      -9.288   3.011  69.863  1.00  0.00    -0.221 C  
ENDROOT
BRANCH   2   3
HETATM    3  C   UNL     1      -9.826   4.232  70.551  1.00  0.00    -0.269 A  
HETATM    4  C   UNL     1      -9.695   4.392  71.921  1.00  0.00    -0.170 A  
HETATM    5  N   UNL     1     -10.183   5.446  72.607  1.00  0.00    -0.179 NA 
HETATM    6  C   UNL     1     -10.836   6.418  71.919  1.00  0.00    -0.240 A  
HETATM    7  C   UNL     1     -11.024   6.337  70.545  1.00  0.00    -0.374 A  
HETATM    8  C   UNL     1     -10.512   5.232  69.859  1.00  0.00    -0.351 A  
BRANCH   6   9
HETATM    9  C   UNL     1     -11.387   7.581  72.724  1.00  0.00    -0.388 C  
BRANCH   9  10
HETATM   10  C   UNL     1     -12.443   8.312  71.898  1.00  0.00    -0.337 C  
BRANCH  10  11
HETATM   11  O   UNL     1     -12.291   9.738  71.884  1.00  0.00    -0.377 OA 
BRANCH  11  12
HETATM   12  C   UNL     1     -11.627  10.196  70.760  1.00  0.00    -0.357 A  
HETATM   13  C   UNL     1     -10.327   9.828  70.400  1.00  0.00    -0.354 A  
HETATM   14  C   UNL     1      -9.752  10.280  69.215  1.00  0.00    -0.240 A  
HETATM   15  C   UNL     1     -10.474  11.100  68.347  1.00  0.00    -0.211 A  
HETATM   16  C   UNL     1     -11.756  11.523  68.728  1.00  0.00    -0.397 A  
HETATM   17  C   UNL     1     -12.329  11.067  69.928  1.00  0.00    -0.356 A  
BRANCH  15  18
HETATM   18  C   UNL     1      -9.893  11.443  66.994  1.00  0.00    -0.214 C  
BRANCH  18  19
HETATM   19  C   UNL     1      -9.178  12.800  66.998  1.00  0.00    -0.221 C  
HETATM   20  S   UNL     1     -10.207  14.184  67.611  1.00  0.00    -0.242 SA 
HETATM   21  C   UNL     1      -8.967  14.746  68.693  1.00  0.00    -0.185 C  
HETATM   22  N   UNL     1      -7.988  13.820  68.800  1.00  0.00    -0.289 N  
HETATM   23  O   UNL     1      -8.978  15.835  69.239  1.00  0.00    -0.243 OA 
HETATM   24  C   UNL     1      -7.964  12.795  67.903  1.00  0.00    -0.158 C  
HETATM   25  H   UNL     1      -7.283  13.886  69.535  1.00  0.00     0.000 HD 
HETATM   26  O   UNL     1      -7.027  12.013  67.808  1.00  0.00    -0.086 OA 
ENDBRANCH  18  19
ENDBRANCH  15  18
ENDBRANCH  11  12
ENDBRANCH  10  11
ENDBRANCH   9  10
ENDBRANCH   6   9
ENDBRANCH   2   3
TORSDOF 7
ENDMDL
MODEL      197
REMARK 921   NORMALIZED FREE ENERGY PREDICTED BY IDOCK:   -4.17 KCAL/MOL
REMARK 922        TOTAL FREE ENERGY PREDICTED BY IDOCK:   -7.02 KCAL/MOL
REMARK 923 INTER-LIGAND FREE ENERGY PREDICTED BY IDOCK:   -6.69 KCAL/MOL
REMARK 924 INTRA-LIGAND FREE ENERGY PREDICTED BY IDOCK:   -0.33 KCAL/MOL
REMARK 927      BINDING AFFINITY PREDICTED BY RF-SCORE:    0.00 PKD
ROOT
HETATM    1  C   UNL     1     -12.572  14.430  65.467  1.00  0.00    -0.345 C  
HETATM    2  C   UNL     1     -11.419  14.314  66.453  1.00  0.00    -0.361 C  
ENDROOT
BRANCH   2   3
HETATM    3  C   UNL     1     -11.173  12.889  66.857  1.00  0.00    -0.331 A  
HETATM    4  C   UNL     1     -10.399  12.051  66.070  1.00  0.00    -0.238 A  
HETATM    5  N   UNL     1     -10.166  10.753  66.356  1.00  0.00    -0.233 NA 
HETATM    6  C   UNL     1     -10.712  10.232  67.485  1.00  0.00    -0.294 A  
HETATM    7  C   UNL     1     -11.509  10.996  68.329  1.00  0.00    -0.374 A  
HETATM    8  C   UNL     1     -11.738  12.336  68.008  1.00  0.00    -0.417 A  
BRANCH   6   9
HETATM    9  C   UNL     1     -10.443   8.765  67.768  1.00  0.00    -0.292 C  
BRANCH   9  10
HETATM   10  C   UNL     1      -9.627   8.170  66.622  1.00  0.00    -0.229 C  
BRANCH  10  11
HETATM   11  O   UNL     1      -9.459   6.749  66.700  1.00  0.00    -0.159 OA 
BRANCH  11  12
HETATM   12  C   UNL     1      -9.236   6.304  67.991  1.00  0.00    -0.116 A  
HETATM   13  C   UNL     1      -8.092   6.588  68.743  1.00  0.00    -0.118 A  
HETATM   14  C   UNL     1      -7.973   6.160  70.063  1.00  0.00    -0.111 A  
HETATM   15  C   UNL     1      -9.009   5.450  70.672  1.00  0.00    -0.163 A  
HETATM   16  C   UNL     1     -10.134   5.110  69.908  1.00  0.00    -0.342 A  
HETATM   17  C   UNL     1     -10.246   5.541  68.574  1.00  0.00    -0.250 A  
BRANCH  15  18
HETATM   18  C   UNL     1      -8.927   5.140  72.149  1.00  0.00    -0.139 C  
BRANCH  18  19
HETATM   19  C   UNL     1      -9.762   6.111  72.993  1.00  0.00    -0.158 C  
HETATM   20  S   UNL     1      -9.806   7.819  72.338  1.00  0.00    -0.228 SA 
HETATM   21  C   UNL     1     -11.538   7.920  72.469  1.00  0.00    -0.386 C  
HETATM   22  N   UNL     1     -12.059   6.695  72.704  1.00  0.00    -0.493 N  
HETATM   23  O   UNL     1     -12.170   8.958  72.393  1.00  0.00    -0.358 OA 
HETATM   24  C   UNL     1     -11.214   5.689  73.065  1.00  0.00    -0.270 C  
HETATM   25  H   UNL     1     -13.061   6.527  72.613  1.00  0.00     0.000 HD 
HETATM   26  O   UNL     1     -11.605   4.601  73.466  1.00  0.00    -0.285 OA 
ENDBRANCH  18  19
ENDBRANCH  15  18
ENDBRANCH  11  12
ENDBRANCH  10  11
ENDBRANCH   9  10
ENDBRANCH   6   9
ENDBRANCH   2   3
TORSDOF 7
ENDMDL
MODEL      198
REMARK 921   NORMALIZED FREE ENERGY PREDICTED BY IDOCK:   -4.17 KCAL/MOL
REMARK 922        TOTAL FREE ENERGY PREDICTED BY IDOCK:   -7.02 KCAL/MOL
REMARK 923 INTER-LIGAND FREE ENERGY PREDICTED BY IDOCK:   -6.16 KCAL/MOL
REMARK 924 INTRA-LIGAND FREE ENERGY PREDICTED BY IDOCK:   -0.86 KCAL/MOL
REMARK 927      BINDING AFFINITY PREDICTED BY RF-SCORE:    0.00 PKD
ROOT
HETATM    1  C   UNL     1     -10.137  14.472  68.876  1.00  0.00    -0.224 C  
HETATM    2  C   UNL     1     -11.471  14.585  69.599  1.00  0.00    -0.332 C  
ENDROOT
BRANCH   2   3
HETATM    3  C   UNL     1     -11.974  13.244  70.050  1.00  0.00    -0.399 A  
HETATM    4  C   UNL     1     -11.924  12.146  69.207  1.00  0.00    -0.262 A  
HETATM    5  N   UNL     1     -12.389  10.923  69.535  1.00  0.00    -0.306 NA 
HETATM    6  C   UNL     1     -12.932  10.747  70.768  1.00  0.00    -0.262 A  
HETATM    7  C   UNL     1     -13.032  11.794  71.675  1.00  0.00    -0.467 A  
HETATM    8  C   UNL     1     -12.548  13.052  71.309  1.00  0.00    -0.373 A  
BRANCH   6   9
HETATM    9  C   UNL     1     -13.459   9.363  71.098  1.00  0.00    -0.253 C  
BRANCH   9  10
HETATM   10  C   UNL     1     -12.581   8.730  72.176  1.00  0.00    -0.399 C  
BRANCH  10  11
HETATM   11  O   UNL     1     -11.174   8.875  71.943  1.00  0.00    -0.338 OA 
BRANCH  11  12
HETATM   12  C   UNL     1     -10.646   7.845  71.183  1.00  0.00    -0.213 A  
HETATM   13  C   UNL     1     -11.233   6.585  71.035  1.00  0.00    -0.362 A  
HETATM   14  C   UNL     1     -10.675   5.624  70.196  1.00  0.00    -0.376 A  
HETATM   15  C   UNL     1      -9.520   5.908  69.466  1.00  0.00    -0.166 A  
HETATM   16  C   UNL     1      -8.891   7.148  69.654  1.00  0.00    -0.141 A  
HETATM   17  C   UNL     1      -9.457   8.112  70.506  1.00  0.00    -0.168 A  
BRANCH  15  18
HETATM   18  C   UNL     1      -9.026   4.913  68.441  1.00  0.00    -0.129 C  
BRANCH  18  19
HETATM   19  C   UNL     1      -8.836   5.549  67.059  1.00  0.00    -0.110 C  
HETATM   20  S   UNL     1      -7.330   4.990  66.182  1.00  0.00    -0.079 SA 
HETATM   21  C   UNL     1      -8.199   4.660  64.713  1.00  0.00    -0.111 C  
HETATM   22  N   UNL     1      -9.531   4.688  64.944  1.00  0.00    -0.268 N  
HETATM   23  O   UNL     1      -7.669   4.468  63.633  1.00  0.00    -0.065 OA 
HETATM   24  C   UNL     1      -9.974   5.211  66.121  1.00  0.00    -0.194 C  
HETATM   25  H   UNL     1     -10.189   4.325  64.254  1.00  0.00     0.000 HD 
HETATM   26  O   UNL     1     -11.155   5.440  66.346  1.00  0.00    -0.162 OA 
ENDBRANCH  18  19
ENDBRANCH  15  18
ENDBRANCH  11  12
ENDBRANCH  10  11
ENDBRANCH   9  10
ENDBRANCH   6   9
ENDBRANCH   2   3
TORSDOF 7
ENDMDL
MODEL      199
REMARK 921   NORMALIZED FREE ENERGY PREDICTED BY IDOCK:   -4.17 KCAL/MOL
REMARK 922        TOTAL FREE ENERGY PREDICTED BY IDOCK:   -7.02 KCAL/MOL
REMARK 923 INTER-LIGAND FREE ENERGY PREDICTED BY IDOCK:   -6.39 KCAL/MOL
REMARK 924 INTRA-LIGAND FREE ENERGY PREDICTED BY IDOCK:   -0.63 KCAL/MOL
REMARK 927      BINDING AFFINITY PREDICTED BY RF-SCORE:    0.00 PKD
ROOT
HETATM    1  C   UNL     1     -10.210  18.951  67.852  1.00  0.00    -0.459 C  
HETATM    2  C   UNL     1      -9.993  18.395  66.452  1.00  0.00    -0.399 C  
ENDROOT
BRANCH   2   3
HETATM    3  C   UNL     1     -10.514  16.993  66.324  1.00  0.00    -0.258 A  
HETATM    4  C   UNL     1     -10.682  16.192  67.442  1.00  0.00    -0.291 A  
HETATM    5  N   UNL     1     -11.113  14.915  67.396  1.00  0.00    -0.315 NA 
HETATM    6  C   UNL     1     -11.410  14.376  66.185  1.00  0.00    -0.350 A  
HETATM    7  C   UNL     1     -11.262  15.102  65.009  1.00  0.00    -0.414 A  
HETATM    8  C   UNL     1     -10.810  16.422  65.084  1.00  0.00    -0.289 A  
BRANCH   6   9
HETATM    9  C   UNL     1     -11.876  12.933  66.167  1.00  0.00    -0.487 C  
BRANCH   9  10
HETATM   10  C   UNL     1     -11.312  12.204  67.385  1.00  0.00    -0.326 C  
BRANCH  10  11
HETATM   11  O   UNL     1     -11.833  10.881  67.569  1.00  0.00    -0.524 OA 
BRANCH  11  12
HETATM   12  C   UNL     1     -10.993  10.072  68.315  1.00  0.00    -0.227 A  
HETATM   13  C   UNL     1     -11.265   9.626  69.611  1.00  0.00    -0.176 A  
HETATM   14  C   UNL     1     -10.399   8.756  70.270  1.00  0.00    -0.227 A  
HETATM   15  C   UNL     1      -9.244   8.294  69.637  1.00  0.00    -0.158 A  
HETATM   16  C   UNL     1      -8.934   8.782  68.360  1.00  0.00    -0.141 A  
HETATM   17  C   UNL     1      -9.809   9.664  67.702  1.00  0.00    -0.202 A  
BRANCH  15  18
HETATM   18  C   UNL     1      -8.408   7.227  70.306  1.00  0.00    -0.135 C  
BRANCH  18  19
HETATM   19  C   UNL     1      -8.867   6.946  71.742  1.00  0.00    -0.131 C  
HETATM   20  S   UNL     1      -8.952   5.167  72.164  1.00  0.00    -0.129 SA 
HETATM   21  C   UNL     1      -8.063   5.383  73.643  1.00  0.00    -0.113 C  
HETATM   22  N   UNL     1      -7.505   6.614  73.674  1.00  0.00    -0.084 N  
HETATM   23  O   UNL     1      -7.993   4.548  74.526  1.00  0.00    -0.087 OA 
HETATM   24  C   UNL     1      -7.920   7.538  72.763  1.00  0.00    -0.104 C  
HETATM   25  H   UNL     1      -6.790   6.846  74.364  1.00  0.00     0.000 HD 
HETATM   26  O   UNL     1      -7.607   8.720  72.822  1.00  0.00    -0.361 OA 
ENDBRANCH  18  19
ENDBRANCH  15  18
ENDBRANCH  11  12
ENDBRANCH  10  11
ENDBRANCH   9  10
ENDBRANCH   6   9
ENDBRANCH   2   3
TORSDOF 7
ENDMDL
MODEL      200
REMARK 921   NORMALIZED FREE ENERGY PREDICTED BY IDOCK:   -4.17 KCAL/MOL
REMARK 922        TOTAL FREE ENERGY PREDICTED BY IDOCK:   -7.02 KCAL/MOL
REMARK 923 INTER-LIGAND FREE ENERGY PREDICTED BY IDOCK:   -6.45 KCAL/MOL
REMARK 924 INTRA-LIGAND FREE ENERGY PREDICTED BY IDOCK:   -0.57 KCAL/MOL
REMARK 927      BINDING AFFINITY PREDICTED BY RF-SCORE:    0.00 PKD
ROOT
HETATM    1  C   UNL     1      -5.993  18.400  69.695  1.00  0.00    -0.261 C  
HETATM    2  C   UNL     1      -6.122  16.905  69.440  1.00  0.00    -0.218 C  
ENDROOT
BRANCH   2   3
HETATM    3  C   UNL     1      -7.510  16.533  69.004  1.00  0.00    -0.229 A  
HETATM    4  C   UNL     1      -7.967  15.231  69.124  1.00  0.00    -0.214 A  
HETATM    5  N   UNL     1      -9.188  14.821  68.722  1.00  0.00    -0.197 NA 
HETATM    6  C   UNL     1     -10.029  15.736  68.175  1.00  0.00    -0.214 A  
HETATM    7  C   UNL     1      -9.653  17.063  68.007  1.00  0.00    -0.260 A  
HETATM    8  C   UNL     1      -8.380  17.460  68.427  1.00  0.00    -0.263 A  
BRANCH   6   9
HETATM    9  C   UNL     1     -11.388  15.238  67.719  1.00  0.00    -0.331 C  
BRANCH   9  10
HETATM   10  C   UNL     1     -11.234  14.478  66.403  1.00  0.00    -0.341 C  
BRANCH  10  11
HETATM   11  O   UNL     1     -12.066  13.315  66.298  1.00  0.00    -0.407 OA 
BRANCH  11  12
HETATM   12  C   UNL     1     -11.562  12.230  66.993  1.00  0.00    -0.349 A  
HETATM   13  C   UNL     1     -11.878  11.919  68.319  1.00  0.00    -0.343 A  
HETATM   14  C   UNL     1     -11.382  10.768  68.927  1.00  0.00    -0.349 A  
HETATM   15  C   UNL     1     -10.568   9.886  68.213  1.00  0.00    -0.269 A  
HETATM   16  C   UNL     1     -10.198  10.220  66.903  1.00  0.00    -0.286 A  
HETATM   17  C   UNL     1     -10.698  11.386  66.297  1.00  0.00    -0.322 A  
BRANCH  15  18
HETATM   18  C   UNL     1     -10.178   8.567  68.839  1.00  0.00    -0.221 C  
BRANCH  18  19
HETATM   19  C   UNL     1     -10.739   7.369  68.064  1.00  0.00    -0.127 C  
HETATM   20  S   UNL     1      -9.577   6.662  66.839  1.00  0.00    -0.163 SA 
HETATM   21  C   UNL     1      -9.831   5.036  67.402  1.00  0.00    -0.176 C  
HETATM   22  N   UNL     1     -10.495   5.050  68.579  1.00  0.00    -0.027 N  
HETATM   23  O   UNL     1      -9.485   4.040  66.793  1.00  0.00    -0.174 OA 
HETATM   24  C   UNL     1     -11.079   6.214  68.981  1.00  0.00    -0.367 C  
HETATM   25  H   UNL     1     -10.558   4.209  69.154  1.00  0.00     0.000 HD 
HETATM   26  O   UNL     1     -11.844   6.281  69.934  1.00  0.00    -0.340 OA 
ENDBRANCH  18  19
ENDBRANCH  15  18
ENDBRANCH  11  12
ENDBRANCH  10  11
ENDBRANCH   9  10
ENDBRANCH   6   9
ENDBRANCH   2   3
TORSDOF 7
ENDMDL
MODEL      201
REMARK 921   NORMALIZED FREE ENERGY PREDICTED BY IDOCK:   -4.16 KCAL/MOL
REMARK 922        TOTAL FREE ENERGY PREDICTED BY IDOCK:   -7.00 KCAL/MOL
REMARK 923 INTER-LIGAND FREE ENERGY PREDICTED BY IDOCK:   -6.12 KCAL/MOL
REMARK 924 INTRA-LIGAND FREE ENERGY PREDICTED BY IDOCK:   -0.88 KCAL/MOL
REMARK 927      BINDING AFFINITY PREDICTED BY RF-SCORE:    0.00 PKD
ROOT
HETATM    1  C   UNL     1      -5.158   8.747  63.640  1.00  0.00    -0.060 C  
HETATM    2  C   UNL     1      -6.207   9.842  63.510  1.00  0.00    -0.123 C  
ENDROOT
BRANCH   2   3
HETATM    3  C   UNL     1      -7.288   9.702  64.544  1.00  0.00    -0.125 A  
HETATM    4  C   UNL     1      -8.615   9.936  64.220  1.00  0.00    -0.188 A  
HETATM    5  N   UNL     1      -9.630   9.862  65.105  1.00  0.00    -0.284 NA 
HETATM    6  C   UNL     1      -9.344   9.529  66.390  1.00  0.00    -0.179 A  
HETATM    7  C   UNL     1      -8.042   9.285  66.807  1.00  0.00    -0.112 A  
HETATM    8  C   UNL     1      -7.007   9.374  65.871  1.00  0.00    -0.090 A  
BRANCH   6   9
HETATM    9  C   UNL     1     -10.508   9.470  67.363  1.00  0.00    -0.336 C  
BRANCH   9  10
HETATM   10  C   UNL     1     -11.278  10.787  67.311  1.00  0.00    -0.197 C  
BRANCH  10  11
HETATM   11  O   UNL     1     -11.428  11.428  68.585  1.00  0.00    -0.242 OA 
BRANCH  11  12
HETATM   12  C   UNL     1     -10.734  12.622  68.670  1.00  0.00    -0.242 A  
HETATM   13  C   UNL     1      -9.468  12.847  68.121  1.00  0.00    -0.218 A  
HETATM   14  C   UNL     1      -8.865  14.100  68.191  1.00  0.00    -0.183 A  
HETATM   15  C   UNL     1      -9.525  15.170  68.798  1.00  0.00    -0.209 A  
HETATM   16  C   UNL     1     -10.768  14.939  69.403  1.00  0.00    -0.264 A  
HETATM   17  C   UNL     1     -11.370  13.671  69.334  1.00  0.00    -0.303 A  
BRANCH  15  18
HETATM   18  C   UNL     1      -8.923  16.554  68.718  1.00  0.00    -0.250 C  
BRANCH  18  19
HETATM   19  C   UNL     1      -9.844  17.545  67.994  1.00  0.00    -0.299 C  
HETATM   20  S   UNL     1      -9.911  19.202  68.769  1.00  0.00    -0.433 SA 
HETATM   21  C   UNL     1      -9.642  20.018  67.257  1.00  0.00    -0.397 C  
HETATM   22  N   UNL     1      -9.249  19.133  66.313  1.00  0.00    -0.338 N  
HETATM   23  O   UNL     1      -9.820  21.210  67.082  1.00  0.00    -0.248 OA 
HETATM   24  C   UNL     1      -9.389  17.803  66.574  1.00  0.00    -0.279 C  
HETATM   25  H   UNL     1      -8.858  19.453  65.427  1.00  0.00     0.000 HD 
HETATM   26  O   UNL     1      -9.229  16.937  65.725  1.00  0.00    -0.527 OA 
ENDBRANCH  18  19
ENDBRANCH  15  18
ENDBRANCH  11  12
ENDBRANCH  10  11
ENDBRANCH   9  10
ENDBRANCH   6   9
ENDBRANCH   2   3
TORSDOF 7
ENDMDL
MODEL      202
REMARK 921   NORMALIZED FREE ENERGY PREDICTED BY IDOCK:   -4.14 KCAL/MOL
REMARK 922        TOTAL FREE ENERGY PREDICTED BY IDOCK:   -6.98 KCAL/MOL
REMARK 923 INTER-LIGAND FREE ENERGY PREDICTED BY IDOCK:   -6.12 KCAL/MOL
REMARK 924 INTRA-LIGAND FREE ENERGY PREDICTED BY IDOCK:   -0.86 KCAL/MOL
REMARK 927      BINDING AFFINITY PREDICTED BY RF-SCORE:    0.00 PKD
ROOT
HETATM    1  C   UNL     1     -12.373  13.718  66.235  1.00  0.00    -0.479 C  
HETATM    2  C   UNL     1     -11.760  12.368  65.892  1.00  0.00    -0.476 C  
ENDROOT
BRANCH   2   3
HETATM    3  C   UNL     1     -10.345  12.258  66.383  1.00  0.00    -0.250 A  
HETATM    4  C   UNL     1      -9.465  11.349  65.818  1.00  0.00    -0.233 A  
HETATM    5  N   UNL     1      -8.193  11.175  66.232  1.00  0.00    -0.169 NA 
HETATM    6  C   UNL     1      -7.736  11.940  67.257  1.00  0.00    -0.164 A  
HETATM    7  C   UNL     1      -8.550  12.871  67.890  1.00  0.00    -0.185 A  
HETATM    8  C   UNL     1      -9.866  13.028  67.445  1.00  0.00    -0.215 A  
BRANCH   6   9
HETATM    9  C   UNL     1      -6.306  11.707  67.708  1.00  0.00    -0.067 C  
BRANCH   9  10
HETATM   10  C   UNL     1      -6.190  10.313  68.323  1.00  0.00    -0.048 C  
BRANCH  10  11
HETATM   11  O   UNL     1      -6.939  10.143  69.533  1.00  0.00    -0.063 OA 
BRANCH  11  12
HETATM   12  C   UNL     1      -7.966   9.225  69.404  1.00  0.00    -0.099 A  
HETATM   13  C   UNL     1      -7.807   7.914  68.946  1.00  0.00    -0.117 A  
HETATM   14  C   UNL     1      -8.881   7.028  68.910  1.00  0.00    -0.130 A  
HETATM   15  C   UNL     1     -10.143   7.429  69.352  1.00  0.00    -0.185 A  
HETATM   16  C   UNL     1     -10.325   8.759  69.757  1.00  0.00    -0.214 A  
HETATM   17  C   UNL     1      -9.238   9.650  69.786  1.00  0.00    -0.237 A  
BRANCH  15  18
HETATM   18  C   UNL     1     -11.251   6.406  69.458  1.00  0.00    -0.477 C  
BRANCH  18  19
HETATM   19  C   UNL     1     -11.502   5.971  70.907  1.00  0.00    -0.160 C  
HETATM   20  S   UNL     1      -9.983   5.835  71.918  1.00  0.00    -0.180 SA 
HETATM   21  C   UNL     1     -10.660   6.765  73.222  1.00  0.00    -0.309 C  
HETATM   22  N   UNL     1     -11.803   7.366  72.821  1.00  0.00    -0.565 N  
HETATM   23  O   UNL     1     -10.179   6.827  74.339  1.00  0.00    -0.355 OA 
HETATM   24  C   UNL     1     -12.371   6.962  71.650  1.00  0.00    -0.371 C  
HETATM   25  H   UNL     1     -12.230   8.104  73.381  1.00  0.00     0.000 HD 
HETATM   26  O   UNL     1     -13.487   7.317  71.294  1.00  0.00    -0.369 OA 
ENDBRANCH  18  19
ENDBRANCH  15  18
ENDBRANCH  11  12
ENDBRANCH  10  11
ENDBRANCH   9  10
ENDBRANCH   6   9
ENDBRANCH   2   3
TORSDOF 7
ENDMDL
MODEL      203
REMARK 921   NORMALIZED FREE ENERGY PREDICTED BY IDOCK:   -4.14 KCAL/MOL
REMARK 922        TOTAL FREE ENERGY PREDICTED BY IDOCK:   -6.97 KCAL/MOL
REMARK 923 INTER-LIGAND FREE ENERGY PREDICTED BY IDOCK:   -6.48 KCAL/MOL
REMARK 924 INTRA-LIGAND FREE ENERGY PREDICTED BY IDOCK:   -0.49 KCAL/MOL
REMARK 927      BINDING AFFINITY PREDICTED BY RF-SCORE:    0.00 PKD
ROOT
HETATM    1  C   UNL     1     -11.439   4.524  73.217  1.00  0.00    -0.314 C  
HETATM    2  C   UNL     1     -10.584   5.757  73.474  1.00  0.00    -0.295 C  
ENDROOT
BRANCH   2   3
HETATM    3  C   UNL     1     -10.606   6.703  72.309  1.00  0.00    -0.241 A  
HETATM    4  C   UNL     1      -9.709   6.562  71.262  1.00  0.00    -0.173 A  
HETATM    5  N   UNL     1      -9.652   7.395  70.202  1.00  0.00    -0.165 NA 
HETATM    6  C   UNL     1     -10.528   8.431  70.146  1.00  0.00    -0.228 A  
HETATM    7  C   UNL     1     -11.457   8.655  71.155  1.00  0.00    -0.332 A  
HETATM    8  C   UNL     1     -11.492   7.780  72.244  1.00  0.00    -0.384 A  
BRANCH   6   9
HETATM    9  C   UNL     1     -10.425   9.357  68.949  1.00  0.00    -0.236 C  
BRANCH   9  10
HETATM   10  C   UNL     1     -11.548  10.391  69.010  1.00  0.00    -0.150 C  
BRANCH  10  11
HETATM   11  O   UNL     1     -12.020  10.819  67.727  1.00  0.00    -0.470 OA 
BRANCH  11  12
HETATM   12  C   UNL     1     -11.604  12.098  67.400  1.00  0.00    -0.340 A  
HETATM   13  C   UNL     1     -11.529  13.164  68.301  1.00  0.00    -0.349 A  
HETATM   14  C   UNL     1     -11.034  14.405  67.910  1.00  0.00    -0.272 A  
HETATM   15  C   UNL     1     -10.580  14.606  66.604  1.00  0.00    -0.289 A  
HETATM   16  C   UNL     1     -10.707  13.561  65.678  1.00  0.00    -0.284 A  
HETATM   17  C   UNL     1     -11.213  12.312  66.079  1.00  0.00    -0.375 A  
BRANCH  15  18
HETATM   18  C   UNL     1      -9.898  15.907  66.248  1.00  0.00    -0.325 C  
BRANCH  18  19
HETATM   19  C   UNL     1      -9.015  16.429  67.388  1.00  0.00    -0.191 C  
HETATM   20  S   UNL     1      -7.683  15.277  67.887  1.00  0.00    -0.148 SA 
HETATM   21  C   UNL     1      -6.465  16.517  67.827  1.00  0.00    -0.143 C  
HETATM   22  N   UNL     1      -6.952  17.618  67.211  1.00  0.00    -0.163 N  
HETATM   23  O   UNL     1      -5.351  16.405  68.306  1.00  0.00    -0.099 OA 
HETATM   24  C   UNL     1      -8.296  17.704  67.004  1.00  0.00    -0.221 C  
HETATM   25  H   UNL     1      -6.328  18.367  66.909  1.00  0.00     0.000 HD 
HETATM   26  O   UNL     1      -8.846  18.727  66.619  1.00  0.00    -0.295 OA 
ENDBRANCH  18  19
ENDBRANCH  15  18
ENDBRANCH  11  12
ENDBRANCH  10  11
ENDBRANCH   9  10
ENDBRANCH   6   9
ENDBRANCH   2   3
TORSDOF 7
ENDMDL
MODEL      204
REMARK 921   NORMALIZED FREE ENERGY PREDICTED BY IDOCK:   -4.12 KCAL/MOL
REMARK 922        TOTAL FREE ENERGY PREDICTED BY IDOCK:   -6.95 KCAL/MOL
REMARK 923 INTER-LIGAND FREE ENERGY PREDICTED BY IDOCK:   -6.58 KCAL/MOL
REMARK 924 INTRA-LIGAND FREE ENERGY PREDICTED BY IDOCK:   -0.37 KCAL/MOL
REMARK 927      BINDING AFFINITY PREDICTED BY RF-SCORE:    0.00 PKD
ROOT
HETATM    1  C   UNL     1      -5.878  20.400  68.670  1.00  0.00    -0.337 C  
HETATM    2  C   UNL     1      -7.018  19.632  69.324  1.00  0.00    -0.375 C  
ENDROOT
BRANCH   2   3
HETATM    3  C   UNL     1      -7.869  18.928  68.307  1.00  0.00    -0.340 A  
HETATM    4  C   UNL     1      -9.251  18.933  68.411  1.00  0.00    -0.347 A  
HETATM    5  N   UNL     1     -10.073  18.294  67.553  1.00  0.00    -0.333 NA 
HETATM    6  C   UNL     1      -9.521  17.608  66.519  1.00  0.00    -0.283 A  
HETATM    7  C   UNL     1      -8.145  17.540  66.342  1.00  0.00    -0.309 A  
HETATM    8  C   UNL     1      -7.315  18.208  67.247  1.00  0.00    -0.219 A  
BRANCH   6   9
HETATM    9  C   UNL     1     -10.474  16.888  65.583  1.00  0.00    -0.252 C  
BRANCH   9  10
HETATM   10  C   UNL     1     -10.766  15.493  66.133  1.00  0.00    -0.313 C  
BRANCH  10  11
HETATM   11  O   UNL     1      -9.905  15.096  67.208  1.00  0.00    -0.225 OA 
BRANCH  11  12
HETATM   12  C   UNL     1      -9.413  13.811  67.056  1.00  0.00    -0.255 A  
HETATM   13  C   UNL     1      -8.126  13.405  67.419  1.00  0.00    -0.178 A  
HETATM   14  C   UNL     1      -7.728  12.076  67.297  1.00  0.00    -0.168 A  
HETATM   15  C   UNL     1      -8.621  11.112  66.826  1.00  0.00    -0.157 A  
HETATM   16  C   UNL     1      -9.894  11.520  66.404  1.00  0.00    -0.233 A  
HETATM   17  C   UNL     1     -10.287  12.865  66.524  1.00  0.00    -0.272 A  
BRANCH  15  18
HETATM   18  C   UNL     1      -8.223   9.654  66.857  1.00  0.00    -0.113 C  
BRANCH  18  19
HETATM   19  C   UNL     1      -8.841   8.909  68.046  1.00  0.00    -0.133 C  
HETATM   20  S   UNL     1      -8.987   9.921  69.565  1.00  0.00    -0.218 SA 
HETATM   21  C   UNL     1     -10.649   9.473  69.811  1.00  0.00    -0.236 C  
HETATM   22  N   UNL     1     -11.135   8.861  68.708  1.00  0.00    -0.433 N  
HETATM   23  O   UNL     1     -11.261   9.661  70.847  1.00  0.00    -0.293 OA 
HETATM   24  C   UNL     1     -10.254   8.453  67.752  1.00  0.00    -0.224 C  
HETATM   25  H   UNL     1     -12.137   8.709  68.593  1.00  0.00     0.000 HD 
HETATM   26  O   UNL     1     -10.575   7.741  66.810  1.00  0.00    -0.331 OA 
ENDBRANCH  18  19
ENDBRANCH  15  18
ENDBRANCH  11  12
ENDBRANCH  10  11
ENDBRANCH   9  10
ENDBRANCH   6   9
ENDBRANCH   2   3
TORSDOF 7
ENDMDL
MODEL      205
REMARK 921   NORMALIZED FREE ENERGY PREDICTED BY IDOCK:   -4.11 KCAL/MOL
REMARK 922        TOTAL FREE ENERGY PREDICTED BY IDOCK:   -6.93 KCAL/MOL
REMARK 923 INTER-LIGAND FREE ENERGY PREDICTED BY IDOCK:   -6.20 KCAL/MOL
REMARK 924 INTRA-LIGAND FREE ENERGY PREDICTED BY IDOCK:   -0.73 KCAL/MOL
REMARK 927      BINDING AFFINITY PREDICTED BY RF-SCORE:    0.00 PKD
ROOT
HETATM    1  C   UNL     1      -9.308   3.613  63.655  1.00  0.00    -0.124 C  
HETATM    2  C   UNL     1      -8.277   4.470  64.376  1.00  0.00    -0.108 C  
ENDROOT
BRANCH   2   3
HETATM    3  C   UNL     1      -8.908   5.320  65.441  1.00  0.00    -0.152 A  
HETATM    4  C   UNL     1      -9.822   4.781  66.332  1.00  0.00    -0.219 A  
HETATM    5  N   UNL     1     -10.450   5.493  67.290  1.00  0.00    -0.236 NA 
HETATM    6  C   UNL     1     -10.168   6.817  67.400  1.00  0.00    -0.197 A  
HETATM    7  C   UNL     1      -9.272   7.445  66.544  1.00  0.00    -0.206 A  
HETATM    8  C   UNL     1      -8.638   6.685  65.557  1.00  0.00    -0.101 A  
BRANCH   6   9
HETATM    9  C   UNL     1     -10.905   7.591  68.478  1.00  0.00    -0.032 C  
BRANCH   9  10
HETATM   10  C   UNL     1     -10.281   8.978  68.620  1.00  0.00    -0.205 C  
BRANCH  10  11
HETATM   11  O   UNL     1     -11.222  10.014  68.931  1.00  0.00    -0.209 OA 
BRANCH  11  12
HETATM   12  C   UNL     1     -10.984  11.184  68.231  1.00  0.00    -0.226 A  
HETATM   13  C   UNL     1     -11.541  12.427  68.547  1.00  0.00    -0.358 A  
HETATM   14  C   UNL     1     -11.198  13.573  67.834  1.00  0.00    -0.302 A  
HETATM   15  C   UNL     1     -10.268  13.506  66.795  1.00  0.00    -0.264 A  
HETATM   16  C   UNL     1      -9.749  12.255  66.433  1.00  0.00    -0.243 A  
HETATM   17  C   UNL     1     -10.104  11.101  67.153  1.00  0.00    -0.223 A  
BRANCH  15  18
HETATM   18  C   UNL     1      -9.789  14.785  66.146  1.00  0.00    -0.335 C  
BRANCH  18  19
HETATM   19  C   UNL     1     -10.628  15.998  66.566  1.00  0.00    -0.284 C  
HETATM   20  S   UNL     1      -9.802  17.092  67.778  1.00  0.00    -0.284 SA 
HETATM   21  C   UNL     1     -10.159  18.526  66.862  1.00  0.00    -0.370 C  
HETATM   22  N   UNL     1     -10.597  18.193  65.627  1.00  0.00    -0.266 N  
HETATM   23  O   UNL     1     -10.057  19.659  67.297  1.00  0.00    -0.357 OA 
HETATM   24  C   UNL     1     -10.946  16.897  65.391  1.00  0.00    -0.026 C  
HETATM   25  H   UNL     1     -10.664  18.894  64.889  1.00  0.00     0.000 HD 
HETATM   26  O   UNL     1     -11.514  16.535  64.369  1.00  0.00    -0.873 OA 
ENDBRANCH  18  19
ENDBRANCH  15  18
ENDBRANCH  11  12
ENDBRANCH  10  11
ENDBRANCH   9  10
ENDBRANCH   6   9
ENDBRANCH   2   3
TORSDOF 7
ENDMDL
MODEL      206
REMARK 921   NORMALIZED FREE ENERGY PREDICTED BY IDOCK:   -4.10 KCAL/MOL
REMARK 922        TOTAL FREE ENERGY PREDICTED BY IDOCK:   -6.92 KCAL/MOL
REMARK 923 INTER-LIGAND FREE ENERGY PREDICTED BY IDOCK:   -6.37 KCAL/MOL
REMARK 924 INTRA-LIGAND FREE ENERGY PREDICTED BY IDOCK:   -0.55 KCAL/MOL
REMARK 927      BINDING AFFINITY PREDICTED BY RF-SCORE:    0.00 PKD
ROOT
HETATM    1  C   UNL     1      -5.821  21.128  65.799  1.00  0.00    -0.279 C  
HETATM    2  C   UNL     1      -6.616  20.937  67.082  1.00  0.00    -0.399 C  
ENDROOT
BRANCH   2   3
HETATM    3  C   UNL     1      -7.465  19.700  67.031  1.00  0.00    -0.258 A  
HETATM    4  C   UNL     1      -8.753  19.742  66.523  1.00  0.00    -0.360 A  
HETATM    5  N   UNL     1      -9.581  18.677  66.479  1.00  0.00    -0.327 NA 
HETATM    6  C   UNL     1      -9.128  17.487  66.951  1.00  0.00    -0.254 A  
HETATM    7  C   UNL     1      -7.854  17.353  67.488  1.00  0.00    -0.209 A  
HETATM    8  C   UNL     1      -7.018  18.473  67.526  1.00  0.00    -0.206 A  
BRANCH   6   9
HETATM    9  C   UNL     1     -10.090  16.315  66.901  1.00  0.00    -0.278 C  
BRANCH   9  10
HETATM   10  C   UNL     1     -10.546  16.094  65.460  1.00  0.00    -0.377 C  
BRANCH  10  11
HETATM   11  O   UNL     1     -11.564  15.096  65.314  1.00  0.00    -0.306 OA 
BRANCH  11  12
HETATM   12  C   UNL     1     -11.103  13.817  65.573  1.00  0.00    -0.298 A  
HETATM   13  C   UNL     1     -10.364  13.041  64.675  1.00  0.00    -0.374 A  
HETATM   14  C   UNL     1      -9.877  11.788  65.036  1.00  0.00    -0.257 A  
HETATM   15  C   UNL     1     -10.101  11.285  66.319  1.00  0.00    -0.271 A  
HETATM   16  C   UNL     1     -10.891  12.030  67.206  1.00  0.00    -0.290 A  
HETATM   17  C   UNL     1     -11.385  13.292  66.834  1.00  0.00    -0.351 A  
BRANCH  15  18
HETATM   18  C   UNL     1      -9.426  10.000  66.741  1.00  0.00    -0.209 C  
BRANCH  18  19
HETATM   19  C   UNL     1      -9.803   9.589  68.169  1.00  0.00    -0.155 C  
HETATM   20  S   UNL     1     -10.228   7.818  68.348  1.00  0.00    -0.199 SA 
HETATM   21  C   UNL     1      -9.183   7.613  69.723  1.00  0.00    -0.147 C  
HETATM   22  N   UNL     1      -8.373   8.688  69.856  1.00  0.00    -0.119 N  
HETATM   23  O   UNL     1      -9.213   6.650  70.468  1.00  0.00    -0.155 OA 
HETATM   24  C   UNL     1      -8.661   9.809  69.138  1.00  0.00    -0.153 C  
HETATM   25  H   UNL     1      -7.565   8.660  70.478  1.00  0.00     0.000 HD 
HETATM   26  O   UNL     1      -8.097  10.880  69.320  1.00  0.00    -0.136 OA 
ENDBRANCH  18  19
ENDBRANCH  15  18
ENDBRANCH  11  12
ENDBRANCH  10  11
ENDBRANCH   9  10
ENDBRANCH   6   9
ENDBRANCH   2   3
TORSDOF 7
ENDMDL
MODEL      207
REMARK 921   NORMALIZED FREE ENERGY PREDICTED BY IDOCK:   -4.09 KCAL/MOL
REMARK 922        TOTAL FREE ENERGY PREDICTED BY IDOCK:   -6.91 KCAL/MOL
REMARK 923 INTER-LIGAND FREE ENERGY PREDICTED BY IDOCK:   -5.95 KCAL/MOL
REMARK 924 INTRA-LIGAND FREE ENERGY PREDICTED BY IDOCK:   -0.96 KCAL/MOL
REMARK 927      BINDING AFFINITY PREDICTED BY RF-SCORE:    0.00 PKD
ROOT
HETATM    1  C   UNL     1     -13.159  10.130  71.866  1.00  0.00    -0.571 C  
HETATM    2  C   UNL     1     -13.094  11.646  71.979  1.00  0.00    -0.433 C  
ENDROOT
BRANCH   2   3
HETATM    3  C   UNL     1     -12.574  12.276  70.720  1.00  0.00    -0.302 A  
HETATM    4  C   UNL     1     -12.376  13.645  70.639  1.00  0.00    -0.368 A  
HETATM    5  N   UNL     1     -11.944  14.280  69.530  1.00  0.00    -0.318 NA 
HETATM    6  C   UNL     1     -11.676  13.539  68.424  1.00  0.00    -0.358 A  
HETATM    7  C   UNL     1     -11.855  12.161  68.410  1.00  0.00    -0.360 A  
HETATM    8  C   UNL     1     -12.307  11.528  69.571  1.00  0.00    -0.190 A  
BRANCH   6   9
HETATM    9  C   UNL     1     -11.208  14.286  67.190  1.00  0.00    -0.333 C  
BRANCH   9  10
HETATM   10  C   UNL     1     -10.761  13.282  66.128  1.00  0.00    -0.279 C  
BRANCH  10  11
HETATM   11  O   UNL     1      -9.375  12.926  66.206  1.00  0.00    -0.226 OA 
BRANCH  11  12
HETATM   12  C   UNL     1      -9.172  11.557  66.223  1.00  0.00    -0.211 A  
HETATM   13  C   UNL     1      -9.447  10.700  65.154  1.00  0.00    -0.276 A  
HETATM   14  C   UNL     1      -9.151   9.341  65.225  1.00  0.00    -0.271 A  
HETATM   15  C   UNL     1      -8.551   8.807  66.367  1.00  0.00    -0.138 A  
HETATM   16  C   UNL     1      -8.327   9.648  67.467  1.00  0.00    -0.118 A  
HETATM   17  C   UNL     1      -8.633  11.018  67.390  1.00  0.00    -0.132 A  
BRANCH  15  18
HETATM   18  C   UNL     1      -8.090   7.368  66.359  1.00  0.00    -0.118 C  
BRANCH  18  19
HETATM   19  C   UNL     1      -8.950   6.479  67.266  1.00  0.00    -0.114 C  
HETATM   20  S   UNL     1      -9.736   5.070  66.400  1.00  0.00    -0.203 SA 
HETATM   21  C   UNL     1      -9.212   3.925  67.599  1.00  0.00    -0.167 C  
HETATM   22  N   UNL     1      -8.293   4.491  68.413  1.00  0.00    -0.089 N  
HETATM   23  O   UNL     1      -9.646   2.792  67.698  1.00  0.00    -0.172 OA 
HETATM   24  C   UNL     1      -8.134   5.844  68.370  1.00  0.00    -0.109 C  
HETATM   25  H   UNL     1      -7.731   3.920  69.045  1.00  0.00     0.000 HD 
HETATM   26  O   UNL     1      -7.461   6.462  69.184  1.00  0.00    -0.090 OA 
ENDBRANCH  18  19
ENDBRANCH  15  18
ENDBRANCH  11  12
ENDBRANCH  10  11
ENDBRANCH   9  10
ENDBRANCH   6   9
ENDBRANCH   2   3
TORSDOF 7
ENDMDL
MODEL      208
REMARK 921   NORMALIZED FREE ENERGY PREDICTED BY IDOCK:   -4.07 KCAL/MOL
REMARK 922        TOTAL FREE ENERGY PREDICTED BY IDOCK:   -6.88 KCAL/MOL
REMARK 923 INTER-LIGAND FREE ENERGY PREDICTED BY IDOCK:   -6.18 KCAL/MOL
REMARK 924 INTRA-LIGAND FREE ENERGY PREDICTED BY IDOCK:   -0.70 KCAL/MOL
REMARK 927      BINDING AFFINITY PREDICTED BY RF-SCORE:    0.00 PKD
ROOT
HETATM    1  C   UNL     1      -9.000   2.586  63.039  1.00  0.00    -0.088 C  
HETATM    2  C   UNL     1      -7.869   3.288  63.777  1.00  0.00    -0.080 C  
ENDROOT
BRANCH   2   3
HETATM    3  C   UNL     1      -8.332   3.870  65.081  1.00  0.00    -0.101 A  
HETATM    4  C   UNL     1      -9.202   3.171  65.902  1.00  0.00    -0.135 A  
HETATM    5  N   UNL     1      -9.684   3.648  67.069  1.00  0.00    -0.147 NA 
HETATM    6  C   UNL     1      -9.291   4.883  67.474  1.00  0.00    -0.133 A  
HETATM    7  C   UNL     1      -8.429   5.660  66.710  1.00  0.00    -0.111 A  
HETATM    8  C   UNL     1      -7.948   5.144  65.503  1.00  0.00    -0.109 A  
BRANCH   6   9
HETATM    9  C   UNL     1      -9.864   5.395  68.782  1.00  0.00    -0.208 C  
BRANCH   9  10
HETATM   10  C   UNL     1      -9.236   6.746  69.116  1.00  0.00    -0.137 C  
BRANCH  10  11
HETATM   11  O   UNL     1      -9.967   7.508  70.085  1.00  0.00    -0.190 OA 
BRANCH  11  12
HETATM   12  C   UNL     1     -10.415   8.721  69.589  1.00  0.00    -0.220 A  
HETATM   13  C   UNL     1     -10.950   9.750  70.369  1.00  0.00    -0.371 A  
HETATM   14  C   UNL     1     -11.314  10.968  69.802  1.00  0.00    -0.366 A  
HETATM   15  C   UNL     1     -11.133  11.195  68.437  1.00  0.00    -0.303 A  
HETATM   16  C   UNL     1     -10.653  10.148  67.637  1.00  0.00    -0.316 A  
HETATM   17  C   UNL     1     -10.292   8.919  68.214  1.00  0.00    -0.250 A  
BRANCH  15  18
HETATM   18  C   UNL     1     -11.382  12.576  67.875  1.00  0.00    -0.343 C  
BRANCH  18  19
HETATM   19  C   UNL     1     -11.044  12.664  66.382  1.00  0.00    -0.287 C  
HETATM   20  S   UNL     1     -12.496  12.506  65.279  1.00  0.00    -0.139 SA 
HETATM   21  C   UNL     1     -12.058  13.912  64.352  1.00  0.00    -0.443 C  
HETATM   22  N   UNL     1     -11.083  14.601  64.986  1.00  0.00    -0.371 N  
HETATM   23  O   UNL     1     -12.545  14.199  63.274  1.00  0.00    -0.766 OA 
HETATM   24  C   UNL     1     -10.431  14.000  66.021  1.00  0.00    -0.304 C  
HETATM   25  H   UNL     1     -10.840  15.549  64.697  1.00  0.00     0.000 HD 
HETATM   26  O   UNL     1      -9.426  14.468  66.537  1.00  0.00    -0.264 OA 
ENDBRANCH  18  19
ENDBRANCH  15  18
ENDBRANCH  11  12
ENDBRANCH  10  11
ENDBRANCH   9  10
ENDBRANCH   6   9
ENDBRANCH   2   3
TORSDOF 7
ENDMDL
MODEL      209
REMARK 921   NORMALIZED FREE ENERGY PREDICTED BY IDOCK:   -4.06 KCAL/MOL
REMARK 922        TOTAL FREE ENERGY PREDICTED BY IDOCK:   -6.86 KCAL/MOL
REMARK 923 INTER-LIGAND FREE ENERGY PREDICTED BY IDOCK:   -6.38 KCAL/MOL
REMARK 924 INTRA-LIGAND FREE ENERGY PREDICTED BY IDOCK:   -0.48 KCAL/MOL
REMARK 927      BINDING AFFINITY PREDICTED BY RF-SCORE:    0.00 PKD
ROOT
HETATM    1  C   UNL     1      -5.201   7.080  73.338  1.00  0.00    -0.042 C  
HETATM    2  C   UNL     1      -5.994   8.301  72.894  1.00  0.00    -0.067 C  
ENDROOT
BRANCH   2   3
HETATM    3  C   UNL     1      -7.430   7.961  72.619  1.00  0.00    -0.127 A  
HETATM    4  C   UNL     1      -7.845   7.607  71.345  1.00  0.00    -0.089 A  
HETATM    5  N   UNL     1      -9.123   7.323  71.021  1.00  0.00    -0.153 NA 
HETATM    6  C   UNL     1     -10.065   7.377  71.998  1.00  0.00    -0.182 A  
HETATM    7  C   UNL     1      -9.743   7.732  73.301  1.00  0.00    -0.357 A  
HETATM    8  C   UNL     1      -8.412   8.026  73.610  1.00  0.00    -0.317 A  
BRANCH   6   9
HETATM    9  C   UNL     1     -11.495   7.068  71.595  1.00  0.00    -0.299 C  
BRANCH   9  10
HETATM   10  C   UNL     1     -12.212   8.368  71.234  1.00  0.00    -0.277 C  
BRANCH  10  11
HETATM   11  O   UNL     1     -11.430   9.548  71.456  1.00  0.00    -0.368 OA 
BRANCH  11  12
HETATM   12  C   UNL     1     -11.214  10.275  70.299  1.00  0.00    -0.323 A  
HETATM   13  C   UNL     1     -12.206  10.967  69.598  1.00  0.00    -0.370 A  
HETATM   14  C   UNL     1     -11.895  11.734  68.477  1.00  0.00    -0.365 A  
HETATM   15  C   UNL     1     -10.574  11.842  68.040  1.00  0.00    -0.234 A  
HETATM   16  C   UNL     1      -9.582  11.104  68.700  1.00  0.00    -0.200 A  
HETATM   17  C   UNL     1      -9.903  10.328  69.827  1.00  0.00    -0.201 A  
BRANCH  15  18
HETATM   18  C   UNL     1     -10.239  12.807  66.925  1.00  0.00    -0.241 C  
BRANCH  18  19
HETATM   19  C   UNL     1     -10.977  14.143  67.073  1.00  0.00    -0.300 C  
HETATM   20  S   UNL     1     -10.467  15.117  68.536  1.00  0.00    -0.239 SA 
HETATM   21  C   UNL     1     -10.261  16.573  67.607  1.00  0.00    -0.279 C  
HETATM   22  N   UNL     1     -10.287  16.289  66.286  1.00  0.00    -0.316 N  
HETATM   23  O   UNL     1     -10.145  17.683  68.093  1.00  0.00    -0.307 OA 
HETATM   24  C   UNL     1     -10.725  15.059  65.895  1.00  0.00    -0.331 C  
HETATM   25  H   UNL     1      -9.986  16.978  65.597  1.00  0.00     0.000 HD 
HETATM   26  O   UNL     1     -10.951  14.772  64.727  1.00  0.00    -0.390 OA 
ENDBRANCH  18  19
ENDBRANCH  15  18
ENDBRANCH  11  12
ENDBRANCH  10  11
ENDBRANCH   9  10
ENDBRANCH   6   9
ENDBRANCH   2   3
TORSDOF 7
ENDMDL
MODEL      210
REMARK 921   NORMALIZED FREE ENERGY PREDICTED BY IDOCK:   -4.05 KCAL/MOL
REMARK 922        TOTAL FREE ENERGY PREDICTED BY IDOCK:   -6.85 KCAL/MOL
REMARK 923 INTER-LIGAND FREE ENERGY PREDICTED BY IDOCK:   -6.18 KCAL/MOL
REMARK 924 INTRA-LIGAND FREE ENERGY PREDICTED BY IDOCK:   -0.67 KCAL/MOL
REMARK 927      BINDING AFFINITY PREDICTED BY RF-SCORE:    0.00 PKD
ROOT
HETATM    1  C   UNL     1     -11.812  16.209  72.197  1.00  0.00    -0.626 C  
HETATM    2  C   UNL     1     -11.959  15.421  70.903  1.00  0.00    -0.406 C  
ENDROOT
BRANCH   2   3
HETATM    3  C   UNL     1     -12.391  14.006  71.160  1.00  0.00    -0.443 A  
HETATM    4  C   UNL     1     -13.232  13.701  72.219  1.00  0.00    -0.469 A  
HETATM    5  N   UNL     1     -13.631  12.450  72.527  1.00  0.00    -0.260 NA 
HETATM    6  C   UNL     1     -13.195  11.423  71.752  1.00  0.00    -0.367 A  
HETATM    7  C   UNL     1     -12.342  11.634  70.676  1.00  0.00    -0.437 A  
HETATM    8  C   UNL     1     -11.939  12.939  70.381  1.00  0.00    -0.329 A  
BRANCH   6   9
HETATM    9  C   UNL     1     -13.650  10.027  72.136  1.00  0.00    -0.351 C  
BRANCH   9  10
HETATM   10  C   UNL     1     -12.905   9.000  71.286  1.00  0.00    -0.245 C  
BRANCH  10  11
HETATM   11  O   UNL     1     -12.257   7.971  72.045  1.00  0.00    -0.303 OA 
BRANCH  11  12
HETATM   12  C   UNL     1     -11.019   7.624  71.532  1.00  0.00    -0.233 A  
HETATM   13  C   UNL     1     -10.815   6.687  70.514  1.00  0.00    -0.310 A  
HETATM   14  C   UNL     1      -9.543   6.443  70.004  1.00  0.00    -0.171 A  
HETATM   15  C   UNL     1      -8.440   7.148  70.489  1.00  0.00    -0.139 A  
HETATM   16  C   UNL     1      -8.626   8.045  71.550  1.00  0.00    -0.157 A  
HETATM   17  C   UNL     1      -9.913   8.284  72.064  1.00  0.00    -0.327 A  
BRANCH  15  18
HETATM   18  C   UNL     1      -7.099   6.985  69.810  1.00  0.00    -0.067 C  
BRANCH  18  19
HETATM   19  C   UNL     1      -6.733   8.203  68.952  1.00  0.00    -0.049 C  
HETATM   20  S   UNL     1      -8.142   8.913  68.025  1.00  0.00    -0.106 SA 
HETATM   21  C   UNL     1      -7.785  10.533  68.547  1.00  0.00    -0.104 C  
HETATM   22  N   UNL     1      -6.878  10.510  69.550  1.00  0.00    -0.083 N  
HETATM   23  O   UNL     1      -8.266  11.534  68.047  1.00  0.00    -0.129 OA 
HETATM   24  C   UNL     1      -6.210   9.347  69.792  1.00  0.00    -0.039 C  
HETATM   25  H   UNL     1      -6.699  11.342  70.111  1.00  0.00     0.000 HD 
HETATM   26  O   UNL     1      -5.254   9.275  70.553  1.00  0.00    -0.029 OA 
ENDBRANCH  18  19
ENDBRANCH  15  18
ENDBRANCH  11  12
ENDBRANCH  10  11
ENDBRANCH   9  10
ENDBRANCH   6   9
ENDBRANCH   2   3
TORSDOF 7
ENDMDL
MODEL      211
REMARK 921   NORMALIZED FREE ENERGY PREDICTED BY IDOCK:   -4.03 KCAL/MOL
REMARK 922        TOTAL FREE ENERGY PREDICTED BY IDOCK:   -6.82 KCAL/MOL
REMARK 923 INTER-LIGAND FREE ENERGY PREDICTED BY IDOCK:   -6.09 KCAL/MOL
REMARK 924 INTRA-LIGAND FREE ENERGY PREDICTED BY IDOCK:   -0.73 KCAL/MOL
REMARK 927      BINDING AFFINITY PREDICTED BY RF-SCORE:    0.00 PKD
ROOT
HETATM    1  C   UNL     1     -10.373  18.487  66.036  1.00  0.00    -0.423 C  
HETATM    2  C   UNL     1      -9.322  17.618  66.710  1.00  0.00    -0.286 C  
ENDROOT
BRANCH   2   3
HETATM    3  C   UNL     1      -9.905  16.811  67.834  1.00  0.00    -0.257 A  
HETATM    4  C   UNL     1     -11.276  16.731  68.015  1.00  0.00    -0.119 A  
HETATM    5  N   UNL     1     -11.865  16.053  69.021  1.00  0.00    -0.329 NA 
HETATM    6  C   UNL     1     -11.074  15.398  69.910  1.00  0.00    -0.293 A  
HETATM    7  C   UNL     1      -9.688  15.431  69.813  1.00  0.00    -0.219 A  
HETATM    8  C   UNL     1      -9.103  16.145  68.763  1.00  0.00    -0.229 A  
BRANCH   6   9
HETATM    9  C   UNL     1     -11.768  14.659  71.038  1.00  0.00    -0.331 C  
BRANCH   9  10
HETATM   10  C   UNL     1     -12.612  13.526  70.458  1.00  0.00    -0.241 C  
BRANCH  10  11
HETATM   11  O   UNL     1     -12.276  12.228  70.964  1.00  0.00    -0.306 OA 
BRANCH  11  12
HETATM   12  C   UNL     1     -11.721  11.403  70.000  1.00  0.00    -0.334 A  
HETATM   13  C   UNL     1     -11.077  10.192  70.267  1.00  0.00    -0.384 A  
HETATM   14  C   UNL     1     -10.604   9.385  69.235  1.00  0.00    -0.239 A  
HETATM   15  C   UNL     1     -10.783   9.763  67.903  1.00  0.00    -0.312 A  
HETATM   16  C   UNL     1     -11.374  11.005  67.628  1.00  0.00    -0.355 A  
HETATM   17  C   UNL     1     -11.844  11.817  68.675  1.00  0.00    -0.369 A  
BRANCH  15  18
HETATM   18  C   UNL     1     -10.410   8.798  66.801  1.00  0.00    -0.328 C  
BRANCH  18  19
HETATM   19  C   UNL     1      -8.913   8.843  66.473  1.00  0.00    -0.155 C  
HETATM   20  S   UNL     1      -8.167  10.508  66.622  1.00  0.00    -0.133 SA 
HETATM   21  C   UNL     1      -6.835   9.925  67.576  1.00  0.00    -0.081 C  
HETATM   22  N   UNL     1      -7.078   8.661  67.990  1.00  0.00    -0.081 N  
HETATM   23  O   UNL     1      -5.823  10.564  67.800  1.00  0.00    -0.044 OA 
HETATM   24  C   UNL     1      -8.104   7.975  67.412  1.00  0.00    -0.122 C  
HETATM   25  H   UNL     1      -6.506   8.230  68.717  1.00  0.00     0.000 HD 
HETATM   26  O   UNL     1      -8.289   6.779  67.590  1.00  0.00    -0.121 OA 
ENDBRANCH  18  19
ENDBRANCH  15  18
ENDBRANCH  11  12
ENDBRANCH  10  11
ENDBRANCH   9  10
ENDBRANCH   6   9
ENDBRANCH   2   3
TORSDOF 7
ENDMDL
MODEL      212
REMARK 921   NORMALIZED FREE ENERGY PREDICTED BY IDOCK:   -4.02 KCAL/MOL
REMARK 922        TOTAL FREE ENERGY PREDICTED BY IDOCK:   -6.81 KCAL/MOL
REMARK 923 INTER-LIGAND FREE ENERGY PREDICTED BY IDOCK:   -6.11 KCAL/MOL
REMARK 924 INTRA-LIGAND FREE ENERGY PREDICTED BY IDOCK:   -0.71 KCAL/MOL
REMARK 927      BINDING AFFINITY PREDICTED BY RF-SCORE:    0.00 PKD
ROOT
HETATM    1  C   UNL     1     -12.856  16.119  72.803  1.00  0.00    -0.446 C  
HETATM    2  C   UNL     1     -13.041  15.526  71.413  1.00  0.00    -0.580 C  
ENDROOT
BRANCH   2   3
HETATM    3  C   UNL     1     -12.981  14.026  71.437  1.00  0.00    -0.427 A  
HETATM    4  C   UNL     1     -13.560  13.308  72.471  1.00  0.00    -0.532 A  
HETATM    5  N   UNL     1     -13.515  11.963  72.572  1.00  0.00    -0.044 NA 
HETATM    6  C   UNL     1     -12.873  11.263  71.600  1.00  0.00    -0.405 A  
HETATM    7  C   UNL     1     -12.256  11.900  70.531  1.00  0.00    -0.426 A  
HETATM    8  C   UNL     1     -12.314  13.294  70.452  1.00  0.00    -0.365 A  
BRANCH   6   9
HETATM    9  C   UNL     1     -12.828   9.754  71.753  1.00  0.00    -0.530 C  
BRANCH   9  10
HETATM   10  C   UNL     1     -12.501   9.118  70.404  1.00  0.00     0.371 C  
BRANCH  10  11
HETATM   11  O   UNL     1     -11.159   8.625  70.298  1.00  0.00    -0.247 OA 
BRANCH  11  12
HETATM   12  C   UNL     1     -10.472   9.163  69.224  1.00  0.00    -0.221 A  
HETATM   13  C   UNL     1     -10.968   9.234  67.919  1.00  0.00    -0.076 A  
HETATM   14  C   UNL     1     -10.241   9.852  66.904  1.00  0.00    -0.302 A  
HETATM   15  C   UNL     1      -9.003  10.436  67.177  1.00  0.00    -0.148 A  
HETATM   16  C   UNL     1      -8.471  10.318  68.469  1.00  0.00    -0.121 A  
HETATM   17  C   UNL     1      -9.207   9.687  69.487  1.00  0.00    -0.214 A  
BRANCH  15  18
HETATM   18  C   UNL     1      -8.310  11.242  66.102  1.00  0.00    -0.111 C  
BRANCH  18  19
HETATM   19  C   UNL     1      -7.709  10.352  65.007  1.00  0.00    -0.095 C  
HETATM   20  S   UNL     1      -7.189   8.698  65.593  1.00  0.00    -0.085 SA 
HETATM   21  C   UNL     1      -8.009   7.882  64.294  1.00  0.00    -0.130 C  
HETATM   22  N   UNL     1      -8.833   8.740  63.652  1.00  0.00    -0.419 N  
HETATM   23  O   UNL     1      -7.829   6.715  63.998  1.00  0.00    -0.114 OA 
HETATM   24  C   UNL     1      -8.701  10.073  63.900  1.00  0.00    -0.206 C  
HETATM   25  H   UNL     1      -9.538   8.398  62.998  1.00  0.00     0.000 HD 
HETATM   26  O   UNL     1      -9.274  10.933  63.244  1.00  0.00    -0.233 OA 
ENDBRANCH  18  19
ENDBRANCH  15  18
ENDBRANCH  11  12
ENDBRANCH  10  11
ENDBRANCH   9  10
ENDBRANCH   6   9
ENDBRANCH   2   3
TORSDOF 7
ENDMDL
MODEL      213
REMARK 921   NORMALIZED FREE ENERGY PREDICTED BY IDOCK:   -4.02 KCAL/MOL
REMARK 922        TOTAL FREE ENERGY PREDICTED BY IDOCK:   -6.81 KCAL/MOL
REMARK 923 INTER-LIGAND FREE ENERGY PREDICTED BY IDOCK:   -5.73 KCAL/MOL
REMARK 924 INTRA-LIGAND FREE ENERGY PREDICTED BY IDOCK:   -1.08 KCAL/MOL
REMARK 927      BINDING AFFINITY PREDICTED BY RF-SCORE:    0.00 PKD
ROOT
HETATM    1  C   UNL     1     -10.829   6.804  70.947  1.00  0.00    -0.289 C  
HETATM    2  C   UNL     1     -11.180   7.986  71.838  1.00  0.00    -0.335 C  
ENDROOT
BRANCH   2   3
HETATM    3  C   UNL     1     -11.432   9.231  71.036  1.00  0.00    -0.387 A  
HETATM    4  C   UNL     1     -10.857   9.400  69.787  1.00  0.00    -0.232 A  
HETATM    5  N   UNL     1     -11.013  10.506  69.030  1.00  0.00    -0.227 NA 
HETATM    6  C   UNL     1     -11.787  11.514  69.509  1.00  0.00    -0.351 A  
HETATM    7  C   UNL     1     -12.395  11.435  70.756  1.00  0.00    -0.483 A  
HETATM    8  C   UNL     1     -12.214  10.281  71.523  1.00  0.00    -0.449 A  
BRANCH   6   9
HETATM    9  C   UNL     1     -11.928  12.749  68.639  1.00  0.00    -0.272 C  
BRANCH   9  10
HETATM   10  C   UNL     1     -10.541  13.293  68.303  1.00  0.00    -0.251 C  
BRANCH  10  11
HETATM   11  O   UNL     1     -10.255  13.341  66.900  1.00  0.00    -0.245 OA 
BRANCH  11  12
HETATM   12  C   UNL     1      -9.695  12.167  66.425  1.00  0.00    -0.231 A  
HETATM   13  C   UNL     1      -8.407  11.721  66.731  1.00  0.00    -0.165 A  
HETATM   14  C   UNL     1      -7.940  10.493  66.268  1.00  0.00    -0.144 A  
HETATM   15  C   UNL     1      -8.764   9.669  65.499  1.00  0.00    -0.176 A  
HETATM   16  C   UNL     1     -10.036  10.135  65.137  1.00  0.00    -0.379 A  
HETATM   17  C   UNL     1     -10.498  11.378  65.604  1.00  0.00    -0.316 A  
BRANCH  15  18
HETATM   18  C   UNL     1      -8.297   8.275  65.147  1.00  0.00    -0.167 C  
BRANCH  18  19
HETATM   19  C   UNL     1      -8.246   7.354  66.373  1.00  0.00    -0.122 C  
HETATM   20  S   UNL     1      -9.260   5.838  66.208  1.00  0.00    -0.154 SA 
HETATM   21  C   UNL     1      -7.961   4.806  66.729  1.00  0.00    -0.103 C  
HETATM   22  N   UNL     1      -6.797   5.493  66.744  1.00  0.00    -0.062 N  
HETATM   23  O   UNL     1      -8.104   3.643  67.061  1.00  0.00    -0.090 OA 
HETATM   24  C   UNL     1      -6.845   6.851  66.642  1.00  0.00    -0.064 C  
HETATM   25  H   UNL     1      -5.904   5.007  66.829  1.00  0.00     0.000 HD 
HETATM   26  O   UNL     1      -5.869   7.567  66.821  1.00  0.00    -0.036 OA 
ENDBRANCH  18  19
ENDBRANCH  15  18
ENDBRANCH  11  12
ENDBRANCH  10  11
ENDBRANCH   9  10
ENDBRANCH   6   9
ENDBRANCH   2   3
TORSDOF 7
ENDMDL
MODEL      214
REMARK 921   NORMALIZED FREE ENERGY PREDICTED BY IDOCK:   -4.01 KCAL/MOL
REMARK 922        TOTAL FREE ENERGY PREDICTED BY IDOCK:   -6.80 KCAL/MOL
REMARK 923 INTER-LIGAND FREE ENERGY PREDICTED BY IDOCK:   -6.08 KCAL/MOL
REMARK 924 INTRA-LIGAND FREE ENERGY PREDICTED BY IDOCK:   -0.72 KCAL/MOL
REMARK 927      BINDING AFFINITY PREDICTED BY RF-SCORE:    0.00 PKD
ROOT
HETATM    1  C   UNL     1      -9.794  15.277  65.858  1.00  0.00    -0.385 C  
HETATM    2  C   UNL     1      -9.363  14.653  67.178  1.00  0.00    -0.231 C  
ENDROOT
BRANCH   2   3
HETATM    3  C   UNL     1      -8.605  13.374  66.967  1.00  0.00    -0.168 A  
HETATM    4  C   UNL     1      -9.043  12.431  66.052  1.00  0.00     0.030 A  
HETATM    5  N   UNL     1      -8.430  11.248  65.838  1.00  0.00    -0.114 NA 
HETATM    6  C   UNL     1      -7.311  10.962  66.551  1.00  0.00    -0.142 A  
HETATM    7  C   UNL     1      -6.804  11.844  67.497  1.00  0.00    -0.124 A  
HETATM    8  C   UNL     1      -7.461  13.060  67.703  1.00  0.00    -0.156 A  
BRANCH   6   9
HETATM    9  C   UNL     1      -6.656   9.617  66.296  1.00  0.00    -0.071 C  
BRANCH   9  10
HETATM   10  C   UNL     1      -6.679   8.791  67.581  1.00  0.00    -0.066 C  
BRANCH  10  11
HETATM   11  O   UNL     1      -7.894   8.058  67.784  1.00  0.00    -0.121 OA 
BRANCH  11  12
HETATM   12  C   UNL     1      -8.964   8.872  68.112  1.00  0.00    -0.137 A  
HETATM   13  C   UNL     1     -10.077   9.089  67.295  1.00  0.00    -0.297 A  
HETATM   14  C   UNL     1     -11.147   9.870  67.727  1.00  0.00    -0.196 A  
HETATM   15  C   UNL     1     -11.137  10.439  69.001  1.00  0.00    -0.297 A  
HETATM   16  C   UNL     1      -9.999  10.276  69.804  1.00  0.00    -0.222 A  
HETATM   17  C   UNL     1      -8.921   9.491  69.361  1.00  0.00    -0.174 A  
BRANCH  15  18
HETATM   18  C   UNL     1     -12.375  11.143  69.508  1.00  0.00    -0.262 C  
BRANCH  18  19
HETATM   19  C   UNL     1     -12.168  11.747  70.902  1.00  0.00    -0.276 C  
HETATM   20  S   UNL     1     -12.424  13.558  70.975  1.00  0.00    -0.319 SA 
HETATM   21  C   UNL     1     -13.463  13.446  72.365  1.00  0.00    -0.584 C  
HETATM   22  N   UNL     1     -13.819  12.159  72.577  1.00  0.00    -0.317 N  
HETATM   23  O   UNL     1     -13.785  14.395  73.056  1.00  0.00    -0.596 OA 
HETATM   24  C   UNL     1     -13.143  11.181  71.912  1.00  0.00    -0.408 C  
HETATM   25  H   UNL     1     -14.577  11.925  73.219  1.00  0.00     0.000 HD 
HETATM   26  O   UNL     1     -13.271   9.991  72.167  1.00  0.00    -0.442 OA 
ENDBRANCH  18  19
ENDBRANCH  15  18
ENDBRANCH  11  12
ENDBRANCH  10  11
ENDBRANCH   9  10
ENDBRANCH   6   9
ENDBRANCH   2   3
TORSDOF 7
ENDMDL
MODEL      215
REMARK 921   NORMALIZED FREE ENERGY PREDICTED BY IDOCK:   -4.01 KCAL/MOL
REMARK 922        TOTAL FREE ENERGY PREDICTED BY IDOCK:   -6.79 KCAL/MOL
REMARK 923 INTER-LIGAND FREE ENERGY PREDICTED BY IDOCK:   -6.06 KCAL/MOL
REMARK 924 INTRA-LIGAND FREE ENERGY PREDICTED BY IDOCK:   -0.73 KCAL/MOL
REMARK 927      BINDING AFFINITY PREDICTED BY RF-SCORE:    0.00 PKD
ROOT
HETATM    1  C   UNL     1      -8.127   7.071  64.033  1.00  0.00    -0.011 C  
HETATM    2  C   UNL     1      -7.276   6.003  64.705  1.00  0.00    -0.063 C  
ENDROOT
BRANCH   2   3
HETATM    3  C   UNL     1      -7.901   5.515  65.980  1.00  0.00    -0.104 A  
HETATM    4  C   UNL     1      -9.275   5.546  66.155  1.00  0.00    -0.158 A  
HETATM    5  N   UNL     1      -9.899   5.156  67.285  1.00  0.00    -0.155 NA 
HETATM    6  C   UNL     1      -9.143   4.694  68.315  1.00  0.00    -0.120 A  
HETATM    7  C   UNL     1      -7.757   4.635  68.232  1.00  0.00    -0.081 A  
HETATM    8  C   UNL     1      -7.135   5.051  67.051  1.00  0.00    -0.072 A  
BRANCH   6   9
HETATM    9  C   UNL     1      -9.876   4.278  69.576  1.00  0.00    -0.224 C  
BRANCH   9  10
HETATM   10  C   UNL     1     -10.374   5.524  70.307  1.00  0.00    -0.279 C  
BRANCH  10  11
HETATM   11  O   UNL     1      -9.418   6.590  70.363  1.00  0.00    -0.161 OA 
BRANCH  11  12
HETATM   12  C   UNL     1      -9.977   7.827  70.093  1.00  0.00    -0.186 A  
HETATM   13  C   UNL     1      -9.915   8.474  68.855  1.00  0.00    -0.197 A  
HETATM   14  C   UNL     1     -10.563   9.689  68.644  1.00  0.00    -0.246 A  
HETATM   15  C   UNL     1     -11.309  10.279  69.665  1.00  0.00    -0.315 A  
HETATM   16  C   UNL     1     -11.327   9.668  70.927  1.00  0.00    -0.431 A  
HETATM   17  C   UNL     1     -10.667   8.444  71.135  1.00  0.00    -0.280 A  
BRANCH  15  18
HETATM   18  C   UNL     1     -12.135  11.509  69.364  1.00  0.00    -0.345 C  
BRANCH  18  19
HETATM   19  C   UNL     1     -11.364  12.534  68.524  1.00  0.00    -0.297 C  
HETATM   20  S   UNL     1     -11.637  12.377  66.721  1.00  0.00    -0.367 SA 
HETATM   21  C   UNL     1     -11.957  14.076  66.531  1.00  0.00    -0.444 C  
HETATM   22  N   UNL     1     -12.130  14.655  67.740  1.00  0.00    -0.587 N  
HETATM   23  O   UNL     1     -11.983  14.651  65.458  1.00  0.00    -0.334 OA 
HETATM   24  C   UNL     1     -11.773  13.953  68.852  1.00  0.00    -0.337 C  
HETATM   25  H   UNL     1     -12.520  15.595  67.819  1.00  0.00     0.000 HD 
HETATM   26  O   UNL     1     -11.727  14.452  69.969  1.00  0.00    -0.269 OA 
ENDBRANCH  18  19
ENDBRANCH  15  18
ENDBRANCH  11  12
ENDBRANCH  10  11
ENDBRANCH   9  10
ENDBRANCH   6   9
ENDBRANCH   2   3
TORSDOF 7
ENDMDL
MODEL      216
REMARK 921   NORMALIZED FREE ENERGY PREDICTED BY IDOCK:   -4.01 KCAL/MOL
REMARK 922        TOTAL FREE ENERGY PREDICTED BY IDOCK:   -6.79 KCAL/MOL
REMARK 923 INTER-LIGAND FREE ENERGY PREDICTED BY IDOCK:   -6.27 KCAL/MOL
REMARK 924 INTRA-LIGAND FREE ENERGY PREDICTED BY IDOCK:   -0.52 KCAL/MOL
REMARK 927      BINDING AFFINITY PREDICTED BY RF-SCORE:    0.00 PKD
ROOT
HETATM    1  C   UNL     1     -11.068  16.633  68.153  1.00  0.00    -0.285 C  
HETATM    2  C   UNL     1     -11.180  15.273  68.826  1.00  0.00    -0.293 C  
ENDROOT
BRANCH   2   3
HETATM    3  C   UNL     1     -10.988  14.151  67.847  1.00  0.00    -0.264 A  
HETATM    4  C   UNL     1     -11.936  13.148  67.720  1.00  0.00    -0.307 A  
HETATM    5  N   UNL     1     -11.811  12.095  66.887  1.00  0.00    -0.601 NA 
HETATM    6  C   UNL     1     -10.697  12.009  66.116  1.00  0.00    -0.275 A  
HETATM    7  C   UNL     1      -9.689  12.962  66.184  1.00  0.00    -0.250 A  
HETATM    8  C   UNL     1      -9.841  14.042  67.059  1.00  0.00    -0.260 A  
BRANCH   6   9
HETATM    9  C   UNL     1     -10.581  10.803  65.203  1.00  0.00    -0.239 C  
BRANCH   9  10
HETATM   10  C   UNL     1      -9.461   9.893  65.703  1.00  0.00    -0.235 C  
BRANCH  10  11
HETATM   11  O   UNL     1      -8.806  10.369  66.886  1.00  0.00    -0.133 OA 
BRANCH  11  12
HETATM   12  C   UNL     1      -9.039   9.565  67.989  1.00  0.00    -0.123 A  
HETATM   13  C   UNL     1      -9.016   8.167  67.972  1.00  0.00    -0.134 A  
HETATM   14  C   UNL     1      -9.193   7.430  69.140  1.00  0.00    -0.147 A  
HETATM   15  C   UNL     1      -9.379   8.077  70.363  1.00  0.00    -0.158 A  
HETATM   16  C   UNL     1      -9.463   9.476  70.380  1.00  0.00    -0.317 A  
HETATM   17  C   UNL     1      -9.289  10.215  69.197  1.00  0.00    -0.205 A  
BRANCH  15  18
HETATM   18  C   UNL     1      -9.405   7.262  71.636  1.00  0.00    -0.160 C  
BRANCH  18  19
HETATM   19  C   UNL     1     -10.279   6.009  71.505  1.00  0.00    -0.204 C  
HETATM   20  S   UNL     1      -9.620   4.545  72.384  1.00  0.00    -0.152 SA 
HETATM   21  C   UNL     1     -11.144   4.208  73.151  1.00  0.00    -0.173 C  
HETATM   22  N   UNL     1     -11.985   5.255  72.996  1.00  0.00    -0.503 N  
HETATM   23  O   UNL     1     -11.410   3.161  73.713  1.00  0.00    -0.208 OA 
HETATM   24  C   UNL     1     -11.658   6.221  72.093  1.00  0.00    -0.319 C  
HETATM   25  H   UNL     1     -12.844   5.321  73.543  1.00  0.00     0.000 HD 
HETATM   26  O   UNL     1     -12.431   7.108  71.756  1.00  0.00    -0.328 OA 
ENDBRANCH  18  19
ENDBRANCH  15  18
ENDBRANCH  11  12
ENDBRANCH  10  11
ENDBRANCH   9  10
ENDBRANCH   6   9
ENDBRANCH   2   3
TORSDOF 7
ENDMDL
MODEL      217
REMARK 921   NORMALIZED FREE ENERGY PREDICTED BY IDOCK:   -4.00 KCAL/MOL
REMARK 922        TOTAL FREE ENERGY PREDICTED BY IDOCK:   -6.79 KCAL/MOL
REMARK 923 INTER-LIGAND FREE ENERGY PREDICTED BY IDOCK:   -6.50 KCAL/MOL
REMARK 924 INTRA-LIGAND FREE ENERGY PREDICTED BY IDOCK:   -0.29 KCAL/MOL
REMARK 927      BINDING AFFINITY PREDICTED BY RF-SCORE:    0.00 PKD
ROOT
HETATM    1  C   UNL     1     -10.703  19.807  65.916  1.00  0.00    -0.488 C  
HETATM    2  C   UNL     1      -9.498  20.056  66.811  1.00  0.00    -0.530 C  
ENDROOT
BRANCH   2   3
HETATM    3  C   UNL     1      -8.882  18.771  67.285  1.00  0.00    -0.287 A  
HETATM    4  C   UNL     1      -9.250  17.558  66.726  1.00  0.00    -0.265 A  
HETATM    5  N   UNL     1      -8.762  16.366  67.125  1.00  0.00    -0.180 NA 
HETATM    6  C   UNL     1      -7.848  16.345  68.129  1.00  0.00    -0.158 A  
HETATM    7  C   UNL     1      -7.427  17.512  68.755  1.00  0.00    -0.258 A  
HETATM    8  C   UNL     1      -7.951  18.734  68.325  1.00  0.00    -0.346 A  
BRANCH   6   9
HETATM    9  C   UNL     1      -7.332  14.986  68.565  1.00  0.00    -0.117 C  
BRANCH   9  10
HETATM   10  C   UNL     1      -7.876  13.913  67.624  1.00  0.00    -0.179 C  
BRANCH  10  11
HETATM   11  O   UNL     1      -7.276  12.623  67.798  1.00  0.00    -0.100 OA 
BRANCH  11  12
HETATM   12  C   UNL     1      -8.158  11.683  68.303  1.00  0.00    -0.150 A  
HETATM   13  C   UNL     1      -9.461  11.962  68.724  1.00  0.00    -0.002 A  
HETATM   14  C   UNL     1     -10.311  10.948  69.157  1.00  0.00    -0.228 A  
HETATM   15  C   UNL     1      -9.882   9.620  69.161  1.00  0.00    -0.189 A  
HETATM   16  C   UNL     1      -8.558   9.338  68.797  1.00  0.00    -0.131 A  
HETATM   17  C   UNL     1      -7.703  10.367  68.366  1.00  0.00    -0.098 A  
BRANCH  15  18
HETATM   18  C   UNL     1     -10.871   8.522  69.477  1.00  0.00    -0.134 C  
BRANCH  18  19
HETATM   19  C   UNL     1     -11.245   8.489  70.964  1.00  0.00    -0.268 C  
HETATM   20  S   UNL     1     -12.426   9.793  71.465  1.00  0.00    -0.431 SA 
HETATM   21  C   UNL     1     -13.459   8.665  72.294  1.00  0.00    -0.374 C  
HETATM   22  N   UNL     1     -13.110   7.398  71.979  1.00  0.00    -0.515 N  
HETATM   23  O   UNL     1     -14.341   8.988  73.069  1.00  0.00    -0.462 OA 
HETATM   24  C   UNL     1     -11.922   7.190  71.347  1.00  0.00    -0.328 C  
HETATM   25  H   UNL     1     -13.722   6.615  72.210  1.00  0.00     0.000 HD 
HETATM   26  O   UNL     1     -11.441   6.077  71.180  1.00  0.00    -0.279 OA 
ENDBRANCH  18  19
ENDBRANCH  15  18
ENDBRANCH  11  12
ENDBRANCH  10  11
ENDBRANCH   9  10
ENDBRANCH   6   9
ENDBRANCH   2   3
TORSDOF 7
ENDMDL
MODEL      218
REMARK 921   NORMALIZED FREE ENERGY PREDICTED BY IDOCK:   -4.00 KCAL/MOL
REMARK 922        TOTAL FREE ENERGY PREDICTED BY IDOCK:   -6.78 KCAL/MOL
REMARK 923 INTER-LIGAND FREE ENERGY PREDICTED BY IDOCK:   -6.16 KCAL/MOL
REMARK 924 INTRA-LIGAND FREE ENERGY PREDICTED BY IDOCK:   -0.62 KCAL/MOL
REMARK 927      BINDING AFFINITY PREDICTED BY RF-SCORE:    0.00 PKD
ROOT
HETATM    1  C   UNL     1     -13.208  10.275  71.952  1.00  0.00    -0.550 C  
HETATM    2  C   UNL     1     -12.984  11.767  71.751  1.00  0.00    -0.466 C  
ENDROOT
BRANCH   2   3
HETATM    3  C   UNL     1     -12.460  12.070  70.377  1.00  0.00    -0.235 A  
HETATM    4  C   UNL     1     -12.209  13.375  69.984  1.00  0.00    -0.298 A  
HETATM    5  N   UNL     1     -11.771  13.722  68.756  1.00  0.00    -0.333 NA 
HETATM    6  C   UNL     1     -11.552  12.737  67.847  1.00  0.00    -0.351 A  
HETATM    7  C   UNL     1     -11.786  11.401  68.149  1.00  0.00    -0.355 A  
HETATM    8  C   UNL     1     -12.244  11.070  69.427  1.00  0.00    -0.329 A  
BRANCH   6   9
HETATM    9  C   UNL     1     -11.075  13.163  66.471  1.00  0.00    -0.317 C  
BRANCH   9  10
HETATM   10  C   UNL     1     -10.552  11.942  65.716  1.00  0.00    -0.267 C  
BRANCH  10  11
HETATM   11  O   UNL     1      -9.257  11.500  66.143  1.00  0.00    -0.211 OA 
BRANCH  11  12
HETATM   12  C   UNL     1      -9.035  10.158  65.884  1.00  0.00    -0.157 A  
HETATM   13  C   UNL     1      -8.188   9.671  64.884  1.00  0.00    -0.143 A  
HETATM   14  C   UNL     1      -7.965   8.305  64.731  1.00  0.00    -0.146 A  
HETATM   15  C   UNL     1      -8.571   7.389  65.592  1.00  0.00    -0.128 A  
HETATM   16  C   UNL     1      -9.469   7.865  66.559  1.00  0.00    -0.277 A  
HETATM   17  C   UNL     1      -9.694   9.244  66.705  1.00  0.00    -0.281 A  
BRANCH  15  18
HETATM   18  C   UNL     1      -8.187   5.929  65.512  1.00  0.00    -0.137 C  
BRANCH  18  19
HETATM   19  C   UNL     1      -9.364   5.043  65.085  1.00  0.00    -0.051 C  
HETATM   20  S   UNL     1      -9.101   4.169  63.499  1.00  0.00    -0.134 SA 
HETATM   21  C   UNL     1      -9.592   2.637  64.159  1.00  0.00    -0.144 C  
HETATM   22  N   UNL     1      -9.666   2.712  65.507  1.00  0.00    -0.357 N  
HETATM   23  O   UNL     1      -9.861   1.657  63.487  1.00  0.00    -0.111 OA 
HETATM   24  C   UNL     1      -9.634   3.944  66.089  1.00  0.00    -0.183 C  
HETATM   25  H   UNL     1      -9.743   1.868  66.074  1.00  0.00     0.000 HD 
HETATM   26  O   UNL     1      -9.869   4.125  67.277  1.00  0.00    -0.196 OA 
ENDBRANCH  18  19
ENDBRANCH  15  18
ENDBRANCH  11  12
ENDBRANCH  10  11
ENDBRANCH   9  10
ENDBRANCH   6   9
ENDBRANCH   2   3
TORSDOF 7
ENDMDL
MODEL      219
REMARK 921   NORMALIZED FREE ENERGY PREDICTED BY IDOCK:   -4.00 KCAL/MOL
REMARK 922        TOTAL FREE ENERGY PREDICTED BY IDOCK:   -6.78 KCAL/MOL
REMARK 923 INTER-LIGAND FREE ENERGY PREDICTED BY IDOCK:   -6.13 KCAL/MOL
REMARK 924 INTRA-LIGAND FREE ENERGY PREDICTED BY IDOCK:   -0.65 KCAL/MOL
REMARK 927      BINDING AFFINITY PREDICTED BY RF-SCORE:    0.00 PKD
ROOT
HETATM    1  C   UNL     1     -13.093  13.413  70.946  1.00  0.00    -0.111 C  
HETATM    2  C   UNL     1     -13.333  12.447  72.097  1.00  0.00    -0.508 C  
ENDROOT
BRANCH   2   3
HETATM    3  C   UNL     1     -13.006  11.033  71.715  1.00  0.00    -0.544 A  
HETATM    4  C   UNL     1     -12.233  10.759  70.597  1.00  0.00    -0.379 A  
HETATM    5  N   UNL     1     -11.930   9.514  70.177  1.00  0.00    -0.004 NA 
HETATM    6  C   UNL     1     -12.398   8.459  70.893  1.00  0.00    -0.042 A  
HETATM    7  C   UNL     1     -13.188   8.637  72.021  1.00  0.00    -0.422 A  
HETATM    8  C   UNL     1     -13.492   9.938  72.432  1.00  0.00    -0.301 A  
BRANCH   6   9
HETATM    9  C   UNL     1     -12.051   7.072  70.384  1.00  0.00    -0.204 C  
BRANCH   9  10
HETATM   10  C   UNL     1     -10.621   6.725  70.794  1.00  0.00    -0.222 C  
BRANCH  10  11
HETATM   11  O   UNL     1      -9.712   6.597  69.694  1.00  0.00    -0.154 OA 
BRANCH  11  12
HETATM   12  C   UNL     1      -9.523   7.786  69.011  1.00  0.00    -0.150 A  
HETATM   13  C   UNL     1      -8.906   8.920  69.547  1.00  0.00    -0.144 A  
HETATM   14  C   UNL     1      -8.691  10.058  68.773  1.00  0.00    -0.136 A  
HETATM   15  C   UNL     1      -9.075  10.081  67.430  1.00  0.00    -0.146 A  
HETATM   16  C   UNL     1      -9.748   8.971  66.902  1.00  0.00    -0.260 A  
HETATM   17  C   UNL     1      -9.966   7.828  67.690  1.00  0.00    -0.230 A  
BRANCH  15  18
HETATM   18  C   UNL     1      -8.686  11.261  66.569  1.00  0.00    -0.178 C  
BRANCH  18  19
HETATM   19  C   UNL     1      -9.575  12.484  66.825  1.00  0.00    -0.231 C  
HETATM   20  S   UNL     1      -8.645  14.027  67.150  1.00  0.00    -0.177 SA 
HETATM   21  C   UNL     1      -9.582  14.939  66.003  1.00  0.00    -0.313 C  
HETATM   22  N   UNL     1     -10.324  14.105  65.240  1.00  0.00    -0.367 N  
HETATM   23  O   UNL     1      -9.584  16.154  65.935  1.00  0.00    -0.320 OA 
HETATM   24  C   UNL     1     -10.448  12.806  65.632  1.00  0.00    -0.278 C  
HETATM   25  H   UNL     1     -10.779  14.439  64.391  1.00  0.00     0.000 HD 
HETATM   26  O   UNL     1     -11.233  12.024  65.111  1.00  0.00    -0.311 OA 
ENDBRANCH  18  19
ENDBRANCH  15  18
ENDBRANCH  11  12
ENDBRANCH  10  11
ENDBRANCH   9  10
ENDBRANCH   6   9
ENDBRANCH   2   3
TORSDOF 7
ENDMDL
MODEL      220
REMARK 921   NORMALIZED FREE ENERGY PREDICTED BY IDOCK:   -3.99 KCAL/MOL
REMARK 922        TOTAL FREE ENERGY PREDICTED BY IDOCK:   -6.77 KCAL/MOL
REMARK 923 INTER-LIGAND FREE ENERGY PREDICTED BY IDOCK:   -6.14 KCAL/MOL
REMARK 924 INTRA-LIGAND FREE ENERGY PREDICTED BY IDOCK:   -0.63 KCAL/MOL
REMARK 927      BINDING AFFINITY PREDICTED BY RF-SCORE:    0.00 PKD
ROOT
HETATM    1  C   UNL     1     -12.616  15.510  73.450  1.00  0.00    -0.646 C  
HETATM    2  C   UNL     1     -13.568  15.095  72.337  1.00  0.00    -0.575 C  
ENDROOT
BRANCH   2   3
HETATM    3  C   UNL     1     -13.156  13.794  71.710  1.00  0.00    -0.463 A  
HETATM    4  C   UNL     1     -13.480  12.585  72.304  1.00  0.00    -0.386 A  
HETATM    5  N   UNL     1     -13.114  11.383  71.814  1.00  0.00    -0.471 NA 
HETATM    6  C   UNL     1     -12.392  11.346  70.664  1.00  0.00    -0.373 A  
HETATM    7  C   UNL     1     -12.013  12.509  70.005  1.00  0.00    -0.372 A  
HETATM    8  C   UNL     1     -12.401  13.742  70.537  1.00  0.00    -0.429 A  
BRANCH   6   9
HETATM    9  C   UNL     1     -11.983   9.978  70.150  1.00  0.00    -0.204 C  
BRANCH   9  10
HETATM   10  C   UNL     1     -10.459   9.879  70.132  1.00  0.00    -0.285 C  
BRANCH  10  11
HETATM   11  O   UNL     1      -9.908   9.561  68.847  1.00  0.00    -0.165 OA 
BRANCH  11  12
HETATM   12  C   UNL     1      -9.206  10.614  68.288  1.00  0.00    -0.153 A  
HETATM   13  C   UNL     1      -9.730  11.513  67.354  1.00  0.00    -0.191 A  
HETATM   14  C   UNL     1      -8.979  12.589  66.889  1.00  0.00    -0.212 A  
HETATM   15  C   UNL     1      -7.684  12.806  67.365  1.00  0.00    -0.165 A  
HETATM   16  C   UNL     1      -7.129  11.877  68.256  1.00  0.00    -0.081 A  
HETATM   17  C   UNL     1      -7.891  10.789  68.717  1.00  0.00    -0.129 A  
BRANCH  15  18
HETATM   18  C   UNL     1      -6.951  14.068  66.972  1.00  0.00     0.657 C  
BRANCH  18  19
HETATM   19  C   UNL     1      -7.536  15.313  67.651  1.00  0.00    -0.172 C  
HETATM   20  S   UNL     1      -8.990  16.017  66.790  1.00  0.00    -0.273 SA 
HETATM   21  C   UNL     1      -9.924  16.110  68.255  1.00  0.00    -0.226 C  
HETATM   22  N   UNL     1      -9.315  15.412  69.240  1.00  0.00    -0.241 N  
HETATM   23  O   UNL     1     -10.957  16.744  68.368  1.00  0.00    -0.355 OA 
HETATM   24  C   UNL     1      -8.026  15.014  69.051  1.00  0.00    -0.180 C  
HETATM   25  H   UNL     1      -9.809  15.188  70.104  1.00  0.00     0.000 HD 
HETATM   26  O   UNL     1      -7.338  14.536  69.943  1.00  0.00    -0.047 OA 
ENDBRANCH  18  19
ENDBRANCH  15  18
ENDBRANCH  11  12
ENDBRANCH  10  11
ENDBRANCH   9  10
ENDBRANCH   6   9
ENDBRANCH   2   3
TORSDOF 7
ENDMDL
MODEL      221
REMARK 921   NORMALIZED FREE ENERGY PREDICTED BY IDOCK:   -3.99 KCAL/MOL
REMARK 922        TOTAL FREE ENERGY PREDICTED BY IDOCK:   -6.77 KCAL/MOL
REMARK 923 INTER-LIGAND FREE ENERGY PREDICTED BY IDOCK:   -5.90 KCAL/MOL
REMARK 924 INTRA-LIGAND FREE ENERGY PREDICTED BY IDOCK:   -0.87 KCAL/MOL
REMARK 927      BINDING AFFINITY PREDICTED BY RF-SCORE:    0.00 PKD
ROOT
HETATM    1  C   UNL     1     -11.828  14.218  64.943  1.00  0.00    -0.414 C  
HETATM    2  C   UNL     1     -12.111  12.732  65.112  1.00  0.00    -0.498 C  
ENDROOT
BRANCH   2   3
HETATM    3  C   UNL     1     -10.873  11.905  64.915  1.00  0.00    -0.356 A  
HETATM    4  C   UNL     1     -10.529  11.428  63.660  1.00  0.00    -0.414 A  
HETATM    5  N   UNL     1      -9.452  10.652  63.419  1.00  0.00    -0.288 NA 
HETATM    6  C   UNL     1      -8.646  10.322  64.461  1.00  0.00    -0.186 A  
HETATM    7  C   UNL     1      -8.919  10.747  65.755  1.00  0.00    -0.203 A  
HETATM    8  C   UNL     1     -10.043  11.546  65.979  1.00  0.00    -0.270 A  
BRANCH   6   9
HETATM    9  C   UNL     1      -7.453   9.436  64.157  1.00  0.00    -0.113 C  
BRANCH   9  10
HETATM   10  C   UNL     1      -7.876   7.970  64.241  1.00  0.00    -0.137 C  
BRANCH  10  11
HETATM   11  O   UNL     1      -7.381   7.284  65.398  1.00  0.00    -0.073 OA 
BRANCH  11  12
HETATM   12  C   UNL     1      -8.363   7.050  66.345  1.00  0.00    -0.125 A  
HETATM   13  C   UNL     1      -9.333   6.048  66.254  1.00  0.00    -0.165 A  
HETATM   14  C   UNL     1     -10.246   5.833  67.283  1.00  0.00    -0.248 A  
HETATM   15  C   UNL     1     -10.198   6.607  68.444  1.00  0.00    -0.188 A  
HETATM   16  C   UNL     1      -9.268   7.654  68.519  1.00  0.00    -0.143 A  
HETATM   17  C   UNL     1      -8.353   7.869  67.474  1.00  0.00    -0.124 A  
BRANCH  15  18
HETATM   18  C   UNL     1     -11.089   6.249  69.611  1.00  0.00    -0.479 C  
BRANCH  18  19
HETATM   19  C   UNL     1     -10.287   5.970  70.888  1.00  0.00    -0.222 C  
HETATM   20  S   UNL     1     -11.219   6.271  72.435  1.00  0.00    -0.291 SA 
HETATM   21  C   UNL     1     -10.769   4.734  73.111  1.00  0.00    -0.243 C  
HETATM   22  N   UNL     1     -10.219   3.949  72.158  1.00  0.00    -0.161 N  
HETATM   23  O   UNL     1     -10.906   4.437  74.284  1.00  0.00    -0.250 OA 
HETATM   24  C   UNL     1      -9.856   4.522  70.976  1.00  0.00    -0.196 C  
HETATM   25  H   UNL     1     -10.078   2.951  72.319  1.00  0.00     0.000 HD 
HETATM   26  O   UNL     1      -9.195   3.938  70.127  1.00  0.00    -0.114 OA 
ENDBRANCH  18  19
ENDBRANCH  15  18
ENDBRANCH  11  12
ENDBRANCH  10  11
ENDBRANCH   9  10
ENDBRANCH   6   9
ENDBRANCH   2   3
TORSDOF 7
ENDMDL
MODEL      222
REMARK 921   NORMALIZED FREE ENERGY PREDICTED BY IDOCK:   -3.99 KCAL/MOL
REMARK 922        TOTAL FREE ENERGY PREDICTED BY IDOCK:   -6.77 KCAL/MOL
REMARK 923 INTER-LIGAND FREE ENERGY PREDICTED BY IDOCK:   -5.89 KCAL/MOL
REMARK 924 INTRA-LIGAND FREE ENERGY PREDICTED BY IDOCK:   -0.88 KCAL/MOL
REMARK 927      BINDING AFFINITY PREDICTED BY RF-SCORE:    0.00 PKD
ROOT
HETATM    1  C   UNL     1      -6.500   8.853  65.730  1.00  0.00    -0.060 C  
HETATM    2  C   UNL     1      -7.524   9.448  64.775  1.00  0.00    -0.107 C  
ENDROOT
BRANCH   2   3
HETATM    3  C   UNL     1      -8.419  10.437  65.465  1.00  0.00    -0.171 A  
HETATM    4  C   UNL     1      -7.975  11.149  66.567  1.00  0.00    -0.158 A  
HETATM    5  N   UNL     1      -8.735  12.026  67.254  1.00  0.00    -0.167 NA 
HETATM    6  C   UNL     1     -10.012  12.237  66.841  1.00  0.00    -0.213 A  
HETATM    7  C   UNL     1     -10.545  11.561  65.751  1.00  0.00    -0.315 A  
HETATM    8  C   UNL     1      -9.737  10.654  65.059  1.00  0.00    -0.336 A  
BRANCH   6   9
HETATM    9  C   UNL     1     -10.844  13.218  67.645  1.00  0.00    -0.273 C  
BRANCH   9  10
HETATM   10  C   UNL     1     -11.182  12.602  69.001  1.00  0.00    -0.269 C  
BRANCH  10  11
HETATM   11  O   UNL     1     -11.891  11.359  68.919  1.00  0.00    -0.316 OA 
BRANCH  11  12
HETATM   12  C   UNL     1     -11.585  10.497  69.958  1.00  0.00    -0.313 A  
HETATM   13  C   UNL     1     -12.475  10.124  70.969  1.00  0.00    -0.474 A  
HETATM   14  C   UNL     1     -12.112   9.197  71.943  1.00  0.00    -0.448 A  
HETATM   15  C   UNL     1     -10.850   8.601  71.916  1.00  0.00    -0.419 A  
HETATM   16  C   UNL     1      -9.930   9.013  70.941  1.00  0.00    -0.326 A  
HETATM   17  C   UNL     1     -10.301   9.954  69.964  1.00  0.00    -0.320 A  
BRANCH  15  18
HETATM   18  C   UNL     1     -10.538   7.481  72.881  1.00  0.00    -0.390 C  
BRANCH  18  19
HETATM   19  C   UNL     1      -9.250   6.737  72.509  1.00  0.00    -0.136 C  
HETATM   20  S   UNL     1      -7.800   7.200  73.526  1.00  0.00    -0.098 SA 
HETATM   21  C   UNL     1      -7.381   5.542  73.844  1.00  0.00    -0.087 C  
HETATM   22  N   UNL     1      -8.392   4.726  73.470  1.00  0.00    -0.106 N  
HETATM   23  O   UNL     1      -6.313   5.183  74.306  1.00  0.00    -0.060 OA 
HETATM   24  C   UNL     1      -9.389   5.241  72.696  1.00  0.00    -0.137 C  
HETATM   25  H   UNL     1      -8.410   3.748  73.761  1.00  0.00     0.000 HD 
HETATM   26  O   UNL     1     -10.246   4.548  72.166  1.00  0.00    -0.188 OA 
ENDBRANCH  18  19
ENDBRANCH  15  18
ENDBRANCH  11  12
ENDBRANCH  10  11
ENDBRANCH   9  10
ENDBRANCH   6   9
ENDBRANCH   2   3
TORSDOF 7
ENDMDL
MODEL      223
REMARK 921   NORMALIZED FREE ENERGY PREDICTED BY IDOCK:   -3.99 KCAL/MOL
REMARK 922        TOTAL FREE ENERGY PREDICTED BY IDOCK:   -6.76 KCAL/MOL
REMARK 923 INTER-LIGAND FREE ENERGY PREDICTED BY IDOCK:   -6.44 KCAL/MOL
REMARK 924 INTRA-LIGAND FREE ENERGY PREDICTED BY IDOCK:   -0.32 KCAL/MOL
REMARK 927      BINDING AFFINITY PREDICTED BY RF-SCORE:    0.00 PKD
ROOT
HETATM    1  C   UNL     1      -8.154   3.320  65.897  1.00  0.00    -0.093 C  
HETATM    2  C   UNL     1      -9.610   3.756  65.967  1.00  0.00    -0.168 C  
ENDROOT
BRANCH   2   3
HETATM    3  C   UNL     1      -9.914   4.478  67.247  1.00  0.00    -0.187 A  
HETATM    4  C   UNL     1      -9.522   3.955  68.469  1.00  0.00    -0.148 A  
HETATM    5  N   UNL     1      -9.792   4.532  69.658  1.00  0.00    -0.218 NA 
HETATM    6  C   UNL     1     -10.480   5.703  69.666  1.00  0.00    -0.304 A  
HETATM    7  C   UNL     1     -10.922   6.297  68.490  1.00  0.00    -0.421 A  
HETATM    8  C   UNL     1     -10.633   5.675  67.272  1.00  0.00    -0.328 A  
BRANCH   6   9
HETATM    9  C   UNL     1     -10.780   6.317  71.021  1.00  0.00    -0.313 C  
BRANCH   9  10
HETATM   10  C   UNL     1     -11.237   7.762  70.831  1.00  0.00    -0.271 C  
BRANCH  10  11
HETATM   11  O   UNL     1     -10.164   8.706  70.716  1.00  0.00    -0.190 OA 
BRANCH  11  12
HETATM   12  C   UNL     1     -10.413   9.690  69.775  1.00  0.00    -0.238 A  
HETATM   13  C   UNL     1     -11.671   9.973  69.235  1.00  0.00     0.028 A  
HETATM   14  C   UNL     1     -11.852  11.026  68.342  1.00  0.00    -0.254 A  
HETATM   15  C   UNL     1     -10.776  11.840  67.982  1.00  0.00    -0.244 A  
HETATM   16  C   UNL     1      -9.500  11.527  68.472  1.00  0.00    -0.175 A  
HETATM   17  C   UNL     1      -9.323  10.458  69.369  1.00  0.00    -0.186 A  
BRANCH  15  18
HETATM   18  C   UNL     1     -11.026  13.072  67.144  1.00  0.00    -0.293 C  
BRANCH  18  19
HETATM   19  C   UNL     1     -10.239  13.048  65.828  1.00  0.00    -0.290 C  
HETATM   20  S   UNL     1      -9.574  11.401  65.387  1.00  0.00    -0.220 SA 
HETATM   21  C   UNL     1     -10.186  11.489  63.762  1.00  0.00    -0.382 C  
HETATM   22  N   UNL     1     -11.054  12.519  63.647  1.00  0.00    -0.448 N  
HETATM   23  O   UNL     1      -9.846  10.743  62.862  1.00  0.00    -0.316 OA 
HETATM   24  C   UNL     1     -11.101  13.442  64.649  1.00  0.00    -0.366 C  
HETATM   25  H   UNL     1     -11.659  12.605  62.830  1.00  0.00     0.000 HD 
HETATM   26  O   UNL     1     -11.719  14.494  64.557  1.00  0.00    -0.411 OA 
ENDBRANCH  18  19
ENDBRANCH  15  18
ENDBRANCH  11  12
ENDBRANCH  10  11
ENDBRANCH   9  10
ENDBRANCH   6   9
ENDBRANCH   2   3
TORSDOF 7
ENDMDL
MODEL      224
REMARK 921   NORMALIZED FREE ENERGY PREDICTED BY IDOCK:   -3.96 KCAL/MOL
REMARK 922        TOTAL FREE ENERGY PREDICTED BY IDOCK:   -6.72 KCAL/MOL
REMARK 923 INTER-LIGAND FREE ENERGY PREDICTED BY IDOCK:   -5.63 KCAL/MOL
REMARK 924 INTRA-LIGAND FREE ENERGY PREDICTED BY IDOCK:   -1.09 KCAL/MOL
REMARK 927      BINDING AFFINITY PREDICTED BY RF-SCORE:    0.00 PKD
ROOT
HETATM    1  C   UNL     1      -5.779  10.731  65.868  1.00  0.00    -0.145 C  
HETATM    2  C   UNL     1      -5.528  10.353  67.321  1.00  0.00    -0.041 C  
ENDROOT
BRANCH   2   3
HETATM    3  C   UNL     1      -5.600  11.548  68.227  1.00  0.00    -0.045 A  
HETATM    4  C   UNL     1      -5.460  12.831  67.723  1.00  0.00    -0.124 A  
HETATM    5  N   UNL     1      -5.480  13.945  68.484  1.00  0.00    -0.088 NA 
HETATM    6  C   UNL     1      -5.656  13.810  69.824  1.00  0.00    -0.101 A  
HETATM    7  C   UNL     1      -5.795  12.562  70.418  1.00  0.00    -0.150 A  
HETATM    8  C   UNL     1      -5.766  11.423  69.608  1.00  0.00    -0.074 A  
BRANCH   6   9
HETATM    9  C   UNL     1      -5.657  15.082  70.651  1.00  0.00    -0.134 C  
BRANCH   9  10
HETATM   10  C   UNL     1      -5.506  16.288  69.726  1.00  0.00    -0.148 C  
BRANCH  10  11
HETATM   11  O   UNL     1      -6.649  17.153  69.700  1.00  0.00    -0.227 OA 
BRANCH  11  12
HETATM   12  C   UNL     1      -7.477  16.916  68.616  1.00  0.00    -0.226 A  
HETATM   13  C   UNL     1      -7.069  16.958  67.280  1.00  0.00    -0.197 A  
HETATM   14  C   UNL     1      -7.948  16.640  66.248  1.00  0.00    -0.340 A  
HETATM   15  C   UNL     1      -9.258  16.251  66.530  1.00  0.00    -0.299 A  
HETATM   16  C   UNL     1      -9.693  16.263  67.863  1.00  0.00    -0.233 A  
HETATM   17  C   UNL     1      -8.802  16.590  68.900  1.00  0.00    -0.244 A  
BRANCH  15  18
HETATM   18  C   UNL     1     -10.142  15.754  65.409  1.00  0.00    -0.337 C  
BRANCH  18  19
HETATM   19  C   UNL     1     -11.070  14.620  65.862  1.00  0.00    -0.338 C  
HETATM   20  S   UNL     1     -12.598  14.465  64.865  1.00  0.00    -0.162 SA 
HETATM   21  C   UNL     1     -12.391  12.751  64.653  1.00  0.00    -0.459 C  
HETATM   22  N   UNL     1     -11.151  12.380  65.040  1.00  0.00    -0.295 N  
HETATM   23  O   UNL     1     -13.262  12.003  64.245  1.00  0.00    -0.710 OA 
HETATM   24  C   UNL     1     -10.402  13.267  65.754  1.00  0.00    -0.288 C  
HETATM   25  H   UNL     1     -10.783  11.458  64.805  1.00  0.00     0.000 HD 
HETATM   26  O   UNL     1      -9.347  12.965  66.296  1.00  0.00    -0.226 OA 
ENDBRANCH  18  19
ENDBRANCH  15  18
ENDBRANCH  11  12
ENDBRANCH  10  11
ENDBRANCH   9  10
ENDBRANCH   6   9
ENDBRANCH   2   3
TORSDOF 7
ENDMDL
MODEL      225
REMARK 921   NORMALIZED FREE ENERGY PREDICTED BY IDOCK:   -3.96 KCAL/MOL
REMARK 922        TOTAL FREE ENERGY PREDICTED BY IDOCK:   -6.72 KCAL/MOL
REMARK 923 INTER-LIGAND FREE ENERGY PREDICTED BY IDOCK:   -5.63 KCAL/MOL
REMARK 924 INTRA-LIGAND FREE ENERGY PREDICTED BY IDOCK:   -1.09 KCAL/MOL
REMARK 927      BINDING AFFINITY PREDICTED BY RF-SCORE:    0.00 PKD
ROOT
HETATM    1  C   UNL     1     -13.147  10.633  71.937  1.00  0.00    -0.563 C  
HETATM    2  C   UNL     1     -13.104  12.153  71.989  1.00  0.00    -0.462 C  
ENDROOT
BRANCH   2   3
HETATM    3  C   UNL     1     -12.621  12.741  70.694  1.00  0.00    -0.248 A  
HETATM    4  C   UNL     1     -12.490  14.112  70.541  1.00  0.00    -0.361 A  
HETATM    5  N   UNL     1     -12.095  14.707  69.397  1.00  0.00    -0.300 NA 
HETATM    6  C   UNL     1     -11.797  13.923  68.329  1.00  0.00    -0.376 A  
HETATM    7  C   UNL     1     -11.909  12.539  68.388  1.00  0.00    -0.353 A  
HETATM    8  C   UNL     1     -12.325  11.947  69.584  1.00  0.00    -0.109 A  
BRANCH   6   9
HETATM    9  C   UNL     1     -11.372  14.626  67.054  1.00  0.00    -0.362 C  
BRANCH   9  10
HETATM   10  C   UNL     1     -11.225  13.598  65.934  1.00  0.00    -0.304 C  
BRANCH  10  11
HETATM   11  O   UNL     1      -9.867  13.274  65.611  1.00  0.00    -0.248 OA 
BRANCH  11  12
HETATM   12  C   UNL     1      -9.479  12.038  66.099  1.00  0.00    -0.232 A  
HETATM   13  C   UNL     1      -8.456  11.837  67.030  1.00  0.00    -0.175 A  
HETATM   14  C   UNL     1      -8.171  10.567  67.524  1.00  0.00    -0.114 A  
HETATM   15  C   UNL     1      -8.920   9.463  67.111  1.00  0.00    -0.144 A  
HETATM   16  C   UNL     1      -9.907   9.646  66.132  1.00  0.00    -0.334 A  
HETATM   17  C   UNL     1     -10.186  10.931  65.634  1.00  0.00    -0.323 A  
BRANCH  15  18
HETATM   18  C   UNL     1      -8.701   8.126  67.781  1.00  0.00    -0.130 C  
BRANCH  18  19
HETATM   19  C   UNL     1      -7.485   7.385  67.212  1.00  0.00    -0.103 C  
HETATM   20  S   UNL     1      -6.224   6.950  68.466  1.00  0.00    -0.032 SA 
HETATM   21  C   UNL     1      -6.123   5.301  67.922  1.00  0.00    -0.023 C  
HETATM   22  N   UNL     1      -7.143   5.025  67.078  1.00  0.00    -0.071 N  
HETATM   23  O   UNL     1      -5.235   4.530  68.239  1.00  0.00    -0.006 OA 
HETATM   24  C   UNL     1      -7.874   6.064  66.584  1.00  0.00    -0.101 C  
HETATM   25  H   UNL     1      -7.360   4.063  66.818  1.00  0.00     0.000 HD 
HETATM   26  O   UNL     1      -8.695   5.933  65.686  1.00  0.00    -0.152 OA 
ENDBRANCH  18  19
ENDBRANCH  15  18
ENDBRANCH  11  12
ENDBRANCH  10  11
ENDBRANCH   9  10
ENDBRANCH   6   9
ENDBRANCH   2   3
TORSDOF 7
ENDMDL
MODEL      226
REMARK 921   NORMALIZED FREE ENERGY PREDICTED BY IDOCK:   -3.93 KCAL/MOL
REMARK 922        TOTAL FREE ENERGY PREDICTED BY IDOCK:   -6.69 KCAL/MOL
REMARK 923 INTER-LIGAND FREE ENERGY PREDICTED BY IDOCK:   -6.03 KCAL/MOL
REMARK 924 INTRA-LIGAND FREE ENERGY PREDICTED BY IDOCK:   -0.66 KCAL/MOL
REMARK 927      BINDING AFFINITY PREDICTED BY RF-SCORE:    0.00 PKD
ROOT
HETATM    1  C   UNL     1      -7.731   2.600  73.340  1.00  0.00    -0.051 C  
HETATM    2  C   UNL     1      -8.766   3.398  74.119  1.00  0.00    -0.087 C  
ENDROOT
BRANCH   2   3
HETATM    3  C   UNL     1      -9.593   4.267  73.215  1.00  0.00    -0.139 A  
HETATM    4  C   UNL     1      -9.537   4.118  71.839  1.00  0.00    -0.152 A  
HETATM    5  N   UNL     1     -10.226   4.885  70.969  1.00  0.00    -0.213 NA 
HETATM    6  C   UNL     1     -11.033   5.859  71.465  1.00  0.00    -0.262 A  
HETATM    7  C   UNL     1     -11.144   6.087  72.831  1.00  0.00    -0.290 A  
HETATM    8  C   UNL     1     -10.416   5.281  73.710  1.00  0.00    -0.304 A  
BRANCH   6   9
HETATM    9  C   UNL     1     -11.780   6.714  70.459  1.00  0.00    -0.453 C  
BRANCH   9  10
HETATM   10  C   UNL     1     -10.783   7.340  69.486  1.00  0.00    -0.232 C  
BRANCH  10  11
HETATM   11  O   UNL     1     -10.076   8.468  70.019  1.00  0.00    -0.186 OA 
BRANCH  11  12
HETATM   12  C   UNL     1      -9.983   9.517  69.120  1.00  0.00    -0.183 A  
HETATM   13  C   UNL     1     -11.033   9.973  68.319  1.00  0.00    -0.278 A  
HETATM   14  C   UNL     1     -10.878  11.080  67.488  1.00  0.00    -0.314 A  
HETATM   15  C   UNL     1      -9.667  11.773  67.453  1.00  0.00    -0.186 A  
HETATM   16  C   UNL     1      -8.590  11.286  68.208  1.00  0.00    -0.153 A  
HETATM   17  C   UNL     1      -8.751  10.165  69.040  1.00  0.00    -0.161 A  
BRANCH  15  18
HETATM   18  C   UNL     1      -9.573  13.063  66.671  1.00  0.00    -0.259 C  
BRANCH  18  19
HETATM   19  C   UNL     1     -10.631  14.084  67.109  1.00  0.00    -0.274 C  
HETATM   20  S   UNL     1     -10.448  14.652  68.839  1.00  0.00    -0.249 SA 
HETATM   21  C   UNL     1     -10.577  16.329  68.397  1.00  0.00    -0.301 C  
HETATM   22  N   UNL     1     -10.473  16.466  67.056  1.00  0.00    -0.301 N  
HETATM   23  O   UNL     1     -10.767  17.232  69.191  1.00  0.00    -0.284 OA 
HETATM   24  C   UNL     1     -10.569  15.349  66.281  1.00  0.00    -0.308 C  
HETATM   25  H   UNL     1     -10.327  17.383  66.634  1.00  0.00     0.000 HD 
HETATM   26  O   UNL     1     -10.664  15.390  65.061  1.00  0.00    -0.405 OA 
ENDBRANCH  18  19
ENDBRANCH  15  18
ENDBRANCH  11  12
ENDBRANCH  10  11
ENDBRANCH   9  10
ENDBRANCH   6   9
ENDBRANCH   2   3
TORSDOF 7
ENDMDL
MODEL      227
REMARK 921   NORMALIZED FREE ENERGY PREDICTED BY IDOCK:   -3.93 KCAL/MOL
REMARK 922        TOTAL FREE ENERGY PREDICTED BY IDOCK:   -6.68 KCAL/MOL
REMARK 923 INTER-LIGAND FREE ENERGY PREDICTED BY IDOCK:   -5.96 KCAL/MOL
REMARK 924 INTRA-LIGAND FREE ENERGY PREDICTED BY IDOCK:   -0.72 KCAL/MOL
REMARK 927      BINDING AFFINITY PREDICTED BY RF-SCORE:    0.00 PKD
ROOT
HETATM    1  C   UNL     1      -5.648  18.776  69.952  1.00  0.00    -0.245 C  
HETATM    2  C   UNL     1      -5.924  17.283  69.849  1.00  0.00    -0.230 C  
ENDROOT
BRANCH   2   3
HETATM    3  C   UNL     1      -7.176  17.002  69.069  1.00  0.00    -0.229 A  
HETATM    4  C   UNL     1      -7.790  15.762  69.135  1.00  0.00    -0.227 A  
HETATM    5  N   UNL     1      -8.896  15.431  68.436  1.00  0.00    -0.171 NA 
HETATM    6  C   UNL     1      -9.452  16.367  67.624  1.00  0.00    -0.225 A  
HETATM    7  C   UNL     1      -8.899  17.634  67.488  1.00  0.00    -0.231 A  
HETATM    8  C   UNL     1      -7.751  17.950  68.220  1.00  0.00    -0.279 A  
BRANCH   6   9
HETATM    9  C   UNL     1     -10.685  15.956  66.841  1.00  0.00    -0.289 C  
BRANCH   9  10
HETATM   10  C   UNL     1     -10.292  14.927  65.782  1.00  0.00    -0.332 C  
BRANCH  10  11
HETATM   11  O   UNL     1     -11.315  13.964  65.495  1.00  0.00    -0.302 OA 
BRANCH  11  12
HETATM   12  C   UNL     1     -11.068  12.730  66.070  1.00  0.00    -0.285 A  
HETATM   13  C   UNL     1     -11.608  12.297  67.285  1.00  0.00    -0.427 A  
HETATM   14  C   UNL     1     -11.366  11.012  67.764  1.00  0.00    -0.365 A  
HETATM   15  C   UNL     1     -10.588  10.118  67.026  1.00  0.00    -0.290 A  
HETATM   16  C   UNL     1      -9.994  10.563  65.837  1.00  0.00    -0.313 A  
HETATM   17  C   UNL     1     -10.238  11.863  65.361  1.00  0.00    -0.300 A  
BRANCH  15  18
HETATM   18  C   UNL     1     -10.474   8.681  67.484  1.00  0.00    -0.335 C  
BRANCH  18  19
HETATM   19  C   UNL     1      -9.124   8.391  68.150  1.00  0.00    -0.138 C  
HETATM   20  S   UNL     1      -9.080   8.761  69.942  1.00  0.00    -0.163 SA 
HETATM   21  C   UNL     1      -8.381   7.218  70.335  1.00  0.00    -0.130 C  
HETATM   22  N   UNL     1      -8.444   6.393  69.266  1.00  0.00    -0.125 N  
HETATM   23  O   UNL     1      -7.881   6.949  71.412  1.00  0.00    -0.098 OA 
HETATM   24  C   UNL     1      -8.751   6.927  68.051  1.00  0.00    -0.125 C  
HETATM   25  H   UNL     1      -8.267   5.393  69.367  1.00  0.00     0.000 HD 
HETATM   26  O   UNL     1      -8.660   6.300  67.005  1.00  0.00    -0.105 OA 
ENDBRANCH  18  19
ENDBRANCH  15  18
ENDBRANCH  11  12
ENDBRANCH  10  11
ENDBRANCH   9  10
ENDBRANCH   6   9
ENDBRANCH   2   3
TORSDOF 7
ENDMDL
MODEL      228
REMARK 921   NORMALIZED FREE ENERGY PREDICTED BY IDOCK:   -3.92 KCAL/MOL
REMARK 922        TOTAL FREE ENERGY PREDICTED BY IDOCK:   -6.67 KCAL/MOL
REMARK 923 INTER-LIGAND FREE ENERGY PREDICTED BY IDOCK:   -5.86 KCAL/MOL
REMARK 924 INTRA-LIGAND FREE ENERGY PREDICTED BY IDOCK:   -0.81 KCAL/MOL
REMARK 927      BINDING AFFINITY PREDICTED BY RF-SCORE:    0.00 PKD
ROOT
HETATM    1  C   UNL     1      -8.359   7.065  63.295  1.00  0.00     0.195 C  
HETATM    2  C   UNL     1      -7.447   6.262  64.210  1.00  0.00    -0.086 C  
ENDROOT
BRANCH   2   3
HETATM    3  C   UNL     1      -8.034   6.107  65.584  1.00  0.00    -0.114 A  
HETATM    4  C   UNL     1      -9.407   6.088  65.772  1.00  0.00     0.041 A  
HETATM    5  N   UNL     1     -10.000   5.986  66.979  1.00  0.00    -0.149 NA 
HETATM    6  C   UNL     1      -9.212   5.886  68.080  1.00  0.00    -0.116 A  
HETATM    7  C   UNL     1      -7.826   5.906  67.988  1.00  0.00    -0.104 A  
HETATM    8  C   UNL     1      -7.236   6.018  66.726  1.00  0.00    -0.071 A  
BRANCH   6   9
HETATM    9  C   UNL     1      -9.912   5.790  69.423  1.00  0.00    -0.244 C  
BRANCH   9  10
HETATM   10  C   UNL     1     -10.582   7.125  69.743  1.00  0.00    -0.234 C  
BRANCH  10  11
HETATM   11  O   UNL     1      -9.688   8.245  69.733  1.00  0.00    -0.177 OA 
BRANCH  11  12
HETATM   12  C   UNL     1     -10.183   9.321  69.017  1.00  0.00    -0.206 A  
HETATM   13  C   UNL     1     -10.200   9.408  67.622  1.00  0.00    -0.281 A  
HETATM   14  C   UNL     1     -10.779  10.496  66.974  1.00  0.00    -0.310 A  
HETATM   15  C   UNL     1     -11.375  11.521  67.711  1.00  0.00    -0.364 A  
HETATM   16  C   UNL     1     -11.310  11.472  69.110  1.00  0.00    -0.351 A  
HETATM   17  C   UNL     1     -10.720  10.373  69.758  1.00  0.00    -0.325 A  
BRANCH  15  18
HETATM   18  C   UNL     1     -12.139  12.607  66.987  1.00  0.00    -0.202 C  
BRANCH  18  19
HETATM   19  C   UNL     1     -11.332  13.211  65.831  1.00  0.00    -0.311 C  
HETATM   20  S   UNL     1     -12.313  14.279  64.715  1.00  0.00    -0.382 SA 
HETATM   21  C   UNL     1     -11.144  15.566  64.772  1.00  0.00    -0.407 C  
HETATM   22  N   UNL     1     -10.249  15.338  65.759  1.00  0.00    -0.321 N  
HETATM   23  O   UNL     1     -11.129  16.510  64.004  1.00  0.00    -0.829 OA 
HETATM   24  C   UNL     1     -10.214  14.101  66.330  1.00  0.00    -0.295 C  
HETATM   25  H   UNL     1      -9.615  16.074  66.071  1.00  0.00     0.000 HD 
HETATM   26  O   UNL     1      -9.331  13.746  67.099  1.00  0.00    -0.222 OA 
ENDBRANCH  18  19
ENDBRANCH  15  18
ENDBRANCH  11  12
ENDBRANCH  10  11
ENDBRANCH   9  10
ENDBRANCH   6   9
ENDBRANCH   2   3
TORSDOF 7
ENDMDL
MODEL      229
REMARK 921   NORMALIZED FREE ENERGY PREDICTED BY IDOCK:   -3.91 KCAL/MOL
REMARK 922        TOTAL FREE ENERGY PREDICTED BY IDOCK:   -6.66 KCAL/MOL
REMARK 923 INTER-LIGAND FREE ENERGY PREDICTED BY IDOCK:   -6.00 KCAL/MOL
REMARK 924 INTRA-LIGAND FREE ENERGY PREDICTED BY IDOCK:   -0.65 KCAL/MOL
REMARK 927      BINDING AFFINITY PREDICTED BY RF-SCORE:    0.00 PKD
ROOT
HETATM    1  C   UNL     1      -9.238   2.813  62.810  1.00  0.00    -0.087 C  
HETATM    2  C   UNL     1      -8.334   3.883  63.407  1.00  0.00    -0.091 C  
ENDROOT
BRANCH   2   3
HETATM    3  C   UNL     1      -8.520   4.003  64.892  1.00  0.00    -0.113 A  
HETATM    4  C   UNL     1      -9.167   3.010  65.610  1.00  0.00    -0.129 A  
HETATM    5  N   UNL     1      -9.397   3.069  66.937  1.00  0.00    -0.148 NA 
HETATM    6  C   UNL     1      -8.963   4.159  67.621  1.00  0.00    -0.121 A  
HETATM    7  C   UNL     1      -8.313   5.208  66.982  1.00  0.00    -0.107 A  
HETATM    8  C   UNL     1      -8.091   5.124  65.605  1.00  0.00    -0.115 A  
BRANCH   6   9
HETATM    9  C   UNL     1      -9.253   4.201  69.110  1.00  0.00    -0.211 C  
BRANCH   9  10
HETATM   10  C   UNL     1      -9.231   5.651  69.590  1.00  0.00    -0.137 C  
BRANCH  10  11
HETATM   11  O   UNL     1     -10.527   6.254  69.689  1.00  0.00    -0.198 OA 
BRANCH  11  12
HETATM   12  C   UNL     1     -10.591   7.494  69.077  1.00  0.00    -0.180 A  
HETATM   13  C   UNL     1     -10.785   8.703  69.750  1.00  0.00    -0.215 A  
HETATM   14  C   UNL     1     -10.769   9.918  69.069  1.00  0.00    -0.244 A  
HETATM   15  C   UNL     1     -10.537   9.953  67.693  1.00  0.00    -0.325 A  
HETATM   16  C   UNL     1     -10.402   8.741  67.001  1.00  0.00    -0.353 A  
HETATM   17  C   UNL     1     -10.424   7.519  67.693  1.00  0.00    -0.319 A  
BRANCH  15  18
HETATM   18  C   UNL     1     -10.362  11.287  67.004  1.00  0.00    -0.263 C  
BRANCH  18  19
HETATM   19  C   UNL     1     -11.351  12.340  67.519  1.00  0.00    -0.325 C  
HETATM   20  S   UNL     1     -10.599  13.594  68.621  1.00  0.00    -0.231 SA 
HETATM   21  C   UNL     1     -11.315  14.918  67.751  1.00  0.00    -0.329 C  
HETATM   22  N   UNL     1     -11.827  14.482  66.578  1.00  0.00    -0.377 N  
HETATM   23  O   UNL     1     -11.369  16.061  68.168  1.00  0.00    -0.342 OA 
HETATM   24  C   UNL     1     -11.962  13.139  66.389  1.00  0.00    -0.402 C  
HETATM   25  H   UNL     1     -12.107  15.142  65.852  1.00  0.00     0.000 HD 
HETATM   26  O   UNL     1     -12.572  12.657  65.444  1.00  0.00    -0.641 OA 
ENDBRANCH  18  19
ENDBRANCH  15  18
ENDBRANCH  11  12
ENDBRANCH  10  11
ENDBRANCH   9  10
ENDBRANCH   6   9
ENDBRANCH   2   3
TORSDOF 7
ENDMDL
MODEL      230
REMARK 921   NORMALIZED FREE ENERGY PREDICTED BY IDOCK:   -3.90 KCAL/MOL
REMARK 922        TOTAL FREE ENERGY PREDICTED BY IDOCK:   -6.64 KCAL/MOL
REMARK 923 INTER-LIGAND FREE ENERGY PREDICTED BY IDOCK:   -6.08 KCAL/MOL
REMARK 924 INTRA-LIGAND FREE ENERGY PREDICTED BY IDOCK:   -0.57 KCAL/MOL
REMARK 927      BINDING AFFINITY PREDICTED BY RF-SCORE:    0.00 PKD
ROOT
HETATM    1  C   UNL     1     -10.169  19.824  68.754  1.00  0.00    -0.473 C  
HETATM    2  C   UNL     1      -9.005  19.025  68.187  1.00  0.00    -0.355 C  
ENDROOT
BRANCH   2   3
HETATM    3  C   UNL     1      -9.465  17.746  67.551  1.00  0.00    -0.257 A  
HETATM    4  C   UNL     1     -10.560  17.058  68.049  1.00  0.00    -0.373 A  
HETATM    5  N   UNL     1     -11.006  15.888  67.548  1.00  0.00    -0.310 NA 
HETATM    6  C   UNL     1     -10.354  15.349  66.485  1.00  0.00    -0.289 A  
HETATM    7  C   UNL     1      -9.242  15.964  65.926  1.00  0.00    -0.332 A  
HETATM    8  C   UNL     1      -8.797  17.174  66.467  1.00  0.00    -0.293 A  
BRANCH   6   9
HETATM    9  C   UNL     1     -10.873  14.025  65.957  1.00  0.00    -0.295 C  
BRANCH   9  10
HETATM   10  C   UNL     1     -10.206  12.880  66.718  1.00  0.00    -0.241 C  
BRANCH  10  11
HETATM   11  O   UNL     1      -9.738  11.815  65.880  1.00  0.00    -0.227 OA 
BRANCH  11  12
HETATM   12  C   UNL     1      -9.985  10.563  66.415  1.00  0.00    -0.218 A  
HETATM   13  C   UNL     1      -9.462   9.367  65.915  1.00  0.00    -0.315 A  
HETATM   14  C   UNL     1      -9.703   8.152  66.551  1.00  0.00    -0.309 A  
HETATM   15  C   UNL     1     -10.462   8.107  67.722  1.00  0.00    -0.279 A  
HETATM   16  C   UNL     1     -11.041   9.292  68.197  1.00  0.00     0.050 A  
HETATM   17  C   UNL     1     -10.798  10.514  67.547  1.00  0.00    -0.357 A  
BRANCH  15  18
HETATM   18  C   UNL     1     -10.573   6.805  68.483  1.00  0.00    -0.265 C  
BRANCH  18  19
HETATM   19  C   UNL     1      -9.227   6.358  69.065  1.00  0.00    -0.129 C  
HETATM   20  S   UNL     1      -8.485   7.554  70.234  1.00  0.00    -0.140 SA 
HETATM   21  C   UNL     1      -8.181   6.331  71.433  1.00  0.00    -0.122 C  
HETATM   22  N   UNL     1      -8.834   5.192  71.112  1.00  0.00    -0.132 N  
HETATM   23  O   UNL     1      -7.454   6.485  72.398  1.00  0.00    -0.092 OA 
HETATM   24  C   UNL     1      -9.355   5.075  69.858  1.00  0.00    -0.139 C  
HETATM   25  H   UNL     1      -8.935   4.438  71.791  1.00  0.00     0.000 HD 
HETATM   26  O   UNL     1      -9.804   4.025  69.418  1.00  0.00    -0.185 OA 
ENDBRANCH  18  19
ENDBRANCH  15  18
ENDBRANCH  11  12
ENDBRANCH  10  11
ENDBRANCH   9  10
ENDBRANCH   6   9
ENDBRANCH   2   3
TORSDOF 7
ENDMDL
MODEL      231
REMARK 921   NORMALIZED FREE ENERGY PREDICTED BY IDOCK:   -3.90 KCAL/MOL
REMARK 922        TOTAL FREE ENERGY PREDICTED BY IDOCK:   -6.64 KCAL/MOL
REMARK 923 INTER-LIGAND FREE ENERGY PREDICTED BY IDOCK:   -5.80 KCAL/MOL
REMARK 924 INTRA-LIGAND FREE ENERGY PREDICTED BY IDOCK:   -0.84 KCAL/MOL
REMARK 927      BINDING AFFINITY PREDICTED BY RF-SCORE:    0.00 PKD
ROOT
HETATM    1  C   UNL     1      -7.584   6.202  64.268  1.00  0.00    -0.096 C  
HETATM    2  C   UNL     1      -7.858   6.205  65.764  1.00  0.00    -0.105 C  
ENDROOT
BRANCH   2   3
HETATM    3  C   UNL     1      -8.795   7.311  66.156  1.00  0.00    -0.181 A  
HETATM    4  C   UNL     1      -8.628   8.594  65.658  1.00  0.00    -0.168 A  
HETATM    5  N   UNL     1      -9.411   9.640  65.994  1.00  0.00    -0.205 NA 
HETATM    6  C   UNL     1     -10.431   9.430  66.865  1.00  0.00    -0.211 A  
HETATM    7  C   UNL     1     -10.667   8.179  67.423  1.00  0.00    -0.247 A  
HETATM    8  C   UNL     1      -9.839   7.113  67.062  1.00  0.00    -0.257 A  
BRANCH   6   9
HETATM    9  C   UNL     1     -11.282  10.631  67.234  1.00  0.00    -0.237 C  
BRANCH   9  10
HETATM   10  C   UNL     1     -11.023  11.007  68.692  1.00  0.00    -0.224 C  
BRANCH  10  11
HETATM   11  O   UNL     1     -12.039  10.561  69.600  1.00  0.00    -0.252 OA 
BRANCH  11  12
HETATM   12  C   UNL     1     -11.533   9.804  70.642  1.00  0.00    -0.324 A  
HETATM   13  C   UNL     1     -12.301   9.261  71.676  1.00  0.00    -0.450 A  
HETATM   14  C   UNL     1     -11.727   8.452  72.652  1.00  0.00    -0.364 A  
HETATM   15  C   UNL     1     -10.365   8.149  72.607  1.00  0.00    -0.398 A  
HETATM   16  C   UNL     1      -9.575   8.737  71.609  1.00  0.00    -0.363 A  
HETATM   17  C   UNL     1     -10.161   9.558  70.629  1.00  0.00    -0.353 A  
BRANCH  15  18
HETATM   18  C   UNL     1      -9.797   7.140  73.579  1.00  0.00    -0.322 C  
BRANCH  18  19
HETATM   19  C   UNL     1      -9.606   5.760  72.937  1.00  0.00    -0.155 C  
HETATM   20  S   UNL     1      -8.273   4.762  73.698  1.00  0.00    -0.106 SA 
HETATM   21  C   UNL     1      -9.286   3.355  73.841  1.00  0.00    -0.095 C  
HETATM   22  N   UNL     1     -10.577   3.686  73.612  1.00  0.00    -0.177 N  
HETATM   23  O   UNL     1      -8.871   2.236  74.079  1.00  0.00    -0.071 OA 
HETATM   24  C   UNL     1     -10.847   4.903  73.063  1.00  0.00    -0.265 C  
HETATM   25  H   UNL     1     -11.331   3.040  73.846  1.00  0.00     0.000 HD 
HETATM   26  O   UNL     1     -11.957   5.221  72.659  1.00  0.00    -0.170 OA 
ENDBRANCH  18  19
ENDBRANCH  15  18
ENDBRANCH  11  12
ENDBRANCH  10  11
ENDBRANCH   9  10
ENDBRANCH   6   9
ENDBRANCH   2   3
TORSDOF 7
ENDMDL
MODEL      232
REMARK 921   NORMALIZED FREE ENERGY PREDICTED BY IDOCK:   -3.88 KCAL/MOL
REMARK 922        TOTAL FREE ENERGY PREDICTED BY IDOCK:   -6.61 KCAL/MOL
REMARK 923 INTER-LIGAND FREE ENERGY PREDICTED BY IDOCK:   -6.08 KCAL/MOL
REMARK 924 INTRA-LIGAND FREE ENERGY PREDICTED BY IDOCK:   -0.53 KCAL/MOL
REMARK 927      BINDING AFFINITY PREDICTED BY RF-SCORE:    0.00 PKD
ROOT
HETATM    1  C   UNL     1      -6.230  21.078  67.513  1.00  0.00    -0.401 C  
HETATM    2  C   UNL     1      -6.274  20.714  68.990  1.00  0.00    -0.287 C  
ENDROOT
BRANCH   2   3
HETATM    3  C   UNL     1      -6.218  19.228  69.199  1.00  0.00    -0.302 A  
HETATM    4  C   UNL     1      -7.225  18.405  68.722  1.00  0.00    -0.284 A  
HETATM    5  N   UNL     1      -7.255  17.069  68.903  1.00  0.00    -0.230 NA 
HETATM    6  C   UNL     1      -6.235  16.486  69.585  1.00  0.00    -0.220 A  
HETATM    7  C   UNL     1      -5.187  17.234  70.108  1.00  0.00    -0.216 A  
HETATM    8  C   UNL     1      -5.183  18.618  69.910  1.00  0.00    -0.206 A  
BRANCH   6   9
HETATM    9  C   UNL     1      -6.308  14.984  69.785  1.00  0.00    -0.152 C  
BRANCH   9  10
HETATM   10  C   UNL     1      -5.486  14.288  68.702  1.00  0.00    -0.090 C  
BRANCH  10  11
HETATM   11  O   UNL     1      -6.123  14.250  67.418  1.00  0.00    -0.342 OA 
BRANCH  11  12
HETATM   12  C   UNL     1      -7.162  13.337  67.361  1.00  0.00    -0.108 A  
HETATM   13  C   UNL     1      -8.503  13.672  67.155  1.00  0.00    -0.186 A  
HETATM   14  C   UNL     1      -9.482  12.688  67.041  1.00  0.00    -0.220 A  
HETATM   15  C   UNL     1      -9.138  11.337  67.112  1.00  0.00    -0.160 A  
HETATM   16  C   UNL     1      -7.805  10.994  67.378  1.00  0.00    -0.118 A  
HETATM   17  C   UNL     1      -6.822  11.992  67.497  1.00  0.00    -0.128 A  
BRANCH  15  18
HETATM   18  C   UNL     1     -10.187  10.288  66.823  1.00  0.00    -0.286 C  
BRANCH  18  19
HETATM   19  C   UNL     1     -10.709   9.622  68.103  1.00  0.00    -0.217 C  
HETATM   20  S   UNL     1      -9.410   8.802  69.099  1.00  0.00    -0.149 SA 
HETATM   21  C   UNL     1      -9.936   9.561  70.573  1.00  0.00    -0.273 C  
HETATM   22  N   UNL     1     -10.811  10.554  70.298  1.00  0.00    -0.446 N  
HETATM   23  O   UNL     1      -9.583   9.212  71.685  1.00  0.00    -0.277 OA 
HETATM   24  C   UNL     1     -11.338  10.626  69.044  1.00  0.00    -0.277 C  
HETATM   25  H   UNL     1     -11.071  11.235  71.013  1.00  0.00     0.000 HD 
HETATM   26  O   UNL     1     -12.262  11.373  68.751  1.00  0.00    -0.502 OA 
ENDBRANCH  18  19
ENDBRANCH  15  18
ENDBRANCH  11  12
ENDBRANCH  10  11
ENDBRANCH   9  10
ENDBRANCH   6   9
ENDBRANCH   2   3
TORSDOF 7
ENDMDL
MODEL      233
REMARK 921   NORMALIZED FREE ENERGY PREDICTED BY IDOCK:   -3.86 KCAL/MOL
REMARK 922        TOTAL FREE ENERGY PREDICTED BY IDOCK:   -6.59 KCAL/MOL
REMARK 923 INTER-LIGAND FREE ENERGY PREDICTED BY IDOCK:   -6.18 KCAL/MOL
REMARK 924 INTRA-LIGAND FREE ENERGY PREDICTED BY IDOCK:   -0.41 KCAL/MOL
REMARK 927      BINDING AFFINITY PREDICTED BY RF-SCORE:    0.00 PKD
ROOT
HETATM    1  C   UNL     1      -6.697   7.497  65.700  1.00  0.00    -0.045 C  
HETATM    2  C   UNL     1      -8.207   7.506  65.513  1.00  0.00    -0.135 C  
ENDROOT
BRANCH   2   3
HETATM    3  C   UNL     1      -8.930   7.411  66.825  1.00  0.00    -0.159 A  
HETATM    4  C   UNL     1      -8.281   6.964  67.964  1.00  0.00    -0.115 A  
HETATM    5  N   UNL     1      -8.878   6.823  69.166  1.00  0.00    -0.134 NA 
HETATM    6  C   UNL     1     -10.193   7.144  69.276  1.00  0.00    -0.190 A  
HETATM    7  C   UNL     1     -10.927   7.592  68.184  1.00  0.00     0.031 A  
HETATM    8  C   UNL     1     -10.285   7.725  66.950  1.00  0.00    -0.373 A  
BRANCH   6   9
HETATM    9  C   UNL     1     -10.837   6.958  70.637  1.00  0.00    -0.280 C  
BRANCH   9  10
HETATM   10  C   UNL     1     -11.611   8.221  71.008  1.00  0.00    -0.275 C  
BRANCH  10  11
HETATM   11  O   UNL     1     -10.782   9.367  71.244  1.00  0.00    -0.316 OA 
BRANCH  11  12
HETATM   12  C   UNL     1     -11.267  10.514  70.641  1.00  0.00    -0.198 A  
HETATM   13  C   UNL     1     -12.386  11.229  71.077  1.00  0.00    -0.472 A  
HETATM   14  C   UNL     1     -12.771  12.415  70.455  1.00  0.00    -0.051 A  
HETATM   15  C   UNL     1     -12.029  12.927  69.389  1.00  0.00    -0.327 A  
HETATM   16  C   UNL     1     -10.941  12.186  68.907  1.00  0.00    -0.269 A  
HETATM   17  C   UNL     1     -10.561  10.987  69.535  1.00  0.00    -0.182 A  
BRANCH  15  18
HETATM   18  C   UNL     1     -12.368  14.293  68.839  1.00  0.00    -0.116 C  
BRANCH  18  19
HETATM   19  C   UNL     1     -12.263  15.390  69.905  1.00  0.00    -0.334 C  
HETATM   20  S   UNL     1     -13.571  15.315  71.183  1.00  0.00    -0.416 SA 
HETATM   21  C   UNL     1     -12.429  15.445  72.488  1.00  0.00    -0.377 C  
HETATM   22  N   UNL     1     -11.171  15.268  72.025  1.00  0.00    -0.496 N  
HETATM   23  O   UNL     1     -12.733  15.694  73.641  1.00  0.00    -0.486 OA 
HETATM   24  C   UNL     1     -10.965  15.301  70.679  1.00  0.00    -0.284 C  
HETATM   25  H   UNL     1     -10.395  15.112  72.668  1.00  0.00     0.000 HD 
HETATM   26  O   UNL     1      -9.850  15.327  70.176  1.00  0.00    -0.179 OA 
ENDBRANCH  18  19
ENDBRANCH  15  18
ENDBRANCH  11  12
ENDBRANCH  10  11
ENDBRANCH   9  10
ENDBRANCH   6   9
ENDBRANCH   2   3
TORSDOF 7
ENDMDL
MODEL      234
REMARK 921   NORMALIZED FREE ENERGY PREDICTED BY IDOCK:   -3.84 KCAL/MOL
REMARK 922        TOTAL FREE ENERGY PREDICTED BY IDOCK:   -6.55 KCAL/MOL
REMARK 923 INTER-LIGAND FREE ENERGY PREDICTED BY IDOCK:   -5.80 KCAL/MOL
REMARK 924 INTRA-LIGAND FREE ENERGY PREDICTED BY IDOCK:   -0.75 KCAL/MOL
REMARK 927      BINDING AFFINITY PREDICTED BY RF-SCORE:    0.00 PKD
ROOT
HETATM    1  C   UNL     1     -10.543  18.348  67.923  1.00  0.00    -0.379 C  
HETATM    2  C   UNL     1      -9.489  17.255  68.025  1.00  0.00    -0.271 C  
ENDROOT
BRANCH   2   3
HETATM    3  C   UNL     1     -10.108  15.887  68.048  1.00  0.00    -0.230 A  
HETATM    4  C   UNL     1      -9.544  14.840  67.336  1.00  0.00    -0.210 A  
HETATM    5  N   UNL     1     -10.066  13.597  67.286  1.00  0.00    -0.237 NA 
HETATM    6  C   UNL     1     -11.207  13.346  67.978  1.00  0.00    -0.268 A  
HETATM    7  C   UNL     1     -11.847  14.337  68.710  1.00  0.00    -0.377 A  
HETATM    8  C   UNL     1     -11.289  15.618  68.743  1.00  0.00    -0.351 A  
BRANCH   6   9
HETATM    9  C   UNL     1     -11.775  11.942  67.886  1.00  0.00    -0.368 C  
BRANCH   9  10
HETATM   10  C   UNL     1     -11.897  11.352  69.289  1.00  0.00    -0.349 C  
BRANCH  10  11
HETATM   11  O   UNL     1     -10.641  11.135  69.944  1.00  0.00    -0.048 OA 
BRANCH  11  12
HETATM   12  C   UNL     1     -10.203   9.825  69.847  1.00  0.00    -0.254 A  
HETATM   13  C   UNL     1     -10.975   8.704  70.163  1.00  0.00    -0.234 A  
HETATM   14  C   UNL     1     -10.485   7.414  69.973  1.00  0.00    -0.233 A  
HETATM   15  C   UNL     1      -9.211   7.214  69.439  1.00  0.00    -0.148 A  
HETATM   16  C   UNL     1      -8.407   8.333  69.175  1.00  0.00    -0.123 A  
HETATM   17  C   UNL     1      -8.906   9.632  69.375  1.00  0.00    -0.183 A  
BRANCH  15  18
HETATM   18  C   UNL     1      -8.765   5.813  69.089  1.00  0.00    -0.113 C  
BRANCH  18  19
HETATM   19  C   UNL     1      -9.851   5.029  68.343  1.00  0.00    -0.147 C  
HETATM   20  S   UNL     1     -10.286   5.729  66.709  1.00  0.00    -0.239 SA 
HETATM   21  C   UNL     1     -10.149   4.190  65.912  1.00  0.00    -0.152 C  
HETATM   22  N   UNL     1      -9.553   3.294  66.730  1.00  0.00    -0.401 N  
HETATM   23  O   UNL     1     -10.568   3.960  64.792  1.00  0.00    -0.205 OA 
HETATM   24  C   UNL     1      -9.418   3.609  68.049  1.00  0.00    -0.161 C  
HETATM   25  H   UNL     1      -9.211   2.403  66.369  1.00  0.00     0.000 HD 
HETATM   26  O   UNL     1      -9.055   2.801  68.893  1.00  0.00    -0.118 OA 
ENDBRANCH  18  19
ENDBRANCH  15  18
ENDBRANCH  11  12
ENDBRANCH  10  11
ENDBRANCH   9  10
ENDBRANCH   6   9
ENDBRANCH   2   3
TORSDOF 7
ENDMDL
MODEL      235
REMARK 921   NORMALIZED FREE ENERGY PREDICTED BY IDOCK:   -3.83 KCAL/MOL
REMARK 922        TOTAL FREE ENERGY PREDICTED BY IDOCK:   -6.55 KCAL/MOL
REMARK 923 INTER-LIGAND FREE ENERGY PREDICTED BY IDOCK:   -6.01 KCAL/MOL
REMARK 924 INTRA-LIGAND FREE ENERGY PREDICTED BY IDOCK:   -0.54 KCAL/MOL
REMARK 927      BINDING AFFINITY PREDICTED BY RF-SCORE:    0.00 PKD
ROOT
HETATM    1  C   UNL     1     -13.321   9.395  72.016  1.00  0.00    -0.525 C  
HETATM    2  C   UNL     1     -12.378   8.262  72.390  1.00  0.00    -0.385 C  
ENDROOT
BRANCH   2   3
HETATM    3  C   UNL     1     -10.993   8.493  71.857  1.00  0.00    -0.394 A  
HETATM    4  C   UNL     1     -10.789   8.830  70.529  1.00  0.00    -0.233 A  
HETATM    5  N   UNL     1      -9.573   9.019  69.977  1.00  0.00    -0.176 NA 
HETATM    6  C   UNL     1      -8.476   8.880  70.767  1.00  0.00    -0.182 A  
HETATM    7  C   UNL     1      -8.584   8.534  72.108  1.00  0.00    -0.242 A  
HETATM    8  C   UNL     1      -9.856   8.340  72.654  1.00  0.00    -0.357 A  
BRANCH   6   9
HETATM    9  C   UNL     1      -7.123   9.083  70.111  1.00  0.00    -0.052 C  
BRANCH   9  10
HETATM   10  C   UNL     1      -6.949  10.558  69.755  1.00  0.00    -0.144 C  
BRANCH  10  11
HETATM   11  O   UNL     1      -7.596  10.946  68.536  1.00  0.00    -0.097 OA 
BRANCH  11  12
HETATM   12  C   UNL     1      -7.636  12.319  68.363  1.00  0.00    -0.128 A  
HETATM   13  C   UNL     1      -8.521  12.987  67.512  1.00  0.00    -0.190 A  
HETATM   14  C   UNL     1      -8.545  14.378  67.445  1.00  0.00    -0.213 A  
HETATM   15  C   UNL     1      -7.692  15.139  68.247  1.00  0.00    -0.117 A  
HETATM   16  C   UNL     1      -6.760  14.476  69.059  1.00  0.00    -0.105 A  
HETATM   17  C   UNL     1      -6.738  13.072  69.118  1.00  0.00    -0.087 A  
BRANCH  15  18
HETATM   18  C   UNL     1      -7.848  16.642  68.277  1.00  0.00    -0.182 C  
BRANCH  18  19
HETATM   19  C   UNL     1      -8.453  17.189  66.979  1.00  0.00    -0.211 C  
HETATM   20  S   UNL     1     -10.167  17.806  67.156  1.00  0.00    -0.363 SA 
HETATM   21  C   UNL     1      -9.808  19.302  66.345  1.00  0.00    -0.388 C  
HETATM   22  N   UNL     1      -8.470  19.450  66.213  1.00  0.00    -0.333 N  
HETATM   23  O   UNL     1     -10.652  20.075  65.931  1.00  0.00    -0.456 OA 
HETATM   24  C   UNL     1      -7.672  18.371  66.448  1.00  0.00    -0.262 C  
HETATM   25  H   UNL     1      -8.068  20.348  65.944  1.00  0.00     0.000 HD 
HETATM   26  O   UNL     1      -6.477  18.357  66.186  1.00  0.00    -0.190 OA 
ENDBRANCH  18  19
ENDBRANCH  15  18
ENDBRANCH  11  12
ENDBRANCH  10  11
ENDBRANCH   9  10
ENDBRANCH   6   9
ENDBRANCH   2   3
TORSDOF 7
ENDMDL
MODEL      236
REMARK 921   NORMALIZED FREE ENERGY PREDICTED BY IDOCK:   -3.83 KCAL/MOL
REMARK 922        TOTAL FREE ENERGY PREDICTED BY IDOCK:   -6.55 KCAL/MOL
REMARK 923 INTER-LIGAND FREE ENERGY PREDICTED BY IDOCK:   -5.93 KCAL/MOL
REMARK 924 INTRA-LIGAND FREE ENERGY PREDICTED BY IDOCK:   -0.62 KCAL/MOL
REMARK 927      BINDING AFFINITY PREDICTED BY RF-SCORE:    0.00 PKD
ROOT
HETATM    1  C   UNL     1     -10.210  18.951  67.852  1.00  0.00    -0.459 C  
HETATM    2  C   UNL     1      -9.993  18.395  66.452  1.00  0.00    -0.399 C  
ENDROOT
BRANCH   2   3
HETATM    3  C   UNL     1     -10.514  16.993  66.324  1.00  0.00    -0.258 A  
HETATM    4  C   UNL     1     -10.682  16.192  67.442  1.00  0.00    -0.291 A  
HETATM    5  N   UNL     1     -11.113  14.915  67.396  1.00  0.00    -0.315 NA 
HETATM    6  C   UNL     1     -11.410  14.376  66.185  1.00  0.00    -0.350 A  
HETATM    7  C   UNL     1     -11.262  15.102  65.009  1.00  0.00    -0.414 A  
HETATM    8  C   UNL     1     -10.810  16.422  65.084  1.00  0.00    -0.289 A  
BRANCH   6   9
HETATM    9  C   UNL     1     -11.876  12.933  66.167  1.00  0.00    -0.487 C  
BRANCH   9  10
HETATM   10  C   UNL     1     -11.312  12.204  67.385  1.00  0.00    -0.326 C  
BRANCH  10  11
HETATM   11  O   UNL     1     -11.833  10.881  67.569  1.00  0.00    -0.524 OA 
BRANCH  11  12
HETATM   12  C   UNL     1     -10.993  10.072  68.315  1.00  0.00    -0.227 A  
HETATM   13  C   UNL     1     -10.561   8.801  67.924  1.00  0.00    -0.236 A  
HETATM   14  C   UNL     1      -9.660   8.076  68.701  1.00  0.00    -0.150 A  
HETATM   15  C   UNL     1      -9.152   8.616  69.883  1.00  0.00    -0.151 A  
HETATM   16  C   UNL     1      -9.625   9.865  70.312  1.00  0.00    -0.184 A  
HETATM   17  C   UNL     1     -10.538  10.589  69.527  1.00  0.00    -0.278 A  
BRANCH  15  18
HETATM   18  C   UNL     1      -8.055   7.884  70.621  1.00  0.00    -0.102 C  
BRANCH  18  19
HETATM   19  C   UNL     1      -7.795   6.489  70.039  1.00  0.00    -0.111 C  
HETATM   20  S   UNL     1      -6.022   6.077  69.852  1.00  0.00    -0.026 SA 
HETATM   21  C   UNL     1      -6.207   4.532  70.630  1.00  0.00    -0.022 C  
HETATM   22  N   UNL     1      -7.415   4.456  71.231  1.00  0.00    -0.058 N  
HETATM   23  O   UNL     1      -5.372   3.647  70.597  1.00  0.00    -0.007 OA 
HETATM   24  C   UNL     1      -8.352   5.397  70.926  1.00  0.00    -0.118 C  
HETATM   25  H   UNL     1      -7.621   3.711  71.898  1.00  0.00     0.000 HD 
HETATM   26  O   UNL     1      -9.521   5.312  71.279  1.00  0.00    -0.144 OA 
ENDBRANCH  18  19
ENDBRANCH  15  18
ENDBRANCH  11  12
ENDBRANCH  10  11
ENDBRANCH   9  10
ENDBRANCH   6   9
ENDBRANCH   2   3
TORSDOF 7
ENDMDL
MODEL      237
REMARK 921   NORMALIZED FREE ENERGY PREDICTED BY IDOCK:   -3.83 KCAL/MOL
REMARK 922        TOTAL FREE ENERGY PREDICTED BY IDOCK:   -6.55 KCAL/MOL
REMARK 923 INTER-LIGAND FREE ENERGY PREDICTED BY IDOCK:   -5.76 KCAL/MOL
REMARK 924 INTRA-LIGAND FREE ENERGY PREDICTED BY IDOCK:   -0.78 KCAL/MOL
REMARK 927      BINDING AFFINITY PREDICTED BY RF-SCORE:    0.00 PKD
ROOT
HETATM    1  C   UNL     1      -7.778   9.279  66.555  1.00  0.00    -0.093 C  
HETATM    2  C   UNL     1      -6.693  10.062  67.280  1.00  0.00    -0.074 C  
ENDROOT
BRANCH   2   3
HETATM    3  C   UNL     1      -7.132  11.463  67.593  1.00  0.00    -0.092 A  
HETATM    4  C   UNL     1      -8.187  12.046  66.909  1.00  0.00    -0.146 A  
HETATM    5  N   UNL     1      -8.611  13.310  67.115  1.00  0.00    -0.205 NA 
HETATM    6  C   UNL     1      -7.978  14.059  68.054  1.00  0.00    -0.152 A  
HETATM    7  C   UNL     1      -6.904  13.561  68.781  1.00  0.00    -0.108 A  
HETATM    8  C   UNL     1      -6.481  12.249  68.545  1.00  0.00    -0.064 A  
BRANCH   6   9
HETATM    9  C   UNL     1      -8.470  15.481  68.249  1.00  0.00    -0.156 C  
BRANCH   9  10
HETATM   10  C   UNL     1      -9.756  15.686  67.451  1.00  0.00    -0.222 C  
BRANCH  10  11
HETATM   11  O   UNL     1     -10.943  15.720  68.253  1.00  0.00    -0.295 OA 
BRANCH  11  12
HETATM   12  C   UNL     1     -11.414  14.457  68.569  1.00  0.00    -0.297 A  
HETATM   13  C   UNL     1     -11.579  13.417  67.649  1.00  0.00    -0.377 A  
HETATM   14  C   UNL     1     -11.994  12.152  68.058  1.00  0.00    -0.233 A  
HETATM   15  C   UNL     1     -12.236  11.890  69.407  1.00  0.00    -0.185 A  
HETATM   16  C   UNL     1     -12.132  12.942  70.328  1.00  0.00    -0.377 A  
HETATM   17  C   UNL     1     -11.718  14.218  69.908  1.00  0.00    -0.373 A  
BRANCH  15  18
HETATM   18  C   UNL     1     -12.526  10.473  69.847  1.00  0.00    -0.190 C  
BRANCH  18  19
HETATM   19  C   UNL     1     -11.748  10.089  71.112  1.00  0.00    -0.387 C  
HETATM   20  S   UNL     1     -12.587   8.837  72.151  1.00  0.00    -0.406 SA 
HETATM   21  C   UNL     1     -11.156   7.857  72.282  1.00  0.00    -0.318 C  
HETATM   22  N   UNL     1     -10.224   8.273  71.396  1.00  0.00    -0.197 N  
HETATM   23  O   UNL     1     -11.018   6.952  73.086  1.00  0.00    -0.285 OA 
HETATM   24  C   UNL     1     -10.404   9.477  70.783  1.00  0.00    -0.306 C  
HETATM   25  H   UNL     1      -9.405   7.701  71.191  1.00  0.00     0.000 HD 
HETATM   26  O   UNL     1      -9.539  10.016  70.106  1.00  0.00    -0.225 OA 
ENDBRANCH  18  19
ENDBRANCH  15  18
ENDBRANCH  11  12
ENDBRANCH  10  11
ENDBRANCH   9  10
ENDBRANCH   6   9
ENDBRANCH   2   3
TORSDOF 7
ENDMDL
MODEL      238
REMARK 921   NORMALIZED FREE ENERGY PREDICTED BY IDOCK:   -3.83 KCAL/MOL
REMARK 922        TOTAL FREE ENERGY PREDICTED BY IDOCK:   -6.54 KCAL/MOL
REMARK 923 INTER-LIGAND FREE ENERGY PREDICTED BY IDOCK:   -5.55 KCAL/MOL
REMARK 924 INTRA-LIGAND FREE ENERGY PREDICTED BY IDOCK:   -1.00 KCAL/MOL
REMARK 927      BINDING AFFINITY PREDICTED BY RF-SCORE:    0.00 PKD
ROOT
HETATM    1  C   UNL     1     -13.337   9.830  71.988  1.00  0.00    -0.547 C  
HETATM    2  C   UNL     1     -12.984  11.309  72.045  1.00  0.00    -0.379 C  
ENDROOT
BRANCH   2   3
HETATM    3  C   UNL     1     -12.532  11.825  70.709  1.00  0.00    -0.405 A  
HETATM    4  C   UNL     1     -12.382  13.184  70.486  1.00  0.00    -0.304 A  
HETATM    5  N   UNL     1     -12.013  13.717  69.303  1.00  0.00    -0.331 NA 
HETATM    6  C   UNL     1     -11.762  12.876  68.265  1.00  0.00    -0.350 A  
HETATM    7  C   UNL     1     -11.896  11.500  68.395  1.00  0.00    -0.353 A  
HETATM    8  C   UNL     1     -12.284  10.973  69.630  1.00  0.00    -0.370 A  
BRANCH   6   9
HETATM    9  C   UNL     1     -11.365  13.510  66.945  1.00  0.00    -0.350 C  
BRANCH   9  10
HETATM   10  C   UNL     1     -10.556  12.506  66.125  1.00  0.00    -0.253 C  
BRANCH  10  11
HETATM   11  O   UNL     1      -9.150  12.782  66.085  1.00  0.00    -0.100 OA 
BRANCH  11  12
HETATM   12  C   UNL     1      -8.435  12.065  67.029  1.00  0.00    -0.183 A  
HETATM   13  C   UNL     1      -8.014  12.573  68.261  1.00  0.00    -0.153 A  
HETATM   14  C   UNL     1      -7.357  11.767  69.187  1.00  0.00    -0.005 A  
HETATM   15  C   UNL     1      -7.122  10.419  68.909  1.00  0.00    -0.074 A  
HETATM   16  C   UNL     1      -7.487   9.916  67.652  1.00  0.00    -0.090 A  
HETATM   17  C   UNL     1      -8.145  10.737  66.720  1.00  0.00    -0.137 A  
BRANCH  15  18
HETATM   18  C   UNL     1      -6.557   9.526  69.990  1.00  0.00    -0.065 C  
BRANCH  18  19
HETATM   19  C   UNL     1      -7.655   8.795  70.770  1.00  0.00    -0.094 C  
HETATM   20  S   UNL     1      -9.343   9.426  70.451  1.00  0.00    -0.267 SA 
HETATM   21  C   UNL     1      -9.984   7.833  70.175  1.00  0.00    -0.186 C  
HETATM   22  N   UNL     1      -8.976   6.942  70.046  1.00  0.00    -0.142 N  
HETATM   23  O   UNL     1     -11.173   7.571  70.141  1.00  0.00    -0.259 OA 
HETATM   24  C   UNL     1      -7.720   7.327  70.409  1.00  0.00    -0.094 C  
HETATM   25  H   UNL     1      -9.151   6.004  69.685  1.00  0.00     0.000 HD 
HETATM   26  O   UNL     1      -6.782   6.545  70.494  1.00  0.00    -0.053 OA 
ENDBRANCH  18  19
ENDBRANCH  15  18
ENDBRANCH  11  12
ENDBRANCH  10  11
ENDBRANCH   9  10
ENDBRANCH   6   9
ENDBRANCH   2   3
TORSDOF 7
ENDMDL
MODEL      239
REMARK 921   NORMALIZED FREE ENERGY PREDICTED BY IDOCK:   -3.82 KCAL/MOL
REMARK 922        TOTAL FREE ENERGY PREDICTED BY IDOCK:   -6.53 KCAL/MOL
REMARK 923 INTER-LIGAND FREE ENERGY PREDICTED BY IDOCK:   -5.39 KCAL/MOL
REMARK 924 INTRA-LIGAND FREE ENERGY PREDICTED BY IDOCK:   -1.14 KCAL/MOL
REMARK 927      BINDING AFFINITY PREDICTED BY RF-SCORE:    0.00 PKD
ROOT
HETATM    1  C   UNL     1     -10.464  10.852  63.634  1.00  0.00    -0.301 C  
HETATM    2  C   UNL     1      -9.290  11.570  64.282  1.00  0.00    -0.020 C  
ENDROOT
BRANCH   2   3
HETATM    3  C   UNL     1      -8.474  10.643  65.136  1.00  0.00    -0.146 A  
HETATM    4  C   UNL     1      -8.363   9.298  64.820  1.00  0.00    -0.162 A  
HETATM    5  N   UNL     1      -7.676   8.404  65.560  1.00  0.00    -0.093 NA 
HETATM    6  C   UNL     1      -7.044   8.842  66.679  1.00  0.00    -0.084 A  
HETATM    7  C   UNL     1      -7.108  10.171  67.079  1.00  0.00    -0.090 A  
HETATM    8  C   UNL     1      -7.831  11.076  66.297  1.00  0.00    -0.141 A  
BRANCH   6   9
HETATM    9  C   UNL     1      -6.293   7.808  67.497  1.00  0.00    -0.055 C  
BRANCH   9  10
HETATM   10  C   UNL     1      -6.973   7.645  68.855  1.00  0.00    -0.070 C  
BRANCH  10  11
HETATM   11  O   UNL     1      -8.321   7.162  68.780  1.00  0.00    -0.124 OA 
BRANCH  11  12
HETATM   12  C   UNL     1      -9.259   8.143  69.052  1.00  0.00    -0.148 A  
HETATM   13  C   UNL     1      -9.323   8.873  70.242  1.00  0.00    -0.208 A  
HETATM   14  C   UNL     1     -10.256   9.894  70.412  1.00  0.00    -0.299 A  
HETATM   15  C   UNL     1     -11.139  10.223  69.382  1.00  0.00    -0.299 A  
HETATM   16  C   UNL     1     -11.121   9.457  68.208  1.00  0.00     0.005 A  
HETATM   17  C   UNL     1     -10.181   8.425  68.044  1.00  0.00    -0.263 A  
BRANCH  15  18
HETATM   18  C   UNL     1     -12.028  11.437  69.528  1.00  0.00    -0.409 C  
BRANCH  18  19
HETATM   19  C   UNL     1     -11.337  12.722  69.057  1.00  0.00    -0.294 C  
HETATM   20  S   UNL     1     -10.963  12.754  67.265  1.00  0.00    -0.272 SA 
HETATM   21  C   UNL     1     -11.653  14.337  67.058  1.00  0.00    -0.386 C  
HETATM   22  N   UNL     1     -12.356  14.686  68.159  1.00  0.00    -0.592 N  
HETATM   23  O   UNL     1     -11.488  15.031  66.071  1.00  0.00    -0.321 OA 
HETATM   24  C   UNL     1     -12.198  13.943  69.291  1.00  0.00    -0.277 C  
HETATM   25  H   UNL     1     -12.989  15.485  68.143  1.00  0.00     0.000 HD 
HETATM   26  O   UNL     1     -12.650  14.280  70.377  1.00  0.00    -0.340 OA 
ENDBRANCH  18  19
ENDBRANCH  15  18
ENDBRANCH  11  12
ENDBRANCH  10  11
ENDBRANCH   9  10
ENDBRANCH   6   9
ENDBRANCH   2   3
TORSDOF 7
ENDMDL
MODEL      240
REMARK 921   NORMALIZED FREE ENERGY PREDICTED BY IDOCK:   -3.80 KCAL/MOL
REMARK 922        TOTAL FREE ENERGY PREDICTED BY IDOCK:   -6.50 KCAL/MOL
REMARK 923 INTER-LIGAND FREE ENERGY PREDICTED BY IDOCK:   -6.00 KCAL/MOL
REMARK 924 INTRA-LIGAND FREE ENERGY PREDICTED BY IDOCK:   -0.50 KCAL/MOL
REMARK 927      BINDING AFFINITY PREDICTED BY RF-SCORE:    0.00 PKD
ROOT
HETATM    1  C   UNL     1     -12.029  16.100  71.870  1.00  0.00    -0.583 C  
HETATM    2  C   UNL     1     -12.469  15.273  70.670  1.00  0.00    -0.458 C  
ENDROOT
BRANCH   2   3
HETATM    3  C   UNL     1     -12.646  13.826  71.027  1.00  0.00    -0.446 A  
HETATM    4  C   UNL     1     -13.387  13.452  72.137  1.00  0.00    -0.520 A  
HETATM    5  N   UNL     1     -13.557  12.174  72.533  1.00  0.00    -0.123 NA 
HETATM    6  C   UNL     1     -12.979  11.188  71.801  1.00  0.00    -0.421 A  
HETATM    7  C   UNL     1     -12.211  11.469  70.678  1.00  0.00    -0.473 A  
HETATM    8  C   UNL     1     -12.046  12.802  70.291  1.00  0.00    -0.373 A  
BRANCH   6   9
HETATM    9  C   UNL     1     -13.178   9.763  72.284  1.00  0.00    -0.468 C  
BRANCH   9  10
HETATM   10  C   UNL     1     -12.612   8.793  71.249  1.00  0.00    -0.246 C  
BRANCH  10  11
HETATM   11  O   UNL     1     -11.283   8.339  71.538  1.00  0.00    -0.244 OA 
BRANCH  11  12
HETATM   12  C   UNL     1     -10.396   8.581  70.504  1.00  0.00    -0.200 A  
HETATM   13  C   UNL     1      -9.067   8.981  70.674  1.00  0.00    -0.280 A  
HETATM   14  C   UNL     1      -8.216   9.139  69.583  1.00  0.00    -0.116 A  
HETATM   15  C   UNL     1      -8.671   8.880  68.289  1.00  0.00    -0.134 A  
HETATM   16  C   UNL     1     -10.018   8.536  68.104  1.00  0.00    -0.214 A  
HETATM   17  C   UNL     1     -10.873   8.384  69.209  1.00  0.00    -0.069 A  
BRANCH  15  18
HETATM   18  C   UNL     1      -7.689   8.899  67.140  1.00  0.00    -0.095 C  
BRANCH  18  19
HETATM   19  C   UNL     1      -7.076   7.517  66.879  1.00  0.00    -0.084 C  
HETATM   20  S   UNL     1      -6.458   6.679  68.384  1.00  0.00    -0.051 SA 
HETATM   21  C   UNL     1      -7.274   5.192  67.999  1.00  0.00    -0.067 C  
HETATM   22  N   UNL     1      -8.159   5.392  66.996  1.00  0.00    -0.101 N  
HETATM   23  O   UNL     1      -7.045   4.126  68.542  1.00  0.00    -0.053 OA 
HETATM   24  C   UNL     1      -8.086   6.556  66.291  1.00  0.00    -0.115 C  
HETATM   25  H   UNL     1      -8.864   4.690  66.773  1.00  0.00     0.000 HD 
HETATM   26  O   UNL     1      -8.720   6.752  65.262  1.00  0.00    -0.064 OA 
ENDBRANCH  18  19
ENDBRANCH  15  18
ENDBRANCH  11  12
ENDBRANCH  10  11
ENDBRANCH   9  10
ENDBRANCH   6   9
ENDBRANCH   2   3
TORSDOF 7
ENDMDL
MODEL      241
REMARK 921   NORMALIZED FREE ENERGY PREDICTED BY IDOCK:   -3.78 KCAL/MOL
REMARK 922        TOTAL FREE ENERGY PREDICTED BY IDOCK:   -6.48 KCAL/MOL
REMARK 923 INTER-LIGAND FREE ENERGY PREDICTED BY IDOCK:   -6.36 KCAL/MOL
REMARK 924 INTRA-LIGAND FREE ENERGY PREDICTED BY IDOCK:   -0.11 KCAL/MOL
REMARK 927      BINDING AFFINITY PREDICTED BY RF-SCORE:    0.00 PKD
ROOT
HETATM    1  C   UNL     1      -8.901   9.410  62.380  1.00  0.00    -0.257 C  
HETATM    2  C   UNL     1      -8.667   9.636  63.866  1.00  0.00    -0.241 C  
ENDROOT
BRANCH   2   3
HETATM    3  C   UNL     1      -9.584  10.689  64.419  1.00  0.00    -0.349 A  
HETATM    4  C   UNL     1      -9.553  11.024  65.764  1.00  0.00    -0.222 A  
HETATM    5  N   UNL     1     -10.369  11.934  66.332  1.00  0.00    -0.214 NA 
HETATM    6  C   UNL     1     -11.273  12.573  65.545  1.00  0.00    -0.314 A  
HETATM    7  C   UNL     1     -11.382  12.295  64.188  1.00  0.00    -0.442 A  
HETATM    8  C   UNL     1     -10.527  11.343  63.625  1.00  0.00    -0.472 A  
BRANCH   6   9
HETATM    9  C   UNL     1     -12.187  13.578  66.220  1.00  0.00    -0.468 C  
BRANCH   9  10
HETATM   10  C   UNL     1     -11.530  14.077  67.506  1.00  0.00    -0.343 C  
BRANCH  10  11
HETATM   11  O   UNL     1     -11.795  15.454  67.802  1.00  0.00    -0.248 OA 
BRANCH  11  12
HETATM   12  C   UNL     1     -10.652  16.234  67.801  1.00  0.00    -0.314 A  
HETATM   13  C   UNL     1      -9.943  16.607  68.946  1.00  0.00    -0.271 A  
HETATM   14  C   UNL     1      -8.760  17.337  68.856  1.00  0.00    -0.172 A  
HETATM   15  C   UNL     1      -8.245  17.697  67.610  1.00  0.00    -0.225 A  
HETATM   16  C   UNL     1      -8.980  17.379  66.459  1.00  0.00    -0.285 A  
HETATM   17  C   UNL     1     -10.176  16.646  66.557  1.00  0.00    -0.314 A  
BRANCH  15  18
HETATM   18  C   UNL     1      -6.882  18.345  67.530  1.00  0.00    -0.205 C  
BRANCH  18  19
HETATM   19  C   UNL     1      -5.779  17.446  68.102  1.00  0.00    -0.143 C  
HETATM   20  S   UNL     1      -5.563  17.592  69.914  1.00  0.00    -0.250 SA 
HETATM   21  C   UNL     1      -5.588  15.868  70.146  1.00  0.00    -0.162 C  
HETATM   22  N   UNL     1      -6.009  15.253  69.018  1.00  0.00    -0.097 N  
HETATM   23  O   UNL     1      -5.240  15.312  71.171  1.00  0.00    -0.141 OA 
HETATM   24  C   UNL     1      -6.069  15.979  67.867  1.00  0.00    -0.133 C  
HETATM   25  H   UNL     1      -6.276  14.268  69.028  1.00  0.00     0.000 HD 
HETATM   26  O   UNL     1      -6.266  15.474  66.770  1.00  0.00    -0.082 OA 
ENDBRANCH  18  19
ENDBRANCH  15  18
ENDBRANCH  11  12
ENDBRANCH  10  11
ENDBRANCH   9  10
ENDBRANCH   6   9
ENDBRANCH   2   3
TORSDOF 7
ENDMDL
MODEL      242
REMARK 921   NORMALIZED FREE ENERGY PREDICTED BY IDOCK:   -3.72 KCAL/MOL
REMARK 922        TOTAL FREE ENERGY PREDICTED BY IDOCK:   -6.39 KCAL/MOL
REMARK 923 INTER-LIGAND FREE ENERGY PREDICTED BY IDOCK:   -4.78 KCAL/MOL
REMARK 924 INTRA-LIGAND FREE ENERGY PREDICTED BY IDOCK:   -1.61 KCAL/MOL
REMARK 927      BINDING AFFINITY PREDICTED BY RF-SCORE:    0.00 PKD
ROOT
HETATM    1  C   UNL     1     -12.224  11.496  70.640  1.00  0.00    -0.473 C  
HETATM    2  C   UNL     1     -11.383  10.449  69.924  1.00  0.00    -0.370 C  
ENDROOT
BRANCH   2   3
HETATM    3  C   UNL     1     -11.440   9.119  70.619  1.00  0.00    -0.310 A  
HETATM    4  C   UNL     1     -11.749   9.035  71.967  1.00  0.00    -0.347 A  
HETATM    5  N   UNL     1     -11.784   7.878  72.661  1.00  0.00    -0.367 NA 
HETATM    6  C   UNL     1     -11.511   6.722  72.004  1.00  0.00    -0.282 A  
HETATM    7  C   UNL     1     -11.182   6.711  70.654  1.00  0.00    -0.370 A  
HETATM    8  C   UNL     1     -11.148   7.924  69.959  1.00  0.00    -0.165 A  
BRANCH   6   9
HETATM    9  C   UNL     1     -11.544   5.441  72.817  1.00  0.00    -0.293 C  
BRANCH   9  10
HETATM   10  C   UNL     1     -10.165   4.785  72.784  1.00  0.00    -0.182 C  
BRANCH  10  11
HETATM   11  O   UNL     1      -9.145   5.533  73.458  1.00  0.00    -0.129 OA 
BRANCH  11  12
HETATM   12  C   UNL     1      -8.409   6.332  72.599  1.00  0.00    -0.120 A  
HETATM   13  C   UNL     1      -7.795   5.883  71.427  1.00  0.00    -0.112 A  
HETATM   14  C   UNL     1      -7.129   6.765  70.579  1.00  0.00    -0.068 A  
HETATM   15  C   UNL     1      -7.078   8.128  70.875  1.00  0.00    -0.050 A  
HETATM   16  C   UNL     1      -7.640   8.578  72.079  1.00  0.00    -0.132 A  
HETATM   17  C   UNL     1      -8.306   7.682  72.933  1.00  0.00    -0.176 A  
BRANCH  15  18
HETATM   18  C   UNL     1      -6.495   9.086  69.862  1.00  0.00    -0.038 C  
BRANCH  18  19
HETATM   19  C   UNL     1      -7.477  10.201  69.486  1.00  0.00    -0.133 C  
HETATM   20  S   UNL     1      -6.714  11.861  69.372  1.00  0.00    -0.040 SA 
HETATM   21  C   UNL     1      -7.436  12.185  67.824  1.00  0.00    -0.122 C  
HETATM   22  N   UNL     1      -7.960  11.051  67.307  1.00  0.00    -0.121 N  
HETATM   23  O   UNL     1      -7.484  13.288  67.310  1.00  0.00    -0.145 OA 
HETATM   24  C   UNL     1      -8.098   9.970  68.125  1.00  0.00    -0.108 C  
HETATM   25  H   UNL     1      -8.245  11.005  66.329  1.00  0.00     0.000 HD 
HETATM   26  O   UNL     1      -8.717   8.965  67.803  1.00  0.00    -0.125 OA 
ENDBRANCH  18  19
ENDBRANCH  15  18
ENDBRANCH  11  12
ENDBRANCH  10  11
ENDBRANCH   9  10
ENDBRANCH   6   9
ENDBRANCH   2   3
TORSDOF 7
ENDMDL
MODEL      243
REMARK 921   NORMALIZED FREE ENERGY PREDICTED BY IDOCK:   -3.72 KCAL/MOL
REMARK 922        TOTAL FREE ENERGY PREDICTED BY IDOCK:   -6.38 KCAL/MOL
REMARK 923 INTER-LIGAND FREE ENERGY PREDICTED BY IDOCK:   -6.00 KCAL/MOL
REMARK 924 INTRA-LIGAND FREE ENERGY PREDICTED BY IDOCK:   -0.39 KCAL/MOL
REMARK 927      BINDING AFFINITY PREDICTED BY RF-SCORE:    0.00 PKD
ROOT
HETATM    1  C   UNL     1      -5.864  18.663  69.856  1.00  0.00    -0.252 C  
HETATM    2  C   UNL     1      -6.148  17.190  69.601  1.00  0.00    -0.241 C  
ENDROOT
BRANCH   2   3
HETATM    3  C   UNL     1      -7.410  16.995  68.812  1.00  0.00    -0.236 A  
HETATM    4  C   UNL     1      -7.984  15.740  68.687  1.00  0.00    -0.155 A  
HETATM    5  N   UNL     1      -9.096  15.488  67.966  1.00  0.00    -0.181 NA 
HETATM    6  C   UNL     1      -9.702  16.524  67.330  1.00  0.00    -0.247 A  
HETATM    7  C   UNL     1      -9.192  17.815  67.391  1.00  0.00    -0.248 A  
HETATM    8  C   UNL     1      -8.036  18.048  68.141  1.00  0.00    -0.270 A  
BRANCH   6   9
HETATM    9  C   UNL     1     -10.941  16.203  66.515  1.00  0.00    -0.047 C  
BRANCH   9  10
HETATM   10  C   UNL     1     -10.523  15.642  65.157  1.00  0.00    -0.389 C  
BRANCH  10  11
HETATM   11  O   UNL     1     -11.444  14.691  64.608  1.00  0.00    -0.393 OA 
BRANCH  11  12
HETATM   12  C   UNL     1     -11.125  13.384  64.936  1.00  0.00    -0.335 A  
HETATM   13  C   UNL     1     -10.178  12.605  64.266  1.00  0.00    -0.358 A  
HETATM   14  C   UNL     1      -9.864  11.320  64.701  1.00  0.00    -0.314 A  
HETATM   15  C   UNL     1     -10.480  10.787  65.835  1.00  0.00    -0.270 A  
HETATM   16  C   UNL     1     -11.474  11.538  66.478  1.00  0.00    -0.178 A  
HETATM   17  C   UNL     1     -11.790  12.833  66.031  1.00  0.00    -0.495 A  
BRANCH  15  18
HETATM   18  C   UNL     1     -10.006   9.460  66.382  1.00  0.00    -0.346 C  
BRANCH  18  19
HETATM   19  C   UNL     1      -8.572   9.534  66.921  1.00  0.00    -0.128 C  
HETATM   20  S   UNL     1      -7.334  10.053  65.678  1.00  0.00    -0.133 SA 
HETATM   21  C   UNL     1      -6.639  11.246  66.736  1.00  0.00    -0.140 C  
HETATM   22  N   UNL     1      -7.440  11.441  67.807  1.00  0.00    -0.095 N  
HETATM   23  O   UNL     1      -5.568  11.791  66.541  1.00  0.00    -0.253 OA 
HETATM   24  C   UNL     1      -8.443  10.547  68.038  1.00  0.00    -0.120 C  
HETATM   25  H   UNL     1      -7.299  12.238  68.427  1.00  0.00     0.000 HD 
HETATM   26  O   UNL     1      -9.103  10.538  69.069  1.00  0.00    -0.171 OA 
ENDBRANCH  18  19
ENDBRANCH  15  18
ENDBRANCH  11  12
ENDBRANCH  10  11
ENDBRANCH   9  10
ENDBRANCH   6   9
ENDBRANCH   2   3
TORSDOF 7
ENDMDL
MODEL      244
REMARK 921   NORMALIZED FREE ENERGY PREDICTED BY IDOCK:   -3.71 KCAL/MOL
REMARK 922        TOTAL FREE ENERGY PREDICTED BY IDOCK:   -6.37 KCAL/MOL
REMARK 923 INTER-LIGAND FREE ENERGY PREDICTED BY IDOCK:   -5.85 KCAL/MOL
REMARK 924 INTRA-LIGAND FREE ENERGY PREDICTED BY IDOCK:   -0.52 KCAL/MOL
REMARK 927      BINDING AFFINITY PREDICTED BY RF-SCORE:    0.00 PKD
ROOT
HETATM    1  C   UNL     1     -12.860  13.941  65.290  1.00  0.00    -0.437 C  
HETATM    2  C   UNL     1     -12.121  14.121  66.608  1.00  0.00    -0.480 C  
ENDROOT
BRANCH   2   3
HETATM    3  C   UNL     1     -10.862  13.305  66.656  1.00  0.00    -0.289 A  
HETATM    4  C   UNL     1     -10.895  11.935  66.451  1.00  0.00    -0.279 A  
HETATM    5  N   UNL     1      -9.809  11.138  66.514  1.00  0.00    -0.203 NA 
HETATM    6  C   UNL     1      -8.605  11.705  66.785  1.00  0.00    -0.180 A  
HETATM    7  C   UNL     1      -8.478  13.069  67.013  1.00  0.00    -0.142 A  
HETATM    8  C   UNL     1      -9.620  13.873  66.947  1.00  0.00    -0.271 A  
BRANCH   6   9
HETATM    9  C   UNL     1      -7.407  10.777  66.864  1.00  0.00    -0.119 C  
BRANCH   9  10
HETATM   10  C   UNL     1      -6.743  10.922  68.232  1.00  0.00    -0.063 C  
BRANCH  10  11
HETATM   11  O   UNL     1      -6.089   9.733  68.694  1.00  0.00    -0.042 OA 
BRANCH  11  12
HETATM   12  C   UNL     1      -6.962   8.833  69.280  1.00  0.00    -0.058 A  
HETATM   13  C   UNL     1      -7.206   7.540  68.808  1.00  0.00    -0.082 A  
HETATM   14  C   UNL     1      -8.049   6.670  69.494  1.00  0.00    -0.126 A  
HETATM   15  C   UNL     1      -8.656   7.067  70.686  1.00  0.00    -0.147 A  
HETATM   16  C   UNL     1      -8.465   8.381  71.135  1.00  0.00    -0.178 A  
HETATM   17  C   UNL     1      -7.617   9.257  70.435  1.00  0.00    -0.132 A  
BRANCH  15  18
HETATM   18  C   UNL     1      -9.433   6.054  71.496  1.00  0.00    -0.164 C  
BRANCH  18  19
HETATM   19  C   UNL     1     -10.916   6.422  71.616  1.00  0.00    -0.257 C  
HETATM   20  S   UNL     1     -11.267   7.698  72.881  1.00  0.00    -0.316 SA 
HETATM   21  C   UNL     1     -12.236   8.643  71.789  1.00  0.00    -0.343 C  
HETATM   22  N   UNL     1     -12.074   8.200  70.521  1.00  0.00    -0.482 N  
HETATM   23  O   UNL     1     -12.975   9.546  72.137  1.00  0.00    -0.396 OA 
HETATM   24  C   UNL     1     -11.459   7.000  70.327  1.00  0.00    -0.287 C  
HETATM   25  H   UNL     1     -12.404   8.752  69.729  1.00  0.00     0.000 HD 
HETATM   26  O   UNL     1     -11.424   6.437  69.241  1.00  0.00    -0.381 OA 
ENDBRANCH  18  19
ENDBRANCH  15  18
ENDBRANCH  11  12
ENDBRANCH  10  11
ENDBRANCH   9  10
ENDBRANCH   6   9
ENDBRANCH   2   3
TORSDOF 7
ENDMDL
MODEL      245
REMARK 921   NORMALIZED FREE ENERGY PREDICTED BY IDOCK:   -3.67 KCAL/MOL
REMARK 922        TOTAL FREE ENERGY PREDICTED BY IDOCK:   -6.31 KCAL/MOL
REMARK 923 INTER-LIGAND FREE ENERGY PREDICTED BY IDOCK:   -5.50 KCAL/MOL
REMARK 924 INTRA-LIGAND FREE ENERGY PREDICTED BY IDOCK:   -0.81 KCAL/MOL
REMARK 927      BINDING AFFINITY PREDICTED BY RF-SCORE:    0.00 PKD
ROOT
HETATM    1  C   UNL     1      -6.300  10.704  65.862  1.00  0.00    -0.128 C  
HETATM    2  C   UNL     1      -6.766   9.918  67.080  1.00  0.00    -0.075 C  
ENDROOT
BRANCH   2   3
HETATM    3  C   UNL     1      -8.133  10.348  67.529  1.00  0.00    -0.107 A  
HETATM    4  C   UNL     1      -8.535  10.177  68.844  1.00  0.00    -0.139 A  
HETATM    5  N   UNL     1      -9.757  10.509  69.307  1.00  0.00    -0.215 NA 
HETATM    6  C   UNL     1     -10.651  11.053  68.441  1.00  0.00    -0.193 A  
HETATM    7  C   UNL     1     -10.338  11.253  67.102  1.00  0.00    -0.244 A  
HETATM    8  C   UNL     1      -9.066  10.896  66.647  1.00  0.00    -0.175 A  
BRANCH   6   9
HETATM    9  C   UNL     1     -12.022  11.399  68.991  1.00  0.00    -0.387 C  
BRANCH   9  10
HETATM   10  C   UNL     1     -12.035  11.166  70.501  1.00  0.00    -0.380 C  
BRANCH  10  11
HETATM   11  O   UNL     1     -13.036  10.239  70.941  1.00  0.00    -0.386 OA 
BRANCH  11  12
HETATM   12  C   UNL     1     -12.503   9.039  71.378  1.00  0.00    -0.317 A  
HETATM   13  C   UNL     1     -11.264   8.904  72.011  1.00  0.00    -0.422 A  
HETATM   14  C   UNL     1     -10.826   7.669  72.483  1.00  0.00    -0.367 A  
HETATM   15  C   UNL     1     -11.631   6.537  72.351  1.00  0.00    -0.292 A  
HETATM   16  C   UNL     1     -12.849   6.651  71.665  1.00  0.00    -0.234 A  
HETATM   17  C   UNL     1     -13.282   7.899  71.185  1.00  0.00    -0.107 A  
BRANCH  15  18
HETATM   18  C   UNL     1     -11.210   5.246  73.014  1.00  0.00    -0.387 C  
BRANCH  18  19
HETATM   19  C   UNL     1     -10.110   4.522  72.228  1.00  0.00    -0.191 C  
HETATM   20  S   UNL     1     -10.038   4.977  70.457  1.00  0.00    -0.244 SA 
HETATM   21  C   UNL     1      -8.321   5.249  70.504  1.00  0.00    -0.112 C  
HETATM   22  N   UNL     1      -7.889   5.280  71.785  1.00  0.00    -0.108 N  
HETATM   23  O   UNL     1      -7.618   5.358  69.515  1.00  0.00    -0.068 OA 
HETATM   24  C   UNL     1      -8.731   4.842  72.763  1.00  0.00    -0.121 C  
HETATM   25  H   UNL     1      -6.957   5.624  72.014  1.00  0.00     0.000 HD 
HETATM   26  O   UNL     1      -8.374   4.667  73.921  1.00  0.00    -0.103 OA 
ENDBRANCH  18  19
ENDBRANCH  15  18
ENDBRANCH  11  12
ENDBRANCH  10  11
ENDBRANCH   9  10
ENDBRANCH   6   9
ENDBRANCH   2   3
TORSDOF 7
ENDMDL
MODEL      246
REMARK 921   NORMALIZED FREE ENERGY PREDICTED BY IDOCK:   -3.66 KCAL/MOL
REMARK 922        TOTAL FREE ENERGY PREDICTED BY IDOCK:   -6.31 KCAL/MOL
REMARK 923 INTER-LIGAND FREE ENERGY PREDICTED BY IDOCK:   -5.52 KCAL/MOL
REMARK 924 INTRA-LIGAND FREE ENERGY PREDICTED BY IDOCK:   -0.79 KCAL/MOL
REMARK 927      BINDING AFFINITY PREDICTED BY RF-SCORE:    0.00 PKD
ROOT
HETATM    1  C   UNL     1     -11.002   5.758  68.294  1.00  0.00    -0.152 C  
HETATM    2  C   UNL     1     -10.722   5.984  69.772  1.00  0.00    -0.399 C  
ENDROOT
BRANCH   2   3
HETATM    3  C   UNL     1      -9.628   6.991  69.983  1.00  0.00    -0.164 A  
HETATM    4  C   UNL     1      -8.304   6.594  70.073  1.00  0.00    -0.135 A  
HETATM    5  N   UNL     1      -7.277   7.440  70.296  1.00  0.00    -0.064 NA 
HETATM    6  C   UNL     1      -7.549   8.764  70.432  1.00  0.00    -0.082 A  
HETATM    7  C   UNL     1      -8.848   9.252  70.366  1.00  0.00    -0.271 A  
HETATM    8  C   UNL     1      -9.894   8.353  70.139  1.00  0.00    -0.183 A  
BRANCH   6   9
HETATM    9  C   UNL     1      -6.373   9.686  70.697  1.00  0.00    -0.097 C  
BRANCH   9  10
HETATM   10  C   UNL     1      -6.600  11.016  69.982  1.00  0.00    -0.134 C  
BRANCH  10  11
HETATM   11  O   UNL     1      -6.109  11.048  68.636  1.00  0.00    -0.043 OA 
BRANCH  11  12
HETATM   12  C   UNL     1      -7.113  11.244  67.703  1.00  0.00    -0.090 A  
HETATM   13  C   UNL     1      -7.642  10.243  66.883  1.00  0.00    -0.105 A  
HETATM   14  C   UNL     1      -8.700  10.505  66.016  1.00  0.00    -0.174 A  
HETATM   15  C   UNL     1      -9.270  11.778  65.962  1.00  0.00    -0.202 A  
HETATM   16  C   UNL     1      -8.707  12.803  66.737  1.00  0.00    -0.125 A  
HETATM   17  C   UNL     1      -7.636  12.532  67.606  1.00  0.00    -0.145 A  
BRANCH  15  18
HETATM   18  C   UNL     1     -10.518  11.998  65.138  1.00  0.00    -0.328 C  
BRANCH  18  19
HETATM   19  C   UNL     1     -11.747  12.279  66.011  1.00  0.00    -0.388 C  
HETATM   20  S   UNL     1     -11.504  11.900  67.785  1.00  0.00    -0.317 SA 
HETATM   21  C   UNL     1     -12.137  13.438  68.293  1.00  0.00    -0.236 C  
HETATM   22  N   UNL     1     -12.248  14.269  67.232  1.00  0.00    -0.597 N  
HETATM   23  O   UNL     1     -12.461  13.700  69.437  1.00  0.00    -0.233 OA 
HETATM   24  C   UNL     1     -12.136  13.741  65.981  1.00  0.00    -0.436 C  
HETATM   25  H   UNL     1     -12.410  15.267  67.365  1.00  0.00     0.000 HD 
HETATM   26  O   UNL     1     -12.395  14.374  64.966  1.00  0.00    -0.416 OA 
ENDBRANCH  18  19
ENDBRANCH  15  18
ENDBRANCH  11  12
ENDBRANCH  10  11
ENDBRANCH   9  10
ENDBRANCH   6   9
ENDBRANCH   2   3
TORSDOF 7
ENDMDL
MODEL      247
REMARK 921   NORMALIZED FREE ENERGY PREDICTED BY IDOCK:   -3.66 KCAL/MOL
REMARK 922        TOTAL FREE ENERGY PREDICTED BY IDOCK:   -6.30 KCAL/MOL
REMARK 923 INTER-LIGAND FREE ENERGY PREDICTED BY IDOCK:   -5.79 KCAL/MOL
REMARK 924 INTRA-LIGAND FREE ENERGY PREDICTED BY IDOCK:   -0.51 KCAL/MOL
REMARK 927      BINDING AFFINITY PREDICTED BY RF-SCORE:    0.00 PKD
ROOT
HETATM    1  C   UNL     1      -8.314  13.405  67.346  1.00  0.00    -0.193 C  
HETATM    2  C   UNL     1      -9.776  13.825  67.298  1.00  0.00    -0.242 C  
ENDROOT
BRANCH   2   3
HETATM    3  C   UNL     1     -10.631  12.964  68.181  1.00  0.00    -0.249 A  
HETATM    4  C   UNL     1     -10.967  11.673  67.806  1.00  0.00    -0.233 A  
HETATM    5  N   UNL     1     -11.758  10.858  68.534  1.00  0.00    -0.452 NA 
HETATM    6  C   UNL     1     -12.252  11.320  69.712  1.00  0.00    -0.275 A  
HETATM    7  C   UNL     1     -11.976  12.605  70.163  1.00  0.00    -0.375 A  
HETATM    8  C   UNL     1     -11.158  13.430  69.387  1.00  0.00    -0.160 A  
BRANCH   6   9
HETATM    9  C   UNL     1     -13.151  10.384  70.497  1.00  0.00    -0.203 C  
BRANCH   9  10
HETATM   10  C   UNL     1     -12.388   9.844  71.705  1.00  0.00    -0.368 C  
BRANCH  10  11
HETATM   11  O   UNL     1     -10.992   9.625  71.465  1.00  0.00    -0.348 OA 
BRANCH  11  12
HETATM   12  C   UNL     1     -10.719   8.346  71.012  1.00  0.00    -0.223 A  
HETATM   13  C   UNL     1     -11.676   7.342  70.842  1.00  0.00    -0.325 A  
HETATM   14  C   UNL     1     -11.332   6.100  70.315  1.00  0.00    -0.414 A  
HETATM   15  C   UNL     1     -10.018   5.837  69.926  1.00  0.00    -0.254 A  
HETATM   16  C   UNL     1      -9.040   6.816  70.148  1.00  0.00    -0.155 A  
HETATM   17  C   UNL     1      -9.393   8.066  70.685  1.00  0.00    -0.162 A  
BRANCH  15  18
HETATM   18  C   UNL     1      -9.701   4.545  69.208  1.00  0.00    -0.260 C  
BRANCH  18  19
HETATM   19  C   UNL     1      -9.338   4.774  67.735  1.00  0.00    -0.136 C  
HETATM   20  S   UNL     1     -10.182   6.208  66.974  1.00  0.00    -0.232 SA 
HETATM   21  C   UNL     1      -8.704   6.842  66.313  1.00  0.00    -0.146 C  
HETATM   22  N   UNL     1      -7.641   6.204  66.854  1.00  0.00    -0.097 N  
HETATM   23  O   UNL     1      -8.652   7.711  65.462  1.00  0.00    -0.143 OA 
HETATM   24  C   UNL     1      -7.862   5.058  67.557  1.00  0.00    -0.095 C  
HETATM   25  H   UNL     1      -6.697   6.571  66.739  1.00  0.00     0.000 HD 
HETATM   26  O   UNL     1      -6.960   4.321  67.931  1.00  0.00    -0.054 OA 
ENDBRANCH  18  19
ENDBRANCH  15  18
ENDBRANCH  11  12
ENDBRANCH  10  11
ENDBRANCH   9  10
ENDBRANCH   6   9
ENDBRANCH   2   3
TORSDOF 7
ENDMDL
MODEL      248
REMARK 921   NORMALIZED FREE ENERGY PREDICTED BY IDOCK:   -3.65 KCAL/MOL
REMARK 922        TOTAL FREE ENERGY PREDICTED BY IDOCK:   -6.28 KCAL/MOL
REMARK 923 INTER-LIGAND FREE ENERGY PREDICTED BY IDOCK:   -5.64 KCAL/MOL
REMARK 924 INTRA-LIGAND FREE ENERGY PREDICTED BY IDOCK:   -0.64 KCAL/MOL
REMARK 927      BINDING AFFINITY PREDICTED BY RF-SCORE:    0.00 PKD
ROOT
HETATM    1  C   UNL     1      -7.795   2.169  67.489  1.00  0.00    -0.060 C  
HETATM    2  C   UNL     1      -8.008   3.080  68.689  1.00  0.00    -0.064 C  
ENDROOT
BRANCH   2   3
HETATM    3  C   UNL     1      -8.666   4.371  68.297  1.00  0.00    -0.116 A  
HETATM    4  C   UNL     1      -9.834   4.376  67.552  1.00  0.00    -0.128 A  
HETATM    5  N   UNL     1     -10.458   5.498  67.138  1.00  0.00    -0.249 NA 
HETATM    6  C   UNL     1      -9.921   6.699  67.475  1.00  0.00    -0.135 A  
HETATM    7  C   UNL     1      -8.747   6.790  68.211  1.00  0.00    -0.123 A  
HETATM    8  C   UNL     1      -8.117   5.613  68.624  1.00  0.00    -0.100 A  
BRANCH   6   9
HETATM    9  C   UNL     1     -10.640   7.940  66.979  1.00  0.00    -0.381 C  
BRANCH   9  10
HETATM   10  C   UNL     1      -9.623   8.908  66.377  1.00  0.00    -0.238 C  
BRANCH  10  11
HETATM   11  O   UNL     1     -10.158   9.759  65.356  1.00  0.00    -0.305 OA 
BRANCH  11  12
HETATM   12  C   UNL     1     -10.086  11.102  65.683  1.00  0.00    -0.253 A  
HETATM   13  C   UNL     1     -11.101  12.033  65.447  1.00  0.00    -0.369 A  
HETATM   14  C   UNL     1     -10.980  13.354  65.869  1.00  0.00    -0.284 A  
HETATM   15  C   UNL     1      -9.840  13.774  66.558  1.00  0.00    -0.294 A  
HETATM   16  C   UNL     1      -8.792  12.863  66.746  1.00  0.00    -0.152 A  
HETATM   17  C   UNL     1      -8.919  11.531  66.313  1.00  0.00    -0.199 A  
BRANCH  15  18
HETATM   18  C   UNL     1      -9.801  15.166  67.147  1.00  0.00    -0.228 C  
BRANCH  18  19
HETATM   19  C   UNL     1      -9.263  16.201  66.153  1.00  0.00    -0.347 C  
HETATM   20  S   UNL     1     -10.234  17.752  66.092  1.00  0.00    -0.283 SA 
HETATM   21  C   UNL     1      -8.818  18.750  66.235  1.00  0.00    -0.233 C  
HETATM   22  N   UNL     1      -7.751  17.998  66.588  1.00  0.00    -0.225 N  
HETATM   23  O   UNL     1      -8.800  19.947  66.013  1.00  0.00    -0.365 OA 
HETATM   24  C   UNL     1      -7.858  16.642  66.503  1.00  0.00    -0.307 C  
HETATM   25  H   UNL     1      -6.887  18.434  66.909  1.00  0.00     0.000 HD 
HETATM   26  O   UNL     1      -6.902  15.889  66.629  1.00  0.00    -0.204 OA 
ENDBRANCH  18  19
ENDBRANCH  15  18
ENDBRANCH  11  12
ENDBRANCH  10  11
ENDBRANCH   9  10
ENDBRANCH   6   9
ENDBRANCH   2   3
TORSDOF 7
ENDMDL
MODEL      249
REMARK 921   NORMALIZED FREE ENERGY PREDICTED BY IDOCK:   -3.63 KCAL/MOL
REMARK 922        TOTAL FREE ENERGY PREDICTED BY IDOCK:   -6.26 KCAL/MOL
REMARK 923 INTER-LIGAND FREE ENERGY PREDICTED BY IDOCK:   -5.78 KCAL/MOL
REMARK 924 INTRA-LIGAND FREE ENERGY PREDICTED BY IDOCK:   -0.47 KCAL/MOL
REMARK 927      BINDING AFFINITY PREDICTED BY RF-SCORE:    0.00 PKD
ROOT
HETATM    1  C   UNL     1      -6.409  20.868  65.968  1.00  0.00    -0.284 C  
HETATM    2  C   UNL     1      -6.587  20.994  67.474  1.00  0.00    -0.438 C  
ENDROOT
BRANCH   2   3
HETATM    3  C   UNL     1      -6.443  19.668  68.164  1.00  0.00    -0.280 A  
HETATM    4  C   UNL     1      -7.535  18.832  68.331  1.00  0.00    -0.298 A  
HETATM    5  N   UNL     1      -7.484  17.645  68.970  1.00  0.00    -0.215 NA 
HETATM    6  C   UNL     1      -6.292  17.233  69.475  1.00  0.00    -0.235 A  
HETATM    7  C   UNL     1      -5.146  18.011  69.363  1.00  0.00    -0.183 A  
HETATM    8  C   UNL     1      -5.228  19.239  68.700  1.00  0.00    -0.194 A  
BRANCH   6   9
HETATM    9  C   UNL     1      -6.274  15.901  70.201  1.00  0.00    -0.058 C  
BRANCH   9  10
HETATM   10  C   UNL     1      -5.534  14.871  69.351  1.00  0.00    -0.091 C  
BRANCH  10  11
HETATM   11  O   UNL     1      -5.874  14.909  67.958  1.00  0.00    -0.127 OA 
BRANCH  11  12
HETATM   12  C   UNL     1      -7.119  14.366  67.694  1.00  0.00    -0.183 A  
HETATM   13  C   UNL     1      -7.583  13.153  68.211  1.00  0.00    -0.139 A  
HETATM   14  C   UNL     1      -8.877  12.707  67.952  1.00  0.00    -0.182 A  
HETATM   15  C   UNL     1      -9.749  13.478  67.181  1.00  0.00    -0.244 A  
HETATM   16  C   UNL     1      -9.273  14.666  66.609  1.00  0.00    -0.291 A  
HETATM   17  C   UNL     1      -7.964  15.108  66.870  1.00  0.00    -0.155 A  
BRANCH  15  18
HETATM   18  C   UNL     1     -11.194  13.055  67.050  1.00  0.00    -0.325 C  
BRANCH  18  19
HETATM   19  C   UNL     1     -11.375  11.913  66.042  1.00  0.00    -0.316 C  
HETATM   20  S   UNL     1     -10.458  12.150  64.475  1.00  0.00    -0.323 SA 
HETATM   21  C   UNL     1      -9.780  10.549  64.526  1.00  0.00    -0.314 C  
HETATM   22  N   UNL     1      -9.986   9.995  65.742  1.00  0.00    -0.275 N  
HETATM   23  O   UNL     1      -9.234  10.008  63.581  1.00  0.00    -0.253 OA 
HETATM   24  C   UNL     1     -10.869  10.595  66.587  1.00  0.00    -0.131 C  
HETATM   25  H   UNL     1      -9.490   9.147  66.020  1.00  0.00     0.000 HD 
HETATM   26  O   UNL     1     -11.252  10.078  67.628  1.00  0.00    -0.248 OA 
ENDBRANCH  18  19
ENDBRANCH  15  18
ENDBRANCH  11  12
ENDBRANCH  10  11
ENDBRANCH   9  10
ENDBRANCH   6   9
ENDBRANCH   2   3
TORSDOF 7
ENDMDL
MODEL      250
REMARK 921   NORMALIZED FREE ENERGY PREDICTED BY IDOCK:   -3.62 KCAL/MOL
REMARK 922        TOTAL FREE ENERGY PREDICTED BY IDOCK:   -6.25 KCAL/MOL
REMARK 923 INTER-LIGAND FREE ENERGY PREDICTED BY IDOCK:   -5.39 KCAL/MOL
REMARK 924 INTRA-LIGAND FREE ENERGY PREDICTED BY IDOCK:   -0.86 KCAL/MOL
REMARK 927      BINDING AFFINITY PREDICTED BY RF-SCORE:    0.00 PKD
ROOT
HETATM    1  C   UNL     1     -14.362   7.191  71.864  1.00  0.00    -0.471 C  
HETATM    2  C   UNL     1     -13.306   8.277  71.722  1.00  0.00    -0.375 C  
ENDROOT
BRANCH   2   3
HETATM    3  C   UNL     1     -11.987   7.715  71.278  1.00  0.00    -0.330 A  
HETATM    4  C   UNL     1     -10.795   8.281  71.699  1.00  0.00    -0.256 A  
HETATM    5  N   UNL     1      -9.577   7.849  71.313  1.00  0.00    -0.156 NA 
HETATM    6  C   UNL     1      -9.506   6.789  70.466  1.00  0.00    -0.169 A  
HETATM    7  C   UNL     1     -10.649   6.164  69.984  1.00  0.00    -0.323 A  
HETATM    8  C   UNL     1     -11.899   6.635  70.397  1.00  0.00    -0.407 A  
BRANCH   6   9
HETATM    9  C   UNL     1      -8.121   6.339  70.039  1.00  0.00    -0.120 C  
BRANCH   9  10
HETATM   10  C   UNL     1      -7.594   7.281  68.957  1.00  0.00    -0.099 C  
BRANCH  10  11
HETATM   11  O   UNL     1      -7.065   8.514  69.461  1.00  0.00    -0.051 OA 
BRANCH  11  12
HETATM   12  C   UNL     1      -7.585   9.624  68.818  1.00  0.00    -0.076 A  
HETATM   13  C   UNL     1      -8.938   9.810  68.522  1.00  0.00    -0.124 A  
HETATM   14  C   UNL     1      -9.392  10.987  67.933  1.00  0.00    -0.160 A  
HETATM   15  C   UNL     1      -8.500  12.021  67.642  1.00  0.00    -0.160 A  
HETATM   16  C   UNL     1      -7.133  11.820  67.881  1.00  0.00    -0.087 A  
HETATM   17  C   UNL     1      -6.681  10.627  68.471  1.00  0.00    -0.056 A  
BRANCH  15  18
HETATM   18  C   UNL     1      -9.036  13.349  67.157  1.00  0.00    -0.235 C  
BRANCH  18  19
HETATM   19  C   UNL     1      -9.247  14.343  68.305  1.00  0.00    -0.201 C  
HETATM   20  S   UNL     1      -8.092  15.764  68.281  1.00  0.00    -0.146 SA 
HETATM   21  C   UNL     1      -9.373  16.923  68.483  1.00  0.00    -0.259 C  
HETATM   22  N   UNL     1     -10.573  16.329  68.293  1.00  0.00    -0.285 N  
HETATM   23  O   UNL     1      -9.198  18.089  68.785  1.00  0.00    -0.286 OA 
HETATM   24  C   UNL     1     -10.625  14.968  68.263  1.00  0.00    -0.247 C  
HETATM   25  H   UNL     1     -11.419  16.886  68.174  1.00  0.00     0.000 HD 
HETATM   26  O   UNL     1     -11.675  14.341  68.273  1.00  0.00    -0.306 OA 
ENDBRANCH  18  19
ENDBRANCH  15  18
ENDBRANCH  11  12
ENDBRANCH  10  11
ENDBRANCH   9  10
ENDBRANCH   6   9
ENDBRANCH   2   3
TORSDOF 7
ENDMDL
MODEL      251
REMARK 921   NORMALIZED FREE ENERGY PREDICTED BY IDOCK:   -3.62 KCAL/MOL
REMARK 922        TOTAL FREE ENERGY PREDICTED BY IDOCK:   -6.25 KCAL/MOL
REMARK 923 INTER-LIGAND FREE ENERGY PREDICTED BY IDOCK:   -5.98 KCAL/MOL
REMARK 924 INTRA-LIGAND FREE ENERGY PREDICTED BY IDOCK:   -0.26 KCAL/MOL
REMARK 927      BINDING AFFINITY PREDICTED BY RF-SCORE:    0.00 PKD
ROOT
HETATM    1  C   UNL     1      -9.503   2.065  70.761  1.00  0.00    -0.193 C  
HETATM    2  C   UNL     1      -8.567   2.688  71.787  1.00  0.00    -0.096 C  
ENDROOT
BRANCH   2   3
HETATM    3  C   UNL     1      -8.898   4.130  72.038  1.00  0.00    -0.135 A  
HETATM    4  C   UNL     1      -7.979   5.130  71.761  1.00  0.00    -0.111 A  
HETATM    5  N   UNL     1      -8.198   6.440  71.994  1.00  0.00    -0.109 NA 
HETATM    6  C   UNL     1      -9.392   6.812  72.523  1.00  0.00    -0.139 A  
HETATM    7  C   UNL     1     -10.370   5.878  72.842  1.00  0.00    -0.224 A  
HETATM    8  C   UNL     1     -10.116   4.526  72.595  1.00  0.00    -0.229 A  
BRANCH   6   9
HETATM    9  C   UNL     1      -9.599   8.292  72.788  1.00  0.00    -0.338 C  
BRANCH   9  10
HETATM   10  C   UNL     1     -10.255   8.937  71.568  1.00  0.00    -0.328 C  
BRANCH  10  11
HETATM   11  O   UNL     1      -9.326   9.405  70.582  1.00  0.00    -0.248 OA 
BRANCH  11  12
HETATM   12  C   UNL     1      -9.936  10.118  69.565  1.00  0.00    -0.235 A  
HETATM   13  C   UNL     1      -9.842  11.502  69.398  1.00  0.00     0.358 A  
HETATM   14  C   UNL     1     -10.430  12.138  68.307  1.00  0.00    -0.225 A  
HETATM   15  C   UNL     1     -11.113  11.397  67.341  1.00  0.00    -0.349 A  
HETATM   16  C   UNL     1     -11.264  10.016  67.532  1.00  0.00    -0.052 A  
HETATM   17  C   UNL     1     -10.673   9.381  68.638  1.00  0.00    -0.196 A  
BRANCH  15  18
HETATM   18  C   UNL     1     -11.600  12.085  66.086  1.00  0.00    -0.371 C  
BRANCH  18  19
HETATM   19  C   UNL     1     -10.506  12.181  65.016  1.00  0.00    -0.290 C  
HETATM   20  S   UNL     1      -9.293  10.811  65.065  1.00  0.00    -0.236 SA 
HETATM   21  C   UNL     1      -9.425  10.514  63.357  1.00  0.00    -0.316 C  
HETATM   22  N   UNL     1     -10.487  11.178  62.850  1.00  0.00    -0.778 N  
HETATM   23  O   UNL     1      -8.644   9.830  62.720  1.00  0.00    -0.157 OA 
HETATM   24  C   UNL     1     -11.080  12.135  63.617  1.00  0.00    -0.457 C  
HETATM   25  H   UNL     1     -10.838  10.968  61.915  1.00  0.00     0.000 HD 
HETATM   26  O   UNL     1     -11.928  12.905  63.185  1.00  0.00    -0.529 OA 
ENDBRANCH  18  19
ENDBRANCH  15  18
ENDBRANCH  11  12
ENDBRANCH  10  11
ENDBRANCH   9  10
ENDBRANCH   6   9
ENDBRANCH   2   3
TORSDOF 7
ENDMDL
MODEL      252
REMARK 921   NORMALIZED FREE ENERGY PREDICTED BY IDOCK:   -3.62 KCAL/MOL
REMARK 922        TOTAL FREE ENERGY PREDICTED BY IDOCK:   -6.24 KCAL/MOL
REMARK 923 INTER-LIGAND FREE ENERGY PREDICTED BY IDOCK:   -4.86 KCAL/MOL
REMARK 924 INTRA-LIGAND FREE ENERGY PREDICTED BY IDOCK:   -1.39 KCAL/MOL
REMARK 927      BINDING AFFINITY PREDICTED BY RF-SCORE:    0.00 PKD
ROOT
HETATM    1  C   UNL     1     -12.279  11.500  70.200  1.00  0.00    -0.387 C  
HETATM    2  C   UNL     1     -11.860  10.525  69.109  1.00  0.00    -0.218 C  
ENDROOT
BRANCH   2   3
HETATM    3  C   UNL     1     -10.874   9.513  69.616  1.00  0.00    -0.255 A  
HETATM    4  C   UNL     1     -10.383   9.585  70.910  1.00  0.00    -0.302 A  
HETATM    5  N   UNL     1      -9.471   8.730  71.418  1.00  0.00    -0.235 NA 
HETATM    6  C   UNL     1      -9.008   7.731  70.623  1.00  0.00    -0.145 A  
HETATM    7  C   UNL     1      -9.436   7.588  69.310  1.00  0.00    -0.154 A  
HETATM    8  C   UNL     1     -10.379   8.489  68.806  1.00  0.00    -0.233 A  
BRANCH   6   9
HETATM    9  C   UNL     1      -7.972   6.798  71.221  1.00  0.00    -0.106 C  
BRANCH   9  10
HETATM   10  C   UNL     1      -6.653   6.957  70.467  1.00  0.00    -0.052 C  
BRANCH  10  11
HETATM   11  O   UNL     1      -6.079   8.267  70.561  1.00  0.00    -0.032 OA 
BRANCH  11  12
HETATM   12  C   UNL     1      -6.424   9.081  69.496  1.00  0.00    -0.043 A  
HETATM   13  C   UNL     1      -6.272   8.736  68.150  1.00  0.00    -0.051 A  
HETATM   14  C   UNL     1      -6.707   9.585  67.135  1.00  0.00    -0.072 A  
HETATM   15  C   UNL     1      -7.326  10.797  67.444  1.00  0.00    -0.094 A  
HETATM   16  C   UNL     1      -7.428  11.179  68.789  1.00  0.00    -0.118 A  
HETATM   17  C   UNL     1      -6.982  10.320  69.809  1.00  0.00    -0.129 A  
BRANCH  15  18
HETATM   18  C   UNL     1      -7.935  11.623  66.334  1.00  0.00     0.005 C  
BRANCH  18  19
HETATM   19  C   UNL     1      -9.429  11.331  66.148  1.00  0.00    -0.208 C  
HETATM   20  S   UNL     1     -10.439  12.813  65.784  1.00  0.00    -0.280 SA 
HETATM   21  C   UNL     1     -11.230  12.054  64.434  1.00  0.00    -0.344 C  
HETATM   22  N   UNL     1     -10.592  10.908  64.106  1.00  0.00    -0.441 N  
HETATM   23  O   UNL     1     -12.232  12.488  63.896  1.00  0.00    -0.433 OA 
HETATM   24  C   UNL     1      -9.679  10.400  64.981  1.00  0.00    -0.300 C  
HETATM   25  H   UNL     1     -10.788  10.434  63.224  1.00  0.00     0.000 HD 
HETATM   26  O   UNL     1      -9.184   9.288  64.857  1.00  0.00    -0.225 OA 
ENDBRANCH  18  19
ENDBRANCH  15  18
ENDBRANCH  11  12
ENDBRANCH  10  11
ENDBRANCH   9  10
ENDBRANCH   6   9
ENDBRANCH   2   3
TORSDOF 7
ENDMDL
MODEL      253
REMARK 921   NORMALIZED FREE ENERGY PREDICTED BY IDOCK:   -3.61 KCAL/MOL
REMARK 922        TOTAL FREE ENERGY PREDICTED BY IDOCK:   -6.23 KCAL/MOL
REMARK 923 INTER-LIGAND FREE ENERGY PREDICTED BY IDOCK:   -5.29 KCAL/MOL
REMARK 924 INTRA-LIGAND FREE ENERGY PREDICTED BY IDOCK:   -0.94 KCAL/MOL
REMARK 927      BINDING AFFINITY PREDICTED BY RF-SCORE:    0.00 PKD
ROOT
HETATM    1  C   UNL     1      -6.532   9.200  66.385  1.00  0.00    -0.066 C  
HETATM    2  C   UNL     1      -7.353   9.851  65.282  1.00  0.00    -0.131 C  
ENDROOT
BRANCH   2   3
HETATM    3  C   UNL     1      -8.317  10.864  65.831  1.00  0.00    -0.149 A  
HETATM    4  C   UNL     1      -8.088  11.473  67.055  1.00  0.00    -0.161 A  
HETATM    5  N   UNL     1      -8.927  12.364  67.621  1.00  0.00    -0.174 NA 
HETATM    6  C   UNL     1     -10.063  12.697  66.955  1.00  0.00    -0.230 A  
HETATM    7  C   UNL     1     -10.379  12.130  65.727  1.00  0.00    -0.289 A  
HETATM    8  C   UNL     1      -9.495  11.205  65.163  1.00  0.00    -0.257 A  
BRANCH   6   9
HETATM    9  C   UNL     1     -10.992  13.689  67.628  1.00  0.00    -0.283 C  
BRANCH   9  10
HETATM   10  C   UNL     1     -11.571  13.062  68.895  1.00  0.00    -0.311 C  
BRANCH  10  11
HETATM   11  O   UNL     1     -12.337  11.874  68.662  1.00  0.00    -0.275 OA 
BRANCH  11  12
HETATM   12  C   UNL     1     -11.940  10.814  69.459  1.00  0.00    -0.292 A  
HETATM   13  C   UNL     1     -12.227  10.692  70.821  1.00  0.00    -0.474 A  
HETATM   14  C   UNL     1     -11.850   9.560  71.540  1.00  0.00    -0.478 A  
HETATM   15  C   UNL     1     -11.190   8.508  70.904  1.00  0.00    -0.304 A  
HETATM   16  C   UNL     1     -10.845   8.646  69.552  1.00  0.00    -0.138 A  
HETATM   17  C   UNL     1     -11.223   9.794  68.834  1.00  0.00    -0.076 A  
BRANCH  15  18
HETATM   18  C   UNL     1     -10.937   7.225  71.662  1.00  0.00    -0.253 C  
BRANCH  18  19
HETATM   19  C   UNL     1      -9.442   6.909  71.785  1.00  0.00    -0.153 C  
HETATM   20  S   UNL     1      -8.627   6.525  70.192  1.00  0.00    -0.140 SA 
HETATM   21  C   UNL     1      -7.314   7.624  70.496  1.00  0.00    -0.074 C  
HETATM   22  N   UNL     1      -7.605   8.417  71.551  1.00  0.00    -0.092 N  
HETATM   23  O   UNL     1      -6.275   7.640  69.861  1.00  0.00    -0.027 OA 
HETATM   24  C   UNL     1      -8.663   8.081  72.342  1.00  0.00    -0.167 C  
HETATM   25  H   UNL     1      -7.048   9.247  71.751  1.00  0.00     0.000 HD 
HETATM   26  O   UNL     1      -8.897   8.629  73.411  1.00  0.00    -0.297 OA 
ENDBRANCH  18  19
ENDBRANCH  15  18
ENDBRANCH  11  12
ENDBRANCH  10  11
ENDBRANCH   9  10
ENDBRANCH   6   9
ENDBRANCH   2   3
TORSDOF 7
ENDMDL
MODEL      254
REMARK 921   NORMALIZED FREE ENERGY PREDICTED BY IDOCK:   -3.59 KCAL/MOL
REMARK 922        TOTAL FREE ENERGY PREDICTED BY IDOCK:   -6.20 KCAL/MOL
REMARK 923 INTER-LIGAND FREE ENERGY PREDICTED BY IDOCK:   -4.95 KCAL/MOL
REMARK 924 INTRA-LIGAND FREE ENERGY PREDICTED BY IDOCK:   -1.25 KCAL/MOL
REMARK 927      BINDING AFFINITY PREDICTED BY RF-SCORE:    0.00 PKD
ROOT
HETATM    1  C   UNL     1     -11.997   5.866  72.532  1.00  0.00    -0.173 C  
HETATM    2  C   UNL     1     -11.292   7.030  71.851  1.00  0.00    -0.291 C  
ENDROOT
BRANCH   2   3
HETATM    3  C   UNL     1     -10.304   6.557  70.823  1.00  0.00    -0.241 A  
HETATM    4  C   UNL     1     -10.652   5.586  69.898  1.00  0.00    -0.317 A  
HETATM    5  N   UNL     1      -9.806   5.092  68.971  1.00  0.00    -0.170 NA 
HETATM    6  C   UNL     1      -8.537   5.576  68.930  1.00  0.00    -0.100 A  
HETATM    7  C   UNL     1      -8.098   6.543  69.825  1.00  0.00    -0.125 A  
HETATM    8  C   UNL     1      -8.993   7.035  70.778  1.00  0.00    -0.150 A  
BRANCH   6   9
HETATM    9  C   UNL     1      -7.608   4.987  67.885  1.00  0.00    -0.083 C  
BRANCH   9  10
HETATM   10  C   UNL     1      -7.822   5.704  66.554  1.00  0.00    -0.101 C  
BRANCH  10  11
HETATM   11  O   UNL     1      -7.156   6.970  66.458  1.00  0.00    -0.073 OA 
BRANCH  11  12
HETATM   12  C   UNL     1      -8.026   8.043  66.553  1.00  0.00    -0.102 A  
HETATM   13  C   UNL     1      -9.415   7.952  66.432  1.00  0.00    -0.258 A  
HETATM   14  C   UNL     1     -10.228   9.069  66.609  1.00  0.00    -0.333 A  
HETATM   15  C   UNL     1      -9.669  10.306  66.932  1.00  0.00    -0.229 A  
HETATM   16  C   UNL     1      -8.273  10.419  66.996  1.00  0.00    -0.123 A  
HETATM   17  C   UNL     1      -7.457   9.289  66.812  1.00  0.00    -0.087 A  
BRANCH  15  18
HETATM   18  C   UNL     1     -10.578  11.463  67.279  1.00  0.00    -0.264 C  
BRANCH  18  19
HETATM   19  C   UNL     1     -10.315  12.004  68.690  1.00  0.00    -0.196 C  
HETATM   20  S   UNL     1     -10.566  13.809  68.856  1.00  0.00    -0.157 SA 
HETATM   21  C   UNL     1     -11.549  13.632  70.279  1.00  0.00    -0.092 C  
HETATM   22  N   UNL     1     -11.897  12.337  70.447  1.00  0.00    -0.532 N  
HETATM   23  O   UNL     1     -11.842  14.549  71.026  1.00  0.00    -0.310 OA 
HETATM   24  C   UNL     1     -11.248  11.391  69.711  1.00  0.00    -0.192 C  
HETATM   25  H   UNL     1     -12.629  12.073  71.107  1.00  0.00     0.000 HD 
HETATM   26  O   UNL     1     -11.367  10.190  69.916  1.00  0.00    -0.251 OA 
ENDBRANCH  18  19
ENDBRANCH  15  18
ENDBRANCH  11  12
ENDBRANCH  10  11
ENDBRANCH   9  10
ENDBRANCH   6   9
ENDBRANCH   2   3
TORSDOF 7
ENDMDL
MODEL      255
REMARK 921   NORMALIZED FREE ENERGY PREDICTED BY IDOCK:   -3.58 KCAL/MOL
REMARK 922        TOTAL FREE ENERGY PREDICTED BY IDOCK:   -6.19 KCAL/MOL
REMARK 923 INTER-LIGAND FREE ENERGY PREDICTED BY IDOCK:   -5.59 KCAL/MOL
REMARK 924 INTRA-LIGAND FREE ENERGY PREDICTED BY IDOCK:   -0.60 KCAL/MOL
REMARK 927      BINDING AFFINITY PREDICTED BY RF-SCORE:    0.00 PKD
ROOT
HETATM    1  C   UNL     1     -12.042  13.662  67.303  1.00  0.00    -0.385 C  
HETATM    2  C   UNL     1     -12.130  13.576  65.786  1.00  0.00    -0.473 C  
ENDROOT
BRANCH   2   3
HETATM    3  C   UNL     1     -11.172  12.561  65.231  1.00  0.00    -0.341 A  
HETATM    4  C   UNL     1     -10.102  12.107  65.984  1.00  0.00    -0.235 A  
HETATM    5  N   UNL     1      -9.186  11.224  65.536  1.00  0.00    -0.216 NA 
HETATM    6  C   UNL     1      -9.319  10.739  64.275  1.00  0.00    -0.245 A  
HETATM    7  C   UNL     1     -10.356  11.145  63.444  1.00  0.00    -0.419 A  
HETATM    8  C   UNL     1     -11.289  12.064  63.931  1.00  0.00    -0.503 A  
BRANCH   6   9
HETATM    9  C   UNL     1      -8.263   9.760  63.797  1.00  0.00    -0.162 C  
BRANCH   9  10
HETATM   10  C   UNL     1      -7.988   8.735  64.896  1.00  0.00    -0.135 C  
BRANCH  10  11
HETATM   11  O   UNL     1      -9.168   8.235  65.538  1.00  0.00    -0.083 OA 
BRANCH  11  12
HETATM   12  C   UNL     1      -8.940   7.832  66.842  1.00  0.00    -0.134 A  
HETATM   13  C   UNL     1      -8.083   6.793  67.214  1.00  0.00    -0.118 A  
HETATM   14  C   UNL     1      -7.854   6.491  68.554  1.00  0.00    -0.106 A  
HETATM   15  C   UNL     1      -8.466   7.240  69.561  1.00  0.00    -0.133 A  
HETATM   16  C   UNL     1      -9.374   8.245  69.197  1.00  0.00    -0.151 A  
HETATM   17  C   UNL     1      -9.605   8.540  67.843  1.00  0.00    -0.177 A  
BRANCH  15  18
HETATM   18  C   UNL     1      -8.078   7.002  71.002  1.00  0.00    -0.105 C  
BRANCH  18  19
HETATM   19  C   UNL     1      -9.300   6.903  71.924  1.00  0.00    -0.141 C  
HETATM   20  S   UNL     1      -9.997   5.216  72.057  1.00  0.00    -0.193 SA 
HETATM   21  C   UNL     1     -10.047   5.276  73.794  1.00  0.00    -0.198 C  
HETATM   22  N   UNL     1      -9.340   6.337  74.243  1.00  0.00    -0.157 N  
HETATM   23  O   UNL     1     -10.663   4.488  74.488  1.00  0.00    -0.307 OA 
HETATM   24  C   UNL     1      -8.965   7.293  73.347  1.00  0.00    -0.162 C  
HETATM   25  H   UNL     1      -9.091   6.421  75.229  1.00  0.00     0.000 HD 
HETATM   26  O   UNL     1      -8.481   8.366  73.681  1.00  0.00    -0.309 OA 
ENDBRANCH  18  19
ENDBRANCH  15  18
ENDBRANCH  11  12
ENDBRANCH  10  11
ENDBRANCH   9  10
ENDBRANCH   6   9
ENDBRANCH   2   3
TORSDOF 7
ENDMDL
MODEL      256
REMARK 921   NORMALIZED FREE ENERGY PREDICTED BY IDOCK:   -3.57 KCAL/MOL
REMARK 922        TOTAL FREE ENERGY PREDICTED BY IDOCK:   -6.18 KCAL/MOL
REMARK 923 INTER-LIGAND FREE ENERGY PREDICTED BY IDOCK:   -4.80 KCAL/MOL
REMARK 924 INTRA-LIGAND FREE ENERGY PREDICTED BY IDOCK:   -1.38 KCAL/MOL
REMARK 927      BINDING AFFINITY PREDICTED BY RF-SCORE:    0.00 PKD
ROOT
HETATM    1  C   UNL     1     -11.687  10.455  70.870  1.00  0.00    -0.455 C  
HETATM    2  C   UNL     1     -11.926  10.979  69.461  1.00  0.00    -0.413 C  
ENDROOT
BRANCH   2   3
HETATM    3  C   UNL     1     -11.138  10.209  68.441  1.00  0.00    -0.273 A  
HETATM    4  C   UNL     1     -10.630   8.954  68.735  1.00  0.00    -0.157 A  
HETATM    5  N   UNL     1      -9.886   8.223  67.879  1.00  0.00    -0.162 NA 
HETATM    6  C   UNL     1      -9.623   8.737  66.650  1.00  0.00    -0.220 A  
HETATM    7  C   UNL     1     -10.083   9.992  66.271  1.00  0.00    -0.310 A  
HETATM    8  C   UNL     1     -10.848  10.731  67.179  1.00  0.00    -0.335 A  
BRANCH   6   9
HETATM    9  C   UNL     1      -8.770   7.896  65.718  1.00  0.00    -0.163 C  
BRANCH   9  10
HETATM   10  C   UNL     1      -7.413   8.569  65.528  1.00  0.00    -0.085 C  
BRANCH  10  11
HETATM   11  O   UNL     1      -6.637   8.671  66.729  1.00  0.00    -0.059 OA 
BRANCH  11  12
HETATM   12  C   UNL     1      -6.648   9.946  67.268  1.00  0.00    -0.070 A  
HETATM   13  C   UNL     1      -6.310  11.108  66.569  1.00  0.00    -0.132 A  
HETATM   14  C   UNL     1      -6.412  12.363  67.163  1.00  0.00    -0.097 A  
HETATM   15  C   UNL     1      -6.877  12.488  68.474  1.00  0.00    -0.083 A  
HETATM   16  C   UNL     1      -7.161  11.325  69.203  1.00  0.00    -0.122 A  
HETATM   17  C   UNL     1      -7.050  10.060  68.598  1.00  0.00    -0.078 A  
BRANCH  15  18
HETATM   18  C   UNL     1      -7.134  13.866  69.041  1.00  0.00    -0.098 C  
BRANCH  18  19
HETATM   19  C   UNL     1      -8.020  14.714  68.121  1.00  0.00    -0.136 C  
HETATM   20  S   UNL     1      -9.658  15.120  68.830  1.00  0.00    -0.231 SA 
HETATM   21  C   UNL     1      -9.507  16.809  68.444  1.00  0.00    -0.241 C  
HETATM   22  N   UNL     1      -8.235  17.092  68.084  1.00  0.00    -0.217 N  
HETATM   23  O   UNL     1     -10.431  17.601  68.467  1.00  0.00    -0.359 OA 
HETATM   24  C   UNL     1      -7.392  16.056  67.814  1.00  0.00    -0.139 C  
HETATM   25  H   UNL     1      -7.913  18.058  68.017  1.00  0.00     0.000 HD 
HETATM   26  O   UNL     1      -6.285  16.210  67.315  1.00  0.00    -0.166 OA 
ENDBRANCH  18  19
ENDBRANCH  15  18
ENDBRANCH  11  12
ENDBRANCH  10  11
ENDBRANCH   9  10
ENDBRANCH   6   9
ENDBRANCH   2   3
TORSDOF 7
ENDMDL
MODEL      257
REMARK 921   NORMALIZED FREE ENERGY PREDICTED BY IDOCK:   -3.55 KCAL/MOL
REMARK 922        TOTAL FREE ENERGY PREDICTED BY IDOCK:   -6.14 KCAL/MOL
REMARK 923 INTER-LIGAND FREE ENERGY PREDICTED BY IDOCK:   -5.58 KCAL/MOL
REMARK 924 INTRA-LIGAND FREE ENERGY PREDICTED BY IDOCK:   -0.56 KCAL/MOL
REMARK 927      BINDING AFFINITY PREDICTED BY RF-SCORE:    0.00 PKD
ROOT
HETATM    1  C   UNL     1     -10.822  19.465  67.096  1.00  0.00    -0.561 C  
HETATM    2  C   UNL     1      -9.833  18.416  66.610  1.00  0.00    -0.362 C  
ENDROOT
BRANCH   2   3
HETATM    3  C   UNL     1     -10.425  17.037  66.640  1.00  0.00    -0.253 A  
HETATM    4  C   UNL     1     -10.857  16.474  67.830  1.00  0.00    -0.326 A  
HETATM    5  N   UNL     1     -11.366  15.230  67.934  1.00  0.00    -0.331 NA 
HETATM    6  C   UNL     1     -11.473  14.479  66.808  1.00  0.00    -0.367 A  
HETATM    7  C   UNL     1     -11.056  14.957  65.572  1.00  0.00    -0.353 A  
HETATM    8  C   UNL     1     -10.528  16.249  65.492  1.00  0.00    -0.383 A  
BRANCH   6   9
HETATM    9  C   UNL     1     -12.035  13.078  66.963  1.00  0.00    -0.409 C  
BRANCH   9  10
HETATM   10  C   UNL     1     -10.902  12.114  67.309  1.00  0.00    -0.244 C  
BRANCH  10  11
HETATM   11  O   UNL     1     -10.625  11.146  66.289  1.00  0.00    -0.253 OA 
BRANCH  11  12
HETATM   12  C   UNL     1     -10.099   9.969  66.793  1.00  0.00    -0.226 A  
HETATM   13  C   UNL     1     -10.655   9.239  67.848  1.00  0.00    -0.288 A  
HETATM   14  C   UNL     1     -10.104   8.026  68.253  1.00  0.00    -0.227 A  
HETATM   15  C   UNL     1      -8.989   7.501  67.596  1.00  0.00    -0.127 A  
HETATM   16  C   UNL     1      -8.390   8.255  66.577  1.00  0.00    -0.112 A  
HETATM   17  C   UNL     1      -8.948   9.482  66.176  1.00  0.00    -0.191 A  
BRANCH  15  18
HETATM   18  C   UNL     1      -8.510   6.110  67.944  1.00  0.00    -0.116 C  
BRANCH  18  19
HETATM   19  C   UNL     1      -7.975   6.024  69.379  1.00  0.00    -0.103 C  
HETATM   20  S   UNL     1      -9.075   5.125  70.532  1.00  0.00    -0.144 SA 
HETATM   21  C   UNL     1      -7.778   4.139  71.142  1.00  0.00    -0.066 C  
HETATM   22  N   UNL     1      -6.687   4.266  70.355  1.00  0.00    -0.032 N  
HETATM   23  O   UNL     1      -7.850   3.465  72.154  1.00  0.00    -0.057 OA 
HETATM   24  C   UNL     1      -6.659   5.280  69.445  1.00  0.00    -0.047 C  
HETATM   25  H   UNL     1      -5.903   3.619  70.439  1.00  0.00     0.000 HD 
HETATM   26  O   UNL     1      -5.654   5.582  68.815  1.00  0.00    -0.007 OA 
ENDBRANCH  18  19
ENDBRANCH  15  18
ENDBRANCH  11  12
ENDBRANCH  10  11
ENDBRANCH   9  10
ENDBRANCH   6   9
ENDBRANCH   2   3
TORSDOF 7
ENDMDL
MODEL      258
REMARK 921   NORMALIZED FREE ENERGY PREDICTED BY IDOCK:   -3.54 KCAL/MOL
REMARK 922        TOTAL FREE ENERGY PREDICTED BY IDOCK:   -6.13 KCAL/MOL
REMARK 923 INTER-LIGAND FREE ENERGY PREDICTED BY IDOCK:   -4.83 KCAL/MOL
REMARK 924 INTRA-LIGAND FREE ENERGY PREDICTED BY IDOCK:   -1.30 KCAL/MOL
REMARK 927      BINDING AFFINITY PREDICTED BY RF-SCORE:    0.00 PKD
ROOT
HETATM    1  C   UNL     1     -12.466  11.954  70.886  1.00  0.00    -0.397 C  
HETATM    2  C   UNL     1     -12.136  11.912  69.401  1.00  0.00    -0.277 C  
ENDROOT
BRANCH   2   3
HETATM    3  C   UNL     1     -10.869  11.152  69.134  1.00  0.00    -0.284 A  
HETATM    4  C   UNL     1     -10.374  10.248  70.060  1.00  0.00    -0.202 A  
HETATM    5  N   UNL     1      -9.226   9.558  69.900  1.00  0.00    -0.203 NA 
HETATM    6  C   UNL     1      -8.511   9.748  68.761  1.00  0.00    -0.122 A  
HETATM    7  C   UNL     1      -8.925  10.642  67.782  1.00  0.00    -0.140 A  
HETATM    8  C   UNL     1     -10.116  11.348  67.975  1.00  0.00    -0.193 A  
BRANCH   6   9
HETATM    9  C   UNL     1      -7.217   8.968  68.621  1.00  0.00    -0.072 C  
BRANCH   9  10
HETATM   10  C   UNL     1      -6.192   9.819  67.872  1.00  0.00    -0.052 C  
BRANCH  10  11
HETATM   11  O   UNL     1      -5.314  10.564  68.726  1.00  0.00    -0.042 OA 
BRANCH  11  12
HETATM   12  C   UNL     1      -5.640  11.908  68.789  1.00  0.00    -0.049 A  
HETATM   13  C   UNL     1      -5.803  12.739  67.678  1.00  0.00    -0.141 A  
HETATM   14  C   UNL     1      -6.199  14.066  67.822  1.00  0.00    -0.152 A  
HETATM   15  C   UNL     1      -6.461  14.592  69.088  1.00  0.00    -0.105 A  
HETATM   16  C   UNL     1      -6.243  13.783  70.213  1.00  0.00    -0.090 A  
HETATM   17  C   UNL     1      -5.838  12.446  70.060  1.00  0.00    -0.151 A  
BRANCH  15  18
HETATM   18  C   UNL     1      -7.046  15.981  69.208  1.00  0.00    -0.220 C  
BRANCH  18  19
HETATM   19  C   UNL     1      -8.294  16.162  68.336  1.00  0.00    -0.179 C  
HETATM   20  S   UNL     1      -9.596  14.909  68.627  1.00  0.00    -0.226 SA 
HETATM   21  C   UNL     1     -10.846  16.110  68.769  1.00  0.00    -0.310 C  
HETATM   22  N   UNL     1     -10.298  17.341  68.878  1.00  0.00    -0.347 N  
HETATM   23  O   UNL     1     -12.038  15.863  68.736  1.00  0.00    -0.297 OA 
HETATM   24  C   UNL     1      -8.974  17.489  68.594  1.00  0.00    -0.260 C  
HETATM   25  H   UNL     1     -10.862  18.140  69.168  1.00  0.00     0.000 HD 
HETATM   26  O   UNL     1      -8.432  18.582  68.494  1.00  0.00    -0.322 OA 
ENDBRANCH  18  19
ENDBRANCH  15  18
ENDBRANCH  11  12
ENDBRANCH  10  11
ENDBRANCH   9  10
ENDBRANCH   6   9
ENDBRANCH   2   3
TORSDOF 7
ENDMDL
MODEL      259
REMARK 921   NORMALIZED FREE ENERGY PREDICTED BY IDOCK:   -3.54 KCAL/MOL
REMARK 922        TOTAL FREE ENERGY PREDICTED BY IDOCK:   -6.13 KCAL/MOL
REMARK 923 INTER-LIGAND FREE ENERGY PREDICTED BY IDOCK:   -5.60 KCAL/MOL
REMARK 924 INTRA-LIGAND FREE ENERGY PREDICTED BY IDOCK:   -0.52 KCAL/MOL
REMARK 927      BINDING AFFINITY PREDICTED BY RF-SCORE:    0.00 PKD
ROOT
HETATM    1  C   UNL     1     -12.049  15.461  64.235  1.00  0.00    -0.178 C  
HETATM    2  C   UNL     1     -10.920  16.249  64.881  1.00  0.00    -0.321 C  
ENDROOT
BRANCH   2   3
HETATM    3  C   UNL     1     -10.031  15.369  65.712  1.00  0.00    -0.393 A  
HETATM    4  C   UNL     1      -8.863  15.863  66.270  1.00  0.00    -0.351 A  
HETATM    5  N   UNL     1      -8.003  15.120  66.997  1.00  0.00    -0.213 NA 
HETATM    6  C   UNL     1      -8.298  13.811  67.208  1.00  0.00    -0.174 A  
HETATM    7  C   UNL     1      -9.443  13.228  66.679  1.00  0.00    -0.262 A  
HETATM    8  C   UNL     1     -10.315  14.019  65.925  1.00  0.00    -0.327 A  
BRANCH   6   9
HETATM    9  C   UNL     1      -7.301  13.001  68.016  1.00  0.00    -0.123 C  
BRANCH   9  10
HETATM   10  C   UNL     1      -7.911  11.643  68.357  1.00  0.00    -0.140 C  
BRANCH  10  11
HETATM   11  O   UNL     1      -6.948  10.596  68.532  1.00  0.00    -0.063 OA 
BRANCH  11  12
HETATM   12  C   UNL     1      -7.418   9.560  69.320  1.00  0.00    -0.078 A  
HETATM   13  C   UNL     1      -7.388   9.548  70.718  1.00  0.00    -0.103 A  
HETATM   14  C   UNL     1      -7.943   8.496  71.441  1.00  0.00    -0.168 A  
HETATM   15  C   UNL     1      -8.563   7.433  70.781  1.00  0.00    -0.137 A  
HETATM   16  C   UNL     1      -8.545   7.408  69.379  1.00  0.00    -0.134 A  
HETATM   17  C   UNL     1      -7.978   8.470  68.655  1.00  0.00    -0.116 A  
BRANCH  15  18
HETATM   18  C   UNL     1      -9.301   6.388  71.587  1.00  0.00    -0.147 C  
BRANCH  18  19
HETATM   19  C   UNL     1     -10.535   6.965  72.291  1.00  0.00    -0.207 C  
HETATM   20  S   UNL     1     -11.613   7.969  71.205  1.00  0.00    -0.282 SA 
HETATM   21  C   UNL     1     -13.053   7.136  71.712  1.00  0.00    -0.314 C  
HETATM   22  N   UNL     1     -12.726   6.022  72.406  1.00  0.00    -0.400 N  
HETATM   23  O   UNL     1     -14.184   7.531  71.495  1.00  0.00    -0.434 OA 
HETATM   24  C   UNL     1     -11.438   5.875  72.826  1.00  0.00    -0.230 C  
HETATM   25  H   UNL     1     -13.426   5.309  72.610  1.00  0.00     0.000 HD 
HETATM   26  O   UNL     1     -11.087   4.997  73.604  1.00  0.00    -0.308 OA 
ENDBRANCH  18  19
ENDBRANCH  15  18
ENDBRANCH  11  12
ENDBRANCH  10  11
ENDBRANCH   9  10
ENDBRANCH   6   9
ENDBRANCH   2   3
TORSDOF 7
ENDMDL
MODEL      260
REMARK 921   NORMALIZED FREE ENERGY PREDICTED BY IDOCK:   -3.53 KCAL/MOL
REMARK 922        TOTAL FREE ENERGY PREDICTED BY IDOCK:   -6.12 KCAL/MOL
REMARK 923 INTER-LIGAND FREE ENERGY PREDICTED BY IDOCK:   -5.90 KCAL/MOL
REMARK 924 INTRA-LIGAND FREE ENERGY PREDICTED BY IDOCK:   -0.23 KCAL/MOL
REMARK 927      BINDING AFFINITY PREDICTED BY RF-SCORE:    0.00 PKD
ROOT
HETATM    1  C   UNL     1      -7.953   1.500  66.952  1.00  0.00    -0.067 C  
HETATM    2  C   UNL     1      -7.791   2.499  68.088  1.00  0.00    -0.059 C  
ENDROOT
BRANCH   2   3
HETATM    3  C   UNL     1      -8.444   3.813  67.771  1.00  0.00    -0.105 A  
HETATM    4  C   UNL     1      -9.585   3.869  66.986  1.00  0.00    -0.196 A  
HETATM    5  N   UNL     1     -10.202   5.015  66.635  1.00  0.00    -0.242 NA 
HETATM    6  C   UNL     1      -9.687   6.190  67.080  1.00  0.00    -0.135 A  
HETATM    7  C   UNL     1      -8.541   6.232  67.865  1.00  0.00    -0.115 A  
HETATM    8  C   UNL     1      -7.918   5.029  68.211  1.00  0.00    -0.086 A  
BRANCH   6   9
HETATM    9  C   UNL     1     -10.397   7.461  66.653  1.00  0.00    -0.241 C  
BRANCH   9  10
HETATM   10  C   UNL     1      -9.366   8.567  66.433  1.00  0.00    -0.213 C  
BRANCH  10  11
HETATM   11  O   UNL     1      -9.588   9.347  65.251  1.00  0.00    -0.269 OA 
BRANCH  11  12
HETATM   12  C   UNL     1     -10.163  10.577  65.519  1.00  0.00    -0.256 A  
HETATM   13  C   UNL     1     -10.864  11.347  64.587  1.00  0.00    -0.359 A  
HETATM   14  C   UNL     1     -11.472  12.545  64.953  1.00  0.00    -0.367 A  
HETATM   15  C   UNL     1     -11.410  12.995  66.273  1.00  0.00    -0.354 A  
HETATM   16  C   UNL     1     -10.659  12.260  67.202  1.00  0.00    -0.250 A  
HETATM   17  C   UNL     1     -10.043  11.054  66.824  1.00  0.00    -0.260 A  
BRANCH  15  18
HETATM   18  C   UNL     1     -12.213  14.209  66.682  1.00  0.00    -0.450 C  
BRANCH  18  19
HETATM   19  C   UNL     1     -11.325  15.338  67.218  1.00  0.00    -0.269 C  
HETATM   20  S   UNL     1     -10.561  14.979  68.842  1.00  0.00    -0.251 SA 
HETATM   21  C   UNL     1      -8.977  15.453  68.303  1.00  0.00    -0.185 C  
HETATM   22  N   UNL     1      -8.964  15.589  66.958  1.00  0.00    -0.212 N  
HETATM   23  O   UNL     1      -8.036  15.663  69.047  1.00  0.00    -0.185 OA 
HETATM   24  C   UNL     1     -10.156  15.619  66.298  1.00  0.00    -0.299 C  
HETATM   25  H   UNL     1      -8.084  15.666  66.449  1.00  0.00     0.000 HD 
HETATM   26  O   UNL     1     -10.255  15.913  65.114  1.00  0.00    -0.472 OA 
ENDBRANCH  18  19
ENDBRANCH  15  18
ENDBRANCH  11  12
ENDBRANCH  10  11
ENDBRANCH   9  10
ENDBRANCH   6   9
ENDBRANCH   2   3
TORSDOF 7
ENDMDL
MODEL      261
REMARK 921   NORMALIZED FREE ENERGY PREDICTED BY IDOCK:   -3.49 KCAL/MOL
REMARK 922        TOTAL FREE ENERGY PREDICTED BY IDOCK:   -6.07 KCAL/MOL
REMARK 923 INTER-LIGAND FREE ENERGY PREDICTED BY IDOCK:   -5.82 KCAL/MOL
REMARK 924 INTRA-LIGAND FREE ENERGY PREDICTED BY IDOCK:   -0.25 KCAL/MOL
REMARK 927      BINDING AFFINITY PREDICTED BY RF-SCORE:    0.00 PKD
ROOT
HETATM    1  C   UNL     1     -10.567  19.613  66.945  1.00  0.00    -0.603 C  
HETATM    2  C   UNL     1      -9.615  18.494  66.550  1.00  0.00    -0.335 C  
ENDROOT
BRANCH   2   3
HETATM    3  C   UNL     1     -10.303  17.160  66.527  1.00  0.00    -0.306 A  
HETATM    4  C   UNL     1     -10.700  16.544  67.703  1.00  0.00    -0.311 A  
HETATM    5  N   UNL     1     -11.292  15.333  67.757  1.00  0.00    -0.334 NA 
HETATM    6  C   UNL     1     -11.524  14.675  66.592  1.00  0.00    -0.357 A  
HETATM    7  C   UNL     1     -11.152  15.211  65.365  1.00  0.00    -0.371 A  
HETATM    8  C   UNL     1     -10.536  16.465  65.338  1.00  0.00    -0.338 A  
BRANCH   6   9
HETATM    9  C   UNL     1     -12.177  13.308  66.690  1.00  0.00    -0.359 C  
BRANCH   9  10
HETATM   10  C   UNL     1     -11.095  12.240  66.837  1.00  0.00    -0.290 C  
BRANCH  10  11
HETATM   11  O   UNL     1     -11.548  11.030  67.458  1.00  0.00    -0.529 OA 
BRANCH  11  12
HETATM   12  C   UNL     1     -10.516  10.150  67.735  1.00  0.00    -0.232 A  
HETATM   13  C   UNL     1      -9.158  10.446  67.590  1.00  0.00    -0.143 A  
HETATM   14  C   UNL     1      -8.177   9.528  67.955  1.00  0.00    -0.114 A  
HETATM   15  C   UNL     1      -8.533   8.291  68.495  1.00  0.00    -0.126 A  
HETATM   16  C   UNL     1      -9.893   7.961  68.589  1.00  0.00    -0.177 A  
HETATM   17  C   UNL     1     -10.878   8.891  68.213  1.00  0.00    -0.048 A  
BRANCH  15  18
HETATM   18  C   UNL     1      -7.455   7.379  69.035  1.00  0.00    -0.100 C  
BRANCH  18  19
HETATM   19  C   UNL     1      -7.355   7.441  70.564  1.00  0.00    -0.076 C  
HETATM   20  S   UNL     1      -8.203   8.881  71.309  1.00  0.00    -0.117 SA 
HETATM   21  C   UNL     1      -9.029   7.901  72.484  1.00  0.00    -0.174 C  
HETATM   22  N   UNL     1      -8.909   6.593  72.166  1.00  0.00    -0.134 N  
HETATM   23  O   UNL     1      -9.598   8.344  73.466  1.00  0.00    -0.049 OA 
HETATM   24  C   UNL     1      -7.996   6.237  71.219  1.00  0.00    -0.116 C  
HETATM   25  H   UNL     1      -9.489   5.888  72.623  1.00  0.00     0.000 HD 
HETATM   26  O   UNL     1      -7.692   5.073  70.991  1.00  0.00    -0.082 OA 
ENDBRANCH  18  19
ENDBRANCH  15  18
ENDBRANCH  11  12
ENDBRANCH  10  11
ENDBRANCH   9  10
ENDBRANCH   6   9
ENDBRANCH   2   3
TORSDOF 7
ENDMDL
MODEL      262
REMARK 921   NORMALIZED FREE ENERGY PREDICTED BY IDOCK:   -3.48 KCAL/MOL
REMARK 922        TOTAL FREE ENERGY PREDICTED BY IDOCK:   -6.05 KCAL/MOL
REMARK 923 INTER-LIGAND FREE ENERGY PREDICTED BY IDOCK:   -5.32 KCAL/MOL
REMARK 924 INTRA-LIGAND FREE ENERGY PREDICTED BY IDOCK:   -0.73 KCAL/MOL
REMARK 927      BINDING AFFINITY PREDICTED BY RF-SCORE:    0.00 PKD
ROOT
HETATM    1  C   UNL     1     -12.284  15.299  71.344  1.00  0.00    -0.414 C  
HETATM    2  C   UNL     1     -11.039  15.475  70.486  1.00  0.00    -0.369 C  
ENDROOT
BRANCH   2   3
HETATM    3  C   UNL     1     -11.287  15.080  69.059  1.00  0.00    -0.306 A  
HETATM    4  C   UNL     1     -12.012  13.940  68.753  1.00  0.00    -0.358 A  
HETATM    5  N   UNL     1     -12.243  13.509  67.495  1.00  0.00    -0.284 NA 
HETATM    6  C   UNL     1     -11.745  14.236  66.462  1.00  0.00    -0.394 A  
HETATM    7  C   UNL     1     -10.998  15.387  66.674  1.00  0.00    -0.275 A  
HETATM    8  C   UNL     1     -10.769  15.810  67.987  1.00  0.00    -0.296 A  
BRANCH   6   9
HETATM    9  C   UNL     1     -12.009  13.714  65.061  1.00  0.00    -0.401 C  
BRANCH   9  10
HETATM   10  C   UNL     1     -11.494  12.281  64.949  1.00  0.00    -0.332 C  
BRANCH  10  11
HETATM   11  O   UNL     1     -10.150  12.104  65.415  1.00  0.00    -0.250 OA 
BRANCH  11  12
HETATM   12  C   UNL     1      -9.982  10.939  66.144  1.00  0.00    -0.233 A  
HETATM   13  C   UNL     1     -11.024  10.203  66.716  1.00  0.00    -0.049 A  
HETATM   14  C   UNL     1     -10.779   9.003  67.377  1.00  0.00    -0.231 A  
HETATM   15  C   UNL     1      -9.481   8.496  67.465  1.00  0.00    -0.182 A  
HETATM   16  C   UNL     1      -8.424   9.256  66.946  1.00  0.00    -0.128 A  
HETATM   17  C   UNL     1      -8.677  10.471  66.285  1.00  0.00    -0.159 A  
BRANCH  15  18
HETATM   18  C   UNL     1      -9.262   7.116  68.042  1.00  0.00    -0.130 C  
BRANCH  18  19
HETATM   19  C   UNL     1      -7.845   6.941  68.603  1.00  0.00    -0.118 C  
HETATM   20  S   UNL     1      -7.543   7.854  70.161  1.00  0.00    -0.085 SA 
HETATM   21  C   UNL     1      -6.859   6.463  70.949  1.00  0.00    -0.063 C  
HETATM   22  N   UNL     1      -7.100   5.350  70.220  1.00  0.00    -0.060 N  
HETATM   23  O   UNL     1      -6.228   6.508  71.989  1.00  0.00    -0.041 OA 
HETATM   24  C   UNL     1      -7.548   5.497  68.942  1.00  0.00    -0.087 C  
HETATM   25  H   UNL     1      -6.951   4.422  70.618  1.00  0.00     0.000 HD 
HETATM   26  O   UNL     1      -7.625   4.565  68.152  1.00  0.00    -0.075 OA 
ENDBRANCH  18  19
ENDBRANCH  15  18
ENDBRANCH  11  12
ENDBRANCH  10  11
ENDBRANCH   9  10
ENDBRANCH   6   9
ENDBRANCH   2   3
TORSDOF 7
ENDMDL
MODEL      263
REMARK 921   NORMALIZED FREE ENERGY PREDICTED BY IDOCK:   -3.48 KCAL/MOL
REMARK 922        TOTAL FREE ENERGY PREDICTED BY IDOCK:   -6.04 KCAL/MOL
REMARK 923 INTER-LIGAND FREE ENERGY PREDICTED BY IDOCK:   -4.90 KCAL/MOL
REMARK 924 INTRA-LIGAND FREE ENERGY PREDICTED BY IDOCK:   -1.14 KCAL/MOL
REMARK 927      BINDING AFFINITY PREDICTED BY RF-SCORE:    0.00 PKD
ROOT
HETATM    1  C   UNL     1     -10.681  15.470  70.548  1.00  0.00    -0.309 C  
HETATM    2  C   UNL     1      -9.489  15.536  69.605  1.00  0.00    -0.244 C  
ENDROOT
BRANCH   2   3
HETATM    3  C   UNL     1      -9.919  15.696  68.175  1.00  0.00    -0.217 A  
HETATM    4  C   UNL     1     -11.261  15.766  67.840  1.00  0.00    -0.313 A  
HETATM    5  N   UNL     1     -11.718  15.875  66.576  1.00  0.00     0.506 NA 
HETATM    6  C   UNL     1     -10.813  15.930  65.564  1.00  0.00    -0.315 A  
HETATM    7  C   UNL     1      -9.447  15.857  65.805  1.00  0.00    -0.316 A  
HETATM    8  C   UNL     1      -9.000  15.740  67.124  1.00  0.00    -0.233 A  
BRANCH   6   9
HETATM    9  C   UNL     1     -11.361  16.037  64.154  1.00  0.00     0.018 C  
BRANCH   9  10
HETATM   10  C   UNL     1     -12.601  15.155  64.024  1.00  0.00     0.330 C  
BRANCH  10  11
HETATM   11  O   UNL     1     -12.378  13.933  63.308  1.00  0.00    -0.749 OA 
BRANCH  11  12
HETATM   12  C   UNL     1     -11.799  12.950  64.091  1.00  0.00    -0.414 A  
HETATM   13  C   UNL     1     -10.696  12.180  63.712  1.00  0.00    -0.488 A  
HETATM   14  C   UNL     1     -10.127  11.256  64.586  1.00  0.00    -0.343 A  
HETATM   15  C   UNL     1     -10.639  11.094  65.874  1.00  0.00    -0.294 A  
HETATM   16  C   UNL     1     -11.782  11.819  66.242  1.00  0.00    -0.109 A  
HETATM   17  C   UNL     1     -12.354  12.746  65.354  1.00  0.00    -0.528 A  
BRANCH  15  18
HETATM   18  C   UNL     1      -9.908  10.208  66.857  1.00  0.00    -0.244 C  
BRANCH  18  19
HETATM   19  C   UNL     1      -8.421  10.063  66.511  1.00  0.00    -0.126 C  
HETATM   20  S   UNL     1      -7.290  10.511  67.879  1.00  0.00    -0.090 SA 
HETATM   21  C   UNL     1      -6.360   9.051  67.707  1.00  0.00    -0.056 C  
HETATM   22  N   UNL     1      -7.007   8.179  66.902  1.00  0.00    -0.072 N  
HETATM   23  O   UNL     1      -5.270   8.872  68.218  1.00  0.00    -0.034 OA 
HETATM   24  C   UNL     1      -8.060   8.634  66.167  1.00  0.00    -0.108 C  
HETATM   25  H   UNL     1      -6.714   7.203  66.845  1.00  0.00     0.000 HD 
HETATM   26  O   UNL     1      -8.593   7.973  65.285  1.00  0.00    -0.153 OA 
ENDBRANCH  18  19
ENDBRANCH  15  18
ENDBRANCH  11  12
ENDBRANCH  10  11
ENDBRANCH   9  10
ENDBRANCH   6   9
ENDBRANCH   2   3
TORSDOF 7
ENDMDL
MODEL      264
REMARK 921   NORMALIZED FREE ENERGY PREDICTED BY IDOCK:   -3.47 KCAL/MOL
REMARK 922        TOTAL FREE ENERGY PREDICTED BY IDOCK:   -6.03 KCAL/MOL
REMARK 923 INTER-LIGAND FREE ENERGY PREDICTED BY IDOCK:   -5.49 KCAL/MOL
REMARK 924 INTRA-LIGAND FREE ENERGY PREDICTED BY IDOCK:   -0.55 KCAL/MOL
REMARK 927      BINDING AFFINITY PREDICTED BY RF-SCORE:    0.00 PKD
ROOT
HETATM    1  C   UNL     1      -5.554   7.063  73.935  1.00  0.00    -0.050 C  
HETATM    2  C   UNL     1      -6.206   7.756  72.748  1.00  0.00    -0.062 C  
ENDROOT
BRANCH   2   3
HETATM    3  C   UNL     1      -7.661   7.406  72.629  1.00  0.00    -0.094 A  
HETATM    4  C   UNL     1      -8.198   7.000  71.418  1.00  0.00    -0.109 A  
HETATM    5  N   UNL     1      -9.500   6.704  71.233  1.00  0.00    -0.163 NA 
HETATM    6  C   UNL     1     -10.342   6.798  72.295  1.00  0.00    -0.196 A  
HETATM    7  C   UNL     1      -9.894   7.206  73.545  1.00  0.00    -0.322 A  
HETATM    8  C   UNL     1      -8.540   7.512  73.709  1.00  0.00    -0.253 A  
BRANCH   6   9
HETATM    9  C   UNL     1     -11.803   6.473  72.048  1.00  0.00    -0.374 C  
BRANCH   9  10
HETATM   10  C   UNL     1     -12.409   7.532  71.128  1.00  0.00    -0.291 C  
BRANCH  10  11
HETATM   11  O   UNL     1     -12.335   8.867  71.645  1.00  0.00    -0.307 OA 
BRANCH  11  12
HETATM   12  C   UNL     1     -11.930   9.789  70.696  1.00  0.00    -0.259 A  
HETATM   13  C   UNL     1     -12.780  10.688  70.046  1.00  0.00    -0.157 A  
HETATM   14  C   UNL     1     -12.284  11.633  69.152  1.00  0.00    -0.201 A  
HETATM   15  C   UNL     1     -10.913  11.714  68.899  1.00  0.00    -0.282 A  
HETATM   16  C   UNL     1     -10.060  10.778  69.500  1.00  0.00    -0.117 A  
HETATM   17  C   UNL     1     -10.568   9.824  70.397  1.00  0.00    -0.365 A  
BRANCH  15  18
HETATM   18  C   UNL     1     -10.381  12.849  68.054  1.00  0.00    -0.230 C  
BRANCH  18  19
HETATM   19  C   UNL     1      -9.829  12.361  66.709  1.00  0.00    -0.222 C  
HETATM   20  S   UNL     1      -8.629  10.986  66.851  1.00  0.00    -0.148 SA 
HETATM   21  C   UNL     1      -9.434  10.040  65.633  1.00  0.00    -0.220 C  
HETATM   22  N   UNL     1     -10.646  10.571  65.356  1.00  0.00    -0.148 N  
HETATM   23  O   UNL     1      -8.947   9.063  65.094  1.00  0.00    -0.200 OA 
HETATM   24  C   UNL     1     -10.923  11.825  65.812  1.00  0.00    -0.301 C  
HETATM   25  H   UNL     1     -11.336  10.046  64.820  1.00  0.00     0.000 HD 
HETATM   26  O   UNL     1     -11.914  12.455  65.467  1.00  0.00    -0.416 OA 
ENDBRANCH  18  19
ENDBRANCH  15  18
ENDBRANCH  11  12
ENDBRANCH  10  11
ENDBRANCH   9  10
ENDBRANCH   6   9
ENDBRANCH   2   3
TORSDOF 7
ENDMDL
MODEL      265
REMARK 921   NORMALIZED FREE ENERGY PREDICTED BY IDOCK:   -3.46 KCAL/MOL
REMARK 922        TOTAL FREE ENERGY PREDICTED BY IDOCK:   -6.02 KCAL/MOL
REMARK 923 INTER-LIGAND FREE ENERGY PREDICTED BY IDOCK:   -5.83 KCAL/MOL
REMARK 924 INTRA-LIGAND FREE ENERGY PREDICTED BY IDOCK:   -0.19 KCAL/MOL
REMARK 927      BINDING AFFINITY PREDICTED BY RF-SCORE:    0.00 PKD
ROOT
HETATM    1  C   UNL     1     -10.844  16.642  68.080  1.00  0.00    -0.337 C  
HETATM    2  C   UNL     1      -9.727  16.258  67.120  1.00  0.00    -0.240 C  
ENDROOT
BRANCH   2   3
HETATM    3  C   UNL     1      -9.850  14.832  66.665  1.00  0.00    -0.270 A  
HETATM    4  C   UNL     1     -10.918  14.426  65.883  1.00  0.00    -0.312 A  
HETATM    5  N   UNL     1     -11.108  13.156  65.468  1.00  0.00    -0.277 NA 
HETATM    6  C   UNL     1     -10.196  12.216  65.828  1.00  0.00    -0.254 A  
HETATM    7  C   UNL     1      -9.099  12.530  66.619  1.00  0.00    -0.203 A  
HETATM    8  C   UNL     1      -8.928  13.853  67.039  1.00  0.00    -0.251 A  
BRANCH   6   9
HETATM    9  C   UNL     1     -10.449  10.795  65.358  1.00  0.00    -0.272 C  
BRANCH   9  10
HETATM   10  C   UNL     1      -9.651   9.825  66.227  1.00  0.00    -0.213 C  
BRANCH  10  11
HETATM   11  O   UNL     1      -9.657   8.473  65.752  1.00  0.00    -0.152 OA 
BRANCH  11  12
HETATM   12  C   UNL     1      -9.721   7.544  66.776  1.00  0.00    -0.216 A  
HETATM   13  C   UNL     1      -8.617   7.075  67.494  1.00  0.00    -0.121 A  
HETATM   14  C   UNL     1      -8.773   6.190  68.558  1.00  0.00    -0.111 A  
HETATM   15  C   UNL     1     -10.045   5.765  68.944  1.00  0.00    -0.242 A  
HETATM   16  C   UNL     1     -11.153   6.183  68.192  1.00  0.00    -0.328 A  
HETATM   17  C   UNL     1     -10.989   7.072  67.116  1.00  0.00    -0.393 A  
BRANCH  15  18
HETATM   18  C   UNL     1     -10.202   4.938  70.199  1.00  0.00    -0.310 C  
BRANCH  18  19
HETATM   19  C   UNL     1      -9.809   5.717  71.460  1.00  0.00    -0.169 C  
HETATM   20  S   UNL     1      -8.035   6.160  71.540  1.00  0.00    -0.110 SA 
HETATM   21  C   UNL     1      -8.375   7.820  71.932  1.00  0.00    -0.113 C  
HETATM   22  N   UNL     1      -9.685   8.086  71.736  1.00  0.00    -0.165 N  
HETATM   23  O   UNL     1      -7.546   8.606  72.354  1.00  0.00    -0.296 OA 
HETATM   24  C   UNL     1     -10.539   7.039  71.556  1.00  0.00    -0.212 C  
HETATM   25  H   UNL     1     -10.028   9.047  71.722  1.00  0.00     0.000 HD 
HETATM   26  O   UNL     1     -11.756   7.166  71.547  1.00  0.00    -0.263 OA 
ENDBRANCH  18  19
ENDBRANCH  15  18
ENDBRANCH  11  12
ENDBRANCH  10  11
ENDBRANCH   9  10
ENDBRANCH   6   9
ENDBRANCH   2   3
TORSDOF 7
ENDMDL
MODEL      266
REMARK 921   NORMALIZED FREE ENERGY PREDICTED BY IDOCK:   -3.45 KCAL/MOL
REMARK 922        TOTAL FREE ENERGY PREDICTED BY IDOCK:   -6.01 KCAL/MOL
REMARK 923 INTER-LIGAND FREE ENERGY PREDICTED BY IDOCK:   -5.72 KCAL/MOL
REMARK 924 INTRA-LIGAND FREE ENERGY PREDICTED BY IDOCK:   -0.28 KCAL/MOL
REMARK 927      BINDING AFFINITY PREDICTED BY RF-SCORE:    0.00 PKD
ROOT
HETATM    1  C   UNL     1      -8.186   1.783  67.328  1.00  0.00    -0.075 C  
HETATM    2  C   UNL     1      -9.359   2.240  68.183  1.00  0.00    -0.263 C  
ENDROOT
BRANCH   2   3
HETATM    3  C   UNL     1      -9.049   3.513  68.917  1.00  0.00    -0.205 A  
HETATM    4  C   UNL     1      -9.594   3.764  70.166  1.00  0.00    -0.188 A  
HETATM    5  N   UNL     1      -9.385   4.898  70.865  1.00  0.00    -0.145 NA 
HETATM    6  C   UNL     1      -8.587   5.853  70.323  1.00  0.00    -0.134 A  
HETATM    7  C   UNL     1      -8.005   5.693  69.072  1.00  0.00    -0.096 A  
HETATM    8  C   UNL     1      -8.241   4.509  68.366  1.00  0.00    -0.086 A  
BRANCH   6   9
HETATM    9  C   UNL     1      -8.386   7.123  71.129  1.00  0.00    -0.113 C  
BRANCH   9  10
HETATM   10  C   UNL     1      -9.748   7.706  71.503  1.00  0.00    -0.165 C  
BRANCH  10  11
HETATM   11  O   UNL     1      -9.752   9.131  71.659  1.00  0.00    -0.292 OA 
BRANCH  11  12
HETATM   12  C   UNL     1      -9.977   9.800  70.468  1.00  0.00    -0.193 A  
HETATM   13  C   UNL     1      -8.986  10.114  69.534  1.00  0.00    -0.205 A  
HETATM   14  C   UNL     1      -9.303  10.730  68.326  1.00  0.00    -0.161 A  
HETATM   15  C   UNL     1     -10.630  11.031  68.013  1.00  0.00    -0.241 A  
HETATM   16  C   UNL     1     -11.623  10.774  68.969  1.00  0.00    -0.370 A  
HETATM   17  C   UNL     1     -11.295  10.157  70.189  1.00  0.00    -0.372 A  
BRANCH  15  18
HETATM   18  C   UNL     1     -10.968  11.547  66.633  1.00  0.00    -0.349 C  
BRANCH  18  19
HETATM   19  C   UNL     1     -11.033  13.078  66.587  1.00  0.00    -0.279 C  
HETATM   20  S   UNL     1     -10.466  13.895  68.124  1.00  0.00    -0.250 SA 
HETATM   21  C   UNL     1      -9.427  14.993  67.264  1.00  0.00    -0.208 C  
HETATM   22  N   UNL     1      -9.294  14.597  65.978  1.00  0.00    -0.487 N  
HETATM   23  O   UNL     1      -8.929  15.989  67.756  1.00  0.00    -0.186 OA 
HETATM   24  C   UNL     1     -10.146  13.647  65.501  1.00  0.00    -0.275 C  
HETATM   25  H   UNL     1      -8.572  14.999  65.380  1.00  0.00     0.000 HD 
HETATM   26  O   UNL     1     -10.219  13.353  64.315  1.00  0.00    -0.387 OA 
ENDBRANCH  18  19
ENDBRANCH  15  18
ENDBRANCH  11  12
ENDBRANCH  10  11
ENDBRANCH   9  10
ENDBRANCH   6   9
ENDBRANCH   2   3
TORSDOF 7
ENDMDL
MODEL      267
REMARK 921   NORMALIZED FREE ENERGY PREDICTED BY IDOCK:   -3.44 KCAL/MOL
REMARK 922        TOTAL FREE ENERGY PREDICTED BY IDOCK:   -5.99 KCAL/MOL
REMARK 923 INTER-LIGAND FREE ENERGY PREDICTED BY IDOCK:   -5.06 KCAL/MOL
REMARK 924 INTRA-LIGAND FREE ENERGY PREDICTED BY IDOCK:   -0.93 KCAL/MOL
REMARK 927      BINDING AFFINITY PREDICTED BY RF-SCORE:    0.00 PKD
ROOT
HETATM    1  C   UNL     1     -12.496  13.473  64.219  1.00  0.00    -0.311 C  
HETATM    2  C   UNL     1     -12.480  13.569  65.737  1.00  0.00    -0.514 C  
ENDROOT
BRANCH   2   3
HETATM    3  C   UNL     1     -11.445  14.542  66.223  1.00  0.00    -0.358 A  
HETATM    4  C   UNL     1     -11.565  15.147  67.464  1.00  0.00    -0.257 A  
HETATM    5  N   UNL     1     -10.691  16.054  67.947  1.00  0.00    -0.307 NA 
HETATM    6  C   UNL     1      -9.622  16.393  67.182  1.00  0.00    -0.235 A  
HETATM    7  C   UNL     1      -9.425  15.844  65.921  1.00  0.00    -0.372 A  
HETATM    8  C   UNL     1     -10.348  14.910  65.441  1.00  0.00    -0.413 A  
BRANCH   6   9
HETATM    9  C   UNL     1      -8.668  17.428  67.749  1.00  0.00    -0.232 C  
BRANCH   9  10
HETATM   10  C   UNL     1      -7.371  16.742  68.174  1.00  0.00    -0.173 C  
BRANCH  10  11
HETATM   11  O   UNL     1      -7.406  16.191  69.497  1.00  0.00    -0.220 OA 
BRANCH  11  12
HETATM   12  C   UNL     1      -7.013  14.865  69.537  1.00  0.00    -0.180 A  
HETATM   13  C   UNL     1      -6.051  14.347  70.409  1.00  0.00    -0.179 A  
HETATM   14  C   UNL     1      -5.760  12.986  70.435  1.00  0.00    -0.169 A  
HETATM   15  C   UNL     1      -6.442  12.101  69.598  1.00  0.00    -0.082 A  
HETATM   16  C   UNL     1      -7.365  12.619  68.679  1.00  0.00    -0.101 A  
HETATM   17  C   UNL     1      -7.651  13.995  68.654  1.00  0.00    -0.130 A  
BRANCH  15  18
HETATM   18  C   UNL     1      -6.227  10.614  69.759  1.00  0.00    -0.085 C  
BRANCH  18  19
HETATM   19  C   UNL     1      -7.461   9.802  69.345  1.00  0.00    -0.099 C  
HETATM   20  S   UNL     1      -7.349   9.080  67.667  1.00  0.00    -0.084 SA 
HETATM   21  C   UNL     1      -7.838   7.503  68.215  1.00  0.00    -0.122 C  
HETATM   22  N   UNL     1      -7.804   7.450  69.566  1.00  0.00    -0.118 N  
HETATM   23  O   UNL     1      -8.188   6.601  67.477  1.00  0.00    -0.120 OA 
HETATM   24  C   UNL     1      -7.688   8.617  70.258  1.00  0.00    -0.083 C  
HETATM   25  H   UNL     1      -7.865   6.556  70.055  1.00  0.00     0.000 HD 
HETATM   26  O   UNL     1      -7.825   8.688  71.472  1.00  0.00    -0.119 OA 
ENDBRANCH  18  19
ENDBRANCH  15  18
ENDBRANCH  11  12
ENDBRANCH  10  11
ENDBRANCH   9  10
ENDBRANCH   6   9
ENDBRANCH   2   3
TORSDOF 7
ENDMDL
MODEL      268
REMARK 921   NORMALIZED FREE ENERGY PREDICTED BY IDOCK:   -3.42 KCAL/MOL
REMARK 922        TOTAL FREE ENERGY PREDICTED BY IDOCK:   -5.96 KCAL/MOL
REMARK 923 INTER-LIGAND FREE ENERGY PREDICTED BY IDOCK:   -5.70 KCAL/MOL
REMARK 924 INTRA-LIGAND FREE ENERGY PREDICTED BY IDOCK:   -0.26 KCAL/MOL
REMARK 927      BINDING AFFINITY PREDICTED BY RF-SCORE:    0.00 PKD
ROOT
HETATM    1  C   UNL     1     -10.209   5.168  68.308  1.00  0.00    -0.179 C  
HETATM    2  C   UNL     1     -10.255   6.183  69.441  1.00  0.00    -0.248 C  
ENDROOT
BRANCH   2   3
HETATM    3  C   UNL     1      -9.415   7.390  69.140  1.00  0.00    -0.149 A  
HETATM    4  C   UNL     1      -8.102   7.256  68.717  1.00  0.00    -0.124 A  
HETATM    5  N   UNL     1      -7.282   8.296  68.462  1.00  0.00    -0.086 NA 
HETATM    6  C   UNL     1      -7.767   9.555  68.619  1.00  0.00    -0.081 A  
HETATM    7  C   UNL     1      -9.068   9.786  69.049  1.00  0.00    -0.157 A  
HETATM    8  C   UNL     1      -9.896   8.690  69.310  1.00  0.00    -0.188 A  
BRANCH   6   9
HETATM    9  C   UNL     1      -6.814  10.701  68.340  1.00  0.00    -0.064 C  
BRANCH   9  10
HETATM   10  C   UNL     1      -7.547  12.028  68.530  1.00  0.00    -0.126 C  
BRANCH  10  11
HETATM   11  O   UNL     1      -7.358  12.960  67.458  1.00  0.00    -0.137 OA 
BRANCH  11  12
HETATM   12  C   UNL     1      -8.227  14.035  67.521  1.00  0.00    -0.186 A  
HETATM   13  C   UNL     1      -9.412  14.144  66.787  1.00  0.00    -0.290 A  
HETATM   14  C   UNL     1     -10.269  15.228  66.958  1.00  0.00    -0.260 A  
HETATM   15  C   UNL     1      -9.970  16.226  67.888  1.00  0.00    -0.241 A  
HETATM   16  C   UNL     1      -8.755  16.156  68.585  1.00  0.00    -0.214 A  
HETATM   17  C   UNL     1      -7.892  15.061  68.403  1.00  0.00    -0.125 A  
BRANCH  15  18
HETATM   18  C   UNL     1     -10.990  17.304  68.173  1.00  0.00    -0.193 C  
BRANCH  18  19
HETATM   19  C   UNL     1     -10.547  18.675  67.649  1.00  0.00    -0.409 C  
HETATM   20  S   UNL     1      -9.167  19.423  68.590  1.00  0.00    -0.363 SA 
HETATM   21  C   UNL     1      -8.263  19.786  67.150  1.00  0.00    -0.298 C  
HETATM   22  N   UNL     1      -8.805  19.149  66.087  1.00  0.00    -0.282 N  
HETATM   23  O   UNL     1      -7.304  20.536  67.115  1.00  0.00    -0.290 OA 
HETATM   24  C   UNL     1     -10.043  18.597  66.224  1.00  0.00    -0.400 C  
HETATM   25  H   UNL     1      -8.299  19.083  65.204  1.00  0.00     0.000 HD 
HETATM   26  O   UNL     1     -10.685  18.158  65.280  1.00  0.00    -0.605 OA 
ENDBRANCH  18  19
ENDBRANCH  15  18
ENDBRANCH  11  12
ENDBRANCH  10  11
ENDBRANCH   9  10
ENDBRANCH   6   9
ENDBRANCH   2   3
TORSDOF 7
ENDMDL
MODEL      269
REMARK 921   NORMALIZED FREE ENERGY PREDICTED BY IDOCK:   -3.42 KCAL/MOL
REMARK 922        TOTAL FREE ENERGY PREDICTED BY IDOCK:   -5.96 KCAL/MOL
REMARK 923 INTER-LIGAND FREE ENERGY PREDICTED BY IDOCK:   -5.45 KCAL/MOL
REMARK 924 INTRA-LIGAND FREE ENERGY PREDICTED BY IDOCK:   -0.50 KCAL/MOL
REMARK 927      BINDING AFFINITY PREDICTED BY RF-SCORE:    0.00 PKD
ROOT
HETATM    1  C   UNL     1     -10.456  19.661  67.973  1.00  0.00    -0.537 C  
HETATM    2  C   UNL     1      -8.949  19.821  68.111  1.00  0.00    -0.367 C  
ENDROOT
BRANCH   2   3
HETATM    3  C   UNL     1      -8.294  18.548  68.564  1.00  0.00    -0.359 A  
HETATM    4  C   UNL     1      -6.954  18.525  68.914  1.00  0.00    -0.283 A  
HETATM    5  N   UNL     1      -6.295  17.411  69.297  1.00  0.00    -0.233 NA 
HETATM    6  C   UNL     1      -6.981  16.241  69.353  1.00  0.00    -0.212 A  
HETATM    7  C   UNL     1      -8.326  16.168  69.010  1.00  0.00    -0.247 A  
HETATM    8  C   UNL     1      -8.984  17.336  68.613  1.00  0.00    -0.265 A  
BRANCH   6   9
HETATM    9  C   UNL     1      -6.206  15.006  69.771  1.00  0.00    -0.143 C  
BRANCH   9  10
HETATM   10  C   UNL     1      -5.568  14.367  68.538  1.00  0.00    -0.098 C  
BRANCH  10  11
HETATM   11  O   UNL     1      -5.827  12.963  68.406  1.00  0.00    -0.063 OA 
BRANCH  11  12
HETATM   12  C   UNL     1      -7.147  12.688  68.093  1.00  0.00    -0.102 A  
HETATM   13  C   UNL     1      -7.903  13.388  67.148  1.00  0.00    -0.035 A  
HETATM   14  C   UNL     1      -9.206  13.006  66.840  1.00  0.00    -0.236 A  
HETATM   15  C   UNL     1      -9.781  11.895  67.460  1.00  0.00    -0.185 A  
HETATM   16  C   UNL     1      -9.053  11.224  68.452  1.00  0.00    -0.170 A  
HETATM   17  C   UNL     1      -7.740  11.618  68.762  1.00  0.00    -0.111 A  
BRANCH  15  18
HETATM   18  C   UNL     1     -11.132  11.402  66.993  1.00  0.00    -0.364 C  
BRANCH  18  19
HETATM   19  C   UNL     1     -11.032  10.570  65.709  1.00  0.00     0.239 C  
HETATM   20  S   UNL     1     -10.287  11.464  64.296  1.00  0.00    -0.357 SA 
HETATM   21  C   UNL     1      -9.190  10.164  63.936  1.00  0.00    -0.280 C  
HETATM   22  N   UNL     1      -9.179   9.269  64.950  1.00  0.00    -0.420 N  
HETATM   23  O   UNL     1      -8.557  10.071  62.900  1.00  0.00    -0.157 OA 
HETATM   24  C   UNL     1     -10.157   9.349  65.895  1.00  0.00    -0.173 C  
HETATM   25  H   UNL     1      -8.457   8.552  65.006  1.00  0.00     0.000 HD 
HETATM   26  O   UNL     1     -10.335   8.487  66.745  1.00  0.00    -0.295 OA 
ENDBRANCH  18  19
ENDBRANCH  15  18
ENDBRANCH  11  12
ENDBRANCH  10  11
ENDBRANCH   9  10
ENDBRANCH   6   9
ENDBRANCH   2   3
TORSDOF 7
ENDMDL
MODEL      270
REMARK 921   NORMALIZED FREE ENERGY PREDICTED BY IDOCK:   -3.42 KCAL/MOL
REMARK 922        TOTAL FREE ENERGY PREDICTED BY IDOCK:   -5.96 KCAL/MOL
REMARK 923 INTER-LIGAND FREE ENERGY PREDICTED BY IDOCK:   -4.60 KCAL/MOL
REMARK 924 INTRA-LIGAND FREE ENERGY PREDICTED BY IDOCK:   -1.36 KCAL/MOL
REMARK 927      BINDING AFFINITY PREDICTED BY RF-SCORE:    0.00 PKD
ROOT
HETATM    1  C   UNL     1      -7.491  11.087  68.243  1.00  0.00    -0.092 C  
HETATM    2  C   UNL     1      -7.703   9.581  68.209  1.00  0.00    -0.086 C  
ENDROOT
BRANCH   2   3
HETATM    3  C   UNL     1      -8.263   9.068  69.504  1.00  0.00    -0.114 A  
HETATM    4  C   UNL     1      -9.364   9.672  70.091  1.00  0.00    -0.251 A  
HETATM    5  N   UNL     1      -9.897   9.285  71.268  1.00  0.00    -0.281 NA 
HETATM    6  C   UNL     1      -9.332   8.236  71.919  1.00  0.00    -0.216 A  
HETATM    7  C   UNL     1      -8.220   7.576  71.411  1.00  0.00    -0.106 A  
HETATM    8  C   UNL     1      -7.684   8.000  70.191  1.00  0.00    -0.087 A  
BRANCH   6   9
HETATM    9  C   UNL     1      -9.946   7.837  73.248  1.00  0.00    -0.370 C  
BRANCH   9  10
HETATM   10  C   UNL     1     -10.616   6.471  73.107  1.00  0.00    -0.265 C  
BRANCH  10  11
HETATM   11  O   UNL     1     -11.559   6.390  72.031  1.00  0.00    -0.292 OA 
BRANCH  11  12
HETATM   12  C   UNL     1     -11.021   5.823  70.888  1.00  0.00    -0.235 A  
HETATM   13  C   UNL     1     -11.178   6.337  69.597  1.00  0.00    -0.506 A  
HETATM   14  C   UNL     1     -10.548   5.747  68.505  1.00  0.00    -0.299 A  
HETATM   15  C   UNL     1      -9.725   4.633  68.681  1.00  0.00    -0.217 A  
HETATM   16  C   UNL     1      -9.610   4.075  69.962  1.00  0.00    -0.274 A  
HETATM   17  C   UNL     1     -10.253   4.673  71.060  1.00  0.00    -0.207 A  
BRANCH  15  18
HETATM   18  C   UNL     1      -8.924   4.110  67.511  1.00  0.00    -0.142 C  
BRANCH  18  19
HETATM   19  C   UNL     1      -8.458   5.235  66.578  1.00  0.00    -0.112 C  
HETATM   20  S   UNL     1      -6.805   5.905  66.987  1.00  0.00    -0.065 SA 
HETATM   21  C   UNL     1      -6.250   5.784  65.343  1.00  0.00    -0.037 C  
HETATM   22  N   UNL     1      -7.115   5.043  64.614  1.00  0.00    -0.053 N  
HETATM   23  O   UNL     1      -5.244   6.324  64.919  1.00  0.00    -0.016 OA 
HETATM   24  C   UNL     1      -8.338   4.765  65.145  1.00  0.00    -0.129 C  
HETATM   25  H   UNL     1      -6.857   4.700  63.688  1.00  0.00     0.000 HD 
HETATM   26  O   UNL     1      -9.246   4.258  64.499  1.00  0.00    -0.147 OA 
ENDBRANCH  18  19
ENDBRANCH  15  18
ENDBRANCH  11  12
ENDBRANCH  10  11
ENDBRANCH   9  10
ENDBRANCH   6   9
ENDBRANCH   2   3
TORSDOF 7
ENDMDL
MODEL      271
REMARK 921   NORMALIZED FREE ENERGY PREDICTED BY IDOCK:   -3.41 KCAL/MOL
REMARK 922        TOTAL FREE ENERGY PREDICTED BY IDOCK:   -5.95 KCAL/MOL
REMARK 923 INTER-LIGAND FREE ENERGY PREDICTED BY IDOCK:   -5.35 KCAL/MOL
REMARK 924 INTRA-LIGAND FREE ENERGY PREDICTED BY IDOCK:   -0.60 KCAL/MOL
REMARK 927      BINDING AFFINITY PREDICTED BY RF-SCORE:    0.00 PKD
ROOT
HETATM    1  C   UNL     1     -13.935   7.076  71.815  1.00  0.00    -0.342 C  
HETATM    2  C   UNL     1     -12.734   7.963  71.521  1.00  0.00    -0.342 C  
ENDROOT
BRANCH   2   3
HETATM    3  C   UNL     1     -11.466   7.166  71.420  1.00  0.00    -0.303 A  
HETATM    4  C   UNL     1     -10.421   7.377  72.305  1.00  0.00    -0.223 A  
HETATM    5  N   UNL     1      -9.243   6.722  72.250  1.00  0.00    -0.133 NA 
HETATM    6  C   UNL     1      -9.066   5.791  71.277  1.00  0.00    -0.140 A  
HETATM    7  C   UNL     1     -10.054   5.520  70.340  1.00  0.00    -0.297 A  
HETATM    8  C   UNL     1     -11.264   6.216  70.416  1.00  0.00    -0.423 A  
BRANCH   6   9
HETATM    9  C   UNL     1      -7.723   5.085  71.235  1.00  0.00    -0.092 C  
BRANCH   9  10
HETATM   10  C   UNL     1      -6.920   5.595  70.040  1.00  0.00    -0.065 C  
BRANCH  10  11
HETATM   11  O   UNL     1      -6.751   7.019  70.013  1.00  0.00    -0.052 OA 
BRANCH  11  12
HETATM   12  C   UNL     1      -7.095   7.578  68.795  1.00  0.00    -0.080 A  
HETATM   13  C   UNL     1      -8.399   7.903  68.410  1.00  0.00    -0.124 A  
HETATM   14  C   UNL     1      -8.657   8.527  67.192  1.00  0.00    -0.123 A  
HETATM   15  C   UNL     1      -7.608   8.860  66.333  1.00  0.00    -0.092 A  
HETATM   16  C   UNL     1      -6.303   8.484  66.684  1.00  0.00    -0.059 A  
HETATM   17  C   UNL     1      -6.051   7.849  67.912  1.00  0.00    -0.046 A  
BRANCH  15  18
HETATM   18  C   UNL     1      -7.894   9.681  65.097  1.00  0.00    -0.117 C  
BRANCH  18  19
HETATM   19  C   UNL     1      -9.396   9.790  64.808  1.00  0.00    -0.265 C  
HETATM   20  S   UNL     1     -10.267  11.021  65.846  1.00  0.00    -0.258 SA 
HETATM   21  C   UNL     1     -11.053  11.752  64.477  1.00  0.00    -0.315 C  
HETATM   22  N   UNL     1     -10.495  11.309  63.329  1.00  0.00    -0.627 N  
HETATM   23  O   UNL     1     -11.992  12.522  64.560  1.00  0.00    -0.362 OA 
HETATM   24  C   UNL     1      -9.666  10.228  63.385  1.00  0.00    -0.184 C  
HETATM   25  H   UNL     1     -10.688  11.772  62.441  1.00  0.00     0.000 HD 
HETATM   26  O   UNL     1      -9.257   9.650  62.387  1.00  0.00    -0.283 OA 
ENDBRANCH  18  19
ENDBRANCH  15  18
ENDBRANCH  11  12
ENDBRANCH  10  11
ENDBRANCH   9  10
ENDBRANCH   6   9
ENDBRANCH   2   3
TORSDOF 7
ENDMDL
MODEL      272
REMARK 921   NORMALIZED FREE ENERGY PREDICTED BY IDOCK:   -3.40 KCAL/MOL
REMARK 922        TOTAL FREE ENERGY PREDICTED BY IDOCK:   -5.93 KCAL/MOL
REMARK 923 INTER-LIGAND FREE ENERGY PREDICTED BY IDOCK:   -5.10 KCAL/MOL
REMARK 924 INTRA-LIGAND FREE ENERGY PREDICTED BY IDOCK:   -0.83 KCAL/MOL
REMARK 927      BINDING AFFINITY PREDICTED BY RF-SCORE:    0.00 PKD
ROOT
HETATM    1  C   UNL     1      -5.645  11.180  66.507  1.00  0.00    -0.127 C  
HETATM    2  C   UNL     1      -6.131  10.192  67.556  1.00  0.00    -0.057 C  
ENDROOT
BRANCH   2   3
HETATM    3  C   UNL     1      -7.576  10.412  67.900  1.00  0.00    -0.088 A  
HETATM    4  C   UNL     1      -8.074  10.048  69.141  1.00  0.00    -0.126 A  
HETATM    5  N   UNL     1      -9.366  10.185  69.503  1.00  0.00    -0.219 NA 
HETATM    6  C   UNL     1     -10.235  10.720  68.608  1.00  0.00    -0.185 A  
HETATM    7  C   UNL     1      -9.827  11.105  67.337  1.00  0.00    -0.195 A  
HETATM    8  C   UNL     1      -8.483  10.947  66.984  1.00  0.00    -0.134 A  
BRANCH   6   9
HETATM    9  C   UNL     1     -11.684  10.845  69.042  1.00  0.00    -0.391 C  
BRANCH   9  10
HETATM   10  C   UNL     1     -11.791  10.550  70.537  1.00  0.00    -0.347 C  
BRANCH  10  11
HETATM   11  O   UNL     1     -12.611   9.417  70.852  1.00  0.00    -0.249 OA 
BRANCH  11  12
HETATM   12  C   UNL     1     -11.935   8.448  71.573  1.00  0.00    -0.299 A  
HETATM   13  C   UNL     1     -10.880   8.705  72.453  1.00  0.00    -0.312 A  
HETATM   14  C   UNL     1     -10.295   7.681  73.195  1.00  0.00    -0.411 A  
HETATM   15  C   UNL     1     -10.768   6.372  73.088  1.00  0.00    -0.294 A  
HETATM   16  C   UNL     1     -11.786   6.096  72.164  1.00  0.00    -0.361 A  
HETATM   17  C   UNL     1     -12.368   7.132  71.414  1.00  0.00    -0.415 A  
BRANCH  15  18
HETATM   18  C   UNL     1     -10.230   5.311  74.021  1.00  0.00    -0.273 C  
BRANCH  18  19
HETATM   19  C   UNL     1      -9.417   4.244  73.277  1.00  0.00    -0.111 C  
HETATM   20  S   UNL     1      -7.650   4.188  73.751  1.00  0.00    -0.081 SA 
HETATM   21  C   UNL     1      -7.672   2.464  73.976  1.00  0.00    -0.050 C  
HETATM   22  N   UNL     1      -8.946   2.011  73.980  1.00  0.00    -0.065 N  
HETATM   23  O   UNL     1      -6.674   1.775  74.078  1.00  0.00    -0.020 OA 
HETATM   24  C   UNL     1      -9.933   2.849  73.554  1.00  0.00    -0.105 C  
HETATM   25  H   UNL     1      -9.165   1.066  74.296  1.00  0.00     0.000 HD 
HETATM   26  O   UNL     1     -11.083   2.478  73.356  1.00  0.00    -0.183 OA 
ENDBRANCH  18  19
ENDBRANCH  15  18
ENDBRANCH  11  12
ENDBRANCH  10  11
ENDBRANCH   9  10
ENDBRANCH   6   9
ENDBRANCH   2   3
TORSDOF 7
ENDMDL
MODEL      273
REMARK 921   NORMALIZED FREE ENERGY PREDICTED BY IDOCK:   -3.37 KCAL/MOL
REMARK 922        TOTAL FREE ENERGY PREDICTED BY IDOCK:   -5.89 KCAL/MOL
REMARK 923 INTER-LIGAND FREE ENERGY PREDICTED BY IDOCK:   -5.04 KCAL/MOL
REMARK 924 INTRA-LIGAND FREE ENERGY PREDICTED BY IDOCK:   -0.86 KCAL/MOL
REMARK 927      BINDING AFFINITY PREDICTED BY RF-SCORE:    0.00 PKD
ROOT
HETATM    1  C   UNL     1     -10.691  15.492  70.799  1.00  0.00    -0.206 C  
HETATM    2  C   UNL     1      -9.528  15.611  69.824  1.00  0.00    -0.154 C  
ENDROOT
BRANCH   2   3
HETATM    3  C   UNL     1      -9.923  15.202  68.435  1.00  0.00    -0.222 A  
HETATM    4  C   UNL     1     -11.155  14.617  68.189  1.00  0.00    -0.274 A  
HETATM    5  N   UNL     1     -11.560  14.196  66.973  1.00  0.00    -0.362 NA 
HETATM    6  C   UNL     1     -10.719  14.360  65.919  1.00  0.00    -0.306 A  
HETATM    7  C   UNL     1      -9.461  14.928  66.073  1.00  0.00    -0.316 A  
HETATM    8  C   UNL     1      -9.064  15.352  67.345  1.00  0.00    -0.206 A  
BRANCH   6   9
HETATM    9  C   UNL     1     -11.199  13.861  64.569  1.00  0.00    -0.372 C  
BRANCH   9  10
HETATM   10  C   UNL     1     -12.000  12.574  64.761  1.00  0.00    -0.409 C  
BRANCH  10  11
HETATM   11  O   UNL     1     -11.319  11.391  64.327  1.00  0.00    -0.294 OA 
BRANCH  11  12
HETATM   12  C   UNL     1     -10.271  11.038  65.160  1.00  0.00    -0.291 A  
HETATM   13  C   UNL     1     -10.290  11.151  66.553  1.00  0.00    -0.290 A  
HETATM   14  C   UNL     1      -9.219  10.711  67.326  1.00  0.00    -0.155 A  
HETATM   15  C   UNL     1      -8.105  10.126  66.723  1.00  0.00    -0.119 A  
HETATM   16  C   UNL     1      -8.051  10.063  65.323  1.00  0.00    -0.145 A  
HETATM   17  C   UNL     1      -9.133  10.514  64.548  1.00  0.00    -0.251 A  
BRANCH  15  18
HETATM   18  C   UNL     1      -7.031   9.508  67.589  1.00  0.00    -0.080 C  
BRANCH  18  19
HETATM   19  C   UNL     1      -7.549   9.151  68.988  1.00  0.00    -0.074 C  
HETATM   20  S   UNL     1      -7.302   7.397  69.449  1.00  0.00    -0.087 SA 
HETATM   21  C   UNL     1      -6.612   7.807  70.992  1.00  0.00    -0.038 C  
HETATM   22  N   UNL     1      -6.325   9.127  71.038  1.00  0.00    -0.064 N  
HETATM   23  O   UNL     1      -6.450   7.013  71.901  1.00  0.00    -0.048 OA 
HETATM   24  C   UNL     1      -6.838   9.936  70.069  1.00  0.00    -0.110 C  
HETATM   25  H   UNL     1      -5.737   9.509  71.779  1.00  0.00     0.000 HD 
HETATM   26  O   UNL     1      -6.782  11.157  70.122  1.00  0.00    -0.165 OA 
ENDBRANCH  18  19
ENDBRANCH  15  18
ENDBRANCH  11  12
ENDBRANCH  10  11
ENDBRANCH   9  10
ENDBRANCH   6   9
ENDBRANCH   2   3
TORSDOF 7
ENDMDL
MODEL      274
REMARK 921   NORMALIZED FREE ENERGY PREDICTED BY IDOCK:   -3.29 KCAL/MOL
REMARK 922        TOTAL FREE ENERGY PREDICTED BY IDOCK:   -5.78 KCAL/MOL
REMARK 923 INTER-LIGAND FREE ENERGY PREDICTED BY IDOCK:   -5.36 KCAL/MOL
REMARK 924 INTRA-LIGAND FREE ENERGY PREDICTED BY IDOCK:   -0.43 KCAL/MOL
REMARK 927      BINDING AFFINITY PREDICTED BY RF-SCORE:    0.00 PKD
ROOT
HETATM    1  C   UNL     1     -12.149  14.352  67.147  1.00  0.00    -0.367 C  
HETATM    2  C   UNL     1     -12.726  13.903  65.812  1.00  0.00    -0.503 C  
ENDROOT
BRANCH   2   3
HETATM    3  C   UNL     1     -11.764  13.034  65.055  1.00  0.00    -0.376 A  
HETATM    4  C   UNL     1     -10.472  12.835  65.515  1.00  0.00    -0.287 A  
HETATM    5  N   UNL     1      -9.547  12.096  64.869  1.00  0.00    -0.059 NA 
HETATM    6  C   UNL     1      -9.898  11.500  63.700  1.00  0.00    -0.353 A  
HETATM    7  C   UNL     1     -11.168  11.651  63.158  1.00  0.00    -0.180 A  
HETATM    8  C   UNL     1     -12.106  12.426  63.846  1.00  0.00    -0.587 A  
BRANCH   6   9
HETATM    9  C   UNL     1      -8.829  10.689  62.991  1.00  0.00    -0.236 C  
BRANCH   9  10
HETATM   10  C   UNL     1      -8.232   9.676  63.966  1.00  0.00    -0.159 C  
BRANCH  10  11
HETATM   11  O   UNL     1      -9.120   8.607  64.317  1.00  0.00     0.177 OA 
BRANCH  11  12
HETATM   12  C   UNL     1      -8.778   7.994  65.510  1.00  0.00    -0.102 A  
HETATM   13  C   UNL     1      -8.089   6.782  65.611  1.00  0.00    -0.122 A  
HETATM   14  C   UNL     1      -7.721   6.264  66.850  1.00  0.00    -0.100 A  
HETATM   15  C   UNL     1      -8.018   6.959  68.024  1.00  0.00    -0.115 A  
HETATM   16  C   UNL     1      -8.761   8.145  67.935  1.00  0.00    -0.128 A  
HETATM   17  C   UNL     1      -9.134   8.660  66.681  1.00  0.00    -0.203 A  
BRANCH  15  18
HETATM   18  C   UNL     1      -7.467   6.461  69.340  1.00  0.00    -0.094 C  
BRANCH  18  19
HETATM   19  C   UNL     1      -8.576   6.001  70.295  1.00  0.00    -0.143 C  
HETATM   20  S   UNL     1      -9.565   7.368  71.004  1.00  0.00    -0.159 SA 
HETATM   21  C   UNL     1     -11.074   6.599  70.613  1.00  0.00    -0.298 C  
HETATM   22  N   UNL     1     -10.864   5.559  69.774  1.00  0.00    -0.298 N  
HETATM   23  O   UNL     1     -12.152   6.938  71.066  1.00  0.00    -0.354 OA 
HETATM   24  C   UNL     1      -9.587   5.116  69.599  1.00  0.00    -0.167 C  
HETATM   25  H   UNL     1     -11.641   5.117  69.284  1.00  0.00     0.000 HD 
HETATM   26  O   UNL     1      -9.316   4.081  69.005  1.00  0.00    -0.143 OA 
ENDBRANCH  18  19
ENDBRANCH  15  18
ENDBRANCH  11  12
ENDBRANCH  10  11
ENDBRANCH   9  10
ENDBRANCH   6   9
ENDBRANCH   2   3
TORSDOF 7
ENDMDL
MODEL      275
REMARK 921   NORMALIZED FREE ENERGY PREDICTED BY IDOCK:   -3.27 KCAL/MOL
REMARK 922        TOTAL FREE ENERGY PREDICTED BY IDOCK:   -5.76 KCAL/MOL
REMARK 923 INTER-LIGAND FREE ENERGY PREDICTED BY IDOCK:   -5.32 KCAL/MOL
REMARK 924 INTRA-LIGAND FREE ENERGY PREDICTED BY IDOCK:   -0.44 KCAL/MOL
REMARK 927      BINDING AFFINITY PREDICTED BY RF-SCORE:    0.00 PKD
ROOT
HETATM    1  C   UNL     1     -12.393  14.841  64.269  1.00  0.00    -0.345 C  
HETATM    2  C   UNL     1     -10.958  14.703  64.756  1.00  0.00    -0.399 C  
ENDROOT
BRANCH   2   3
HETATM    3  C   UNL     1     -10.530  13.265  64.826  1.00  0.00    -0.402 A  
HETATM    4  C   UNL     1      -9.824  12.786  65.918  1.00  0.00    -0.238 A  
HETATM    5  N   UNL     1      -9.380  11.517  66.030  1.00  0.00    -0.220 NA 
HETATM    6  C   UNL     1      -9.645  10.648  65.020  1.00  0.00    -0.265 A  
HETATM    7  C   UNL     1     -10.338  11.043  63.883  1.00  0.00    -0.436 A  
HETATM    8  C   UNL     1     -10.783  12.364  63.790  1.00  0.00    -0.492 A  
BRANCH   6   9
HETATM    9  C   UNL     1      -9.117   9.234  65.172  1.00  0.00    -0.263 C  
BRANCH   9  10
HETATM   10  C   UNL     1      -9.379   8.745  66.595  1.00  0.00    -0.189 C  
BRANCH  10  11
HETATM   11  O   UNL     1      -8.194   8.400  67.323  1.00  0.00    -0.111 OA 
BRANCH  11  12
HETATM   12  C   UNL     1      -8.389   8.386  68.693  1.00  0.00    -0.120 A  
HETATM   13  C   UNL     1      -9.570   8.777  69.331  1.00  0.00    -0.163 A  
HETATM   14  C   UNL     1      -9.712   8.669  70.712  1.00  0.00    -0.237 A  
HETATM   15  C   UNL     1      -8.678   8.148  71.491  1.00  0.00    -0.185 A  
HETATM   16  C   UNL     1      -7.468   7.810  70.867  1.00  0.00    -0.073 A  
HETATM   17  C   UNL     1      -7.329   7.926  69.473  1.00  0.00    -0.087 A  
BRANCH  15  18
HETATM   18  C   UNL     1      -8.914   7.888  72.961  1.00  0.00    -0.286 C  
BRANCH  18  19
HETATM   19  C   UNL     1      -9.127   6.399  73.260  1.00  0.00    -0.128 C  
HETATM   20  S   UNL     1     -10.124   5.521  72.001  1.00  0.00    -0.192 SA 
HETATM   21  C   UNL     1      -8.977   4.220  71.871  1.00  0.00    -0.120 C  
HETATM   22  N   UNL     1      -7.823   4.553  72.491  1.00  0.00    -0.085 N  
HETATM   23  O   UNL     1      -9.210   3.156  71.326  1.00  0.00    -0.100 OA 
HETATM   24  C   UNL     1      -7.818   5.642  73.310  1.00  0.00    -0.106 C  
HETATM   25  H   UNL     1      -6.976   4.003  72.350  1.00  0.00     0.000 HD 
HETATM   26  O   UNL     1      -6.880   5.919  74.046  1.00  0.00    -0.079 OA 
ENDBRANCH  18  19
ENDBRANCH  15  18
ENDBRANCH  11  12
ENDBRANCH  10  11
ENDBRANCH   9  10
ENDBRANCH   6   9
ENDBRANCH   2   3
TORSDOF 7
ENDMDL
MODEL      276
REMARK 921   NORMALIZED FREE ENERGY PREDICTED BY IDOCK:   -3.27 KCAL/MOL
REMARK 922        TOTAL FREE ENERGY PREDICTED BY IDOCK:   -5.75 KCAL/MOL
REMARK 923 INTER-LIGAND FREE ENERGY PREDICTED BY IDOCK:   -6.44 KCAL/MOL
REMARK 924 INTRA-LIGAND FREE ENERGY PREDICTED BY IDOCK:    0.69 KCAL/MOL
REMARK 927      BINDING AFFINITY PREDICTED BY RF-SCORE:    0.00 PKD
ROOT
HETATM    1  C   UNL     1      -7.577   2.106  71.335  1.00  0.00    -0.040 C  
HETATM    2  C   UNL     1      -7.132   3.088  72.409  1.00  0.00    -0.035 C  
ENDROOT
BRANCH   2   3
HETATM    3  C   UNL     1      -8.116   4.210  72.580  1.00  0.00    -0.095 A  
HETATM    4  C   UNL     1      -7.683   5.519  72.715  1.00  0.00    -0.098 A  
HETATM    5  N   UNL     1      -8.509   6.569  72.905  1.00  0.00    -0.120 NA 
HETATM    6  C   UNL     1      -9.846   6.338  72.959  1.00  0.00    -0.168 A  
HETATM    7  C   UNL     1     -10.369   5.057  72.842  1.00  0.00    -0.238 A  
HETATM    8  C   UNL     1      -9.492   3.985  72.651  1.00  0.00    -0.170 A  
BRANCH   6   9
HETATM    9  C   UNL     1     -10.745   7.539  73.190  1.00  0.00    -0.452 C  
BRANCH   9  10
HETATM   10  C   UNL     1     -11.667   7.720  71.986  1.00  0.00    -0.304 C  
BRANCH  10  11
HETATM   11  O   UNL     1     -10.978   7.918  70.745  1.00  0.00    -0.242 OA 
BRANCH  11  12
HETATM   12  C   UNL     1     -11.091   9.213  70.269  1.00  0.00    -0.239 A  
HETATM   13  C   UNL     1     -12.204  10.036  70.462  1.00  0.00    -0.308 A  
HETATM   14  C   UNL     1     -12.214  11.353  70.009  1.00  0.00    -0.377 A  
HETATM   15  C   UNL     1     -11.096  11.887  69.366  1.00  0.00    -0.218 A  
HETATM   16  C   UNL     1      -9.998  11.052  69.115  1.00  0.00    -0.142 A  
HETATM   17  C   UNL     1      -9.997   9.721  69.570  1.00  0.00    -0.230 A  
BRANCH  15  18
HETATM   18  C   UNL     1     -11.066  13.361  69.031  1.00  0.00    -0.293 C  
BRANCH  18  19
HETATM   19  C   UNL     1     -12.281  14.108  69.595  1.00  0.00    -0.326 C  
HETATM   20  S   UNL     1     -12.785  13.556  71.266  1.00  0.00    -0.303 SA 
HETATM   21  C   UNL     1     -12.864  15.183  71.877  1.00  0.00    -0.349 C  
HETATM   22  N   UNL     1     -12.287  16.037  71.002  1.00  0.00    -0.542 N  
HETATM   23  O   UNL     1     -13.396  15.493  72.927  1.00  0.00    -0.457 OA 
HETATM   24  C   UNL     1     -12.012  15.590  69.745  1.00  0.00    -0.364 C  
HETATM   25  H   UNL     1     -12.063  16.994  71.276  1.00  0.00     0.000 HD 
HETATM   26  O   UNL     1     -11.657  16.329  68.837  1.00  0.00    -0.330 OA 
ENDBRANCH  18  19
ENDBRANCH  15  18
ENDBRANCH  11  12
ENDBRANCH  10  11
ENDBRANCH   9  10
ENDBRANCH   6   9
ENDBRANCH   2   3
TORSDOF 7
ENDMDL
MODEL      277
REMARK 921   NORMALIZED FREE ENERGY PREDICTED BY IDOCK:   -3.26 KCAL/MOL
REMARK 922        TOTAL FREE ENERGY PREDICTED BY IDOCK:   -5.74 KCAL/MOL
REMARK 923 INTER-LIGAND FREE ENERGY PREDICTED BY IDOCK:   -4.73 KCAL/MOL
REMARK 924 INTRA-LIGAND FREE ENERGY PREDICTED BY IDOCK:   -1.01 KCAL/MOL
REMARK 927      BINDING AFFINITY PREDICTED BY RF-SCORE:    0.00 PKD
ROOT
HETATM    1  C   UNL     1      -9.545   9.201  65.955  1.00  0.00    -0.342 C  
HETATM    2  C   UNL     1     -10.315  10.260  66.731  1.00  0.00    -0.288 C  
ENDROOT
BRANCH   2   3
HETATM    3  C   UNL     1     -10.625   9.810  68.130  1.00  0.00    -0.276 A  
HETATM    4  C   UNL     1     -11.162  10.689  69.056  1.00  0.00    -0.265 A  
HETATM    5  N   UNL     1     -11.432  10.361  70.337  1.00  0.00    -0.315 NA 
HETATM    6  C   UNL     1     -11.174   9.093  70.748  1.00  0.00    -0.277 A  
HETATM    7  C   UNL     1     -10.626   8.147  69.890  1.00  0.00    -0.239 A  
HETATM    8  C   UNL     1     -10.351   8.513  68.570  1.00  0.00    -0.230 A  
BRANCH   6   9
HETATM    9  C   UNL     1     -11.475   8.762  72.198  1.00  0.00    -0.421 C  
BRANCH   9  10
HETATM   10  C   UNL     1     -11.764   7.268  72.327  1.00  0.00    -0.265 C  
BRANCH  10  11
HETATM   11  O   UNL     1     -10.896   6.581  73.237  1.00  0.00    -0.266 OA 
BRANCH  11  12
HETATM   12  C   UNL     1      -9.968   5.781  72.593  1.00  0.00    -0.176 A  
HETATM   13  C   UNL     1     -10.286   4.673  71.802  1.00  0.00    -0.242 A  
HETATM   14  C   UNL     1      -9.297   3.959  71.131  1.00  0.00    -0.216 A  
HETATM   15  C   UNL     1      -7.960   4.349  71.220  1.00  0.00    -0.082 A  
HETATM   16  C   UNL     1      -7.624   5.422  72.059  1.00  0.00    -0.099 A  
HETATM   17  C   UNL     1      -8.627   6.136  72.738  1.00  0.00    -0.123 A  
BRANCH  15  18
HETATM   18  C   UNL     1      -6.927   3.662  70.356  1.00  0.00    -0.034 C  
BRANCH  18  19
HETATM   19  C   UNL     1      -6.994   4.124  68.895  1.00  0.00    -0.047 C  
HETATM   20  S   UNL     1      -8.601   3.796  68.082  1.00  0.00    -0.102 SA 
HETATM   21  C   UNL     1      -8.724   5.418  67.468  1.00  0.00    -0.107 C  
HETATM   22  N   UNL     1      -7.799   6.210  68.057  1.00  0.00    -0.105 N  
HETATM   23  O   UNL     1      -9.512   5.766  66.607  1.00  0.00    -0.139 OA 
HETATM   24  C   UNL     1      -6.798   5.619  68.768  1.00  0.00    -0.059 C  
HETATM   25  H   UNL     1      -7.850   7.225  67.972  1.00  0.00     0.000 HD 
HETATM   26  O   UNL     1      -5.825   6.233  69.185  1.00  0.00    -0.018 OA 
ENDBRANCH  18  19
ENDBRANCH  15  18
ENDBRANCH  11  12
ENDBRANCH  10  11
ENDBRANCH   9  10
ENDBRANCH   6   9
ENDBRANCH   2   3
TORSDOF 7
ENDMDL
MODEL      278
REMARK 921   NORMALIZED FREE ENERGY PREDICTED BY IDOCK:   -3.26 KCAL/MOL
REMARK 922        TOTAL FREE ENERGY PREDICTED BY IDOCK:   -5.73 KCAL/MOL
REMARK 923 INTER-LIGAND FREE ENERGY PREDICTED BY IDOCK:   -5.13 KCAL/MOL
REMARK 924 INTRA-LIGAND FREE ENERGY PREDICTED BY IDOCK:   -0.60 KCAL/MOL
REMARK 927      BINDING AFFINITY PREDICTED BY RF-SCORE:    0.00 PKD
ROOT
HETATM    1  C   UNL     1     -10.612   4.934  66.171  1.00  0.00    -0.322 C  
HETATM    2  C   UNL     1     -11.233   6.202  66.739  1.00  0.00    -0.080 C  
ENDROOT
BRANCH   2   3
HETATM    3  C   UNL     1     -10.192   7.129  67.297  1.00  0.00    -0.315 A  
HETATM    4  C   UNL     1      -9.187   6.654  68.124  1.00  0.00    -0.117 A  
HETATM    5  N   UNL     1      -8.242   7.435  68.687  1.00  0.00    -0.124 NA 
HETATM    6  C   UNL     1      -8.265   8.768  68.424  1.00  0.00    -0.118 A  
HETATM    7  C   UNL     1      -9.241   9.334  67.614  1.00  0.00    -0.139 A  
HETATM    8  C   UNL     1     -10.211   8.503  67.047  1.00  0.00    -0.371 A  
BRANCH   6   9
HETATM    9  C   UNL     1      -7.197   9.619  69.086  1.00  0.00    -0.068 C  
BRANCH   9  10
HETATM   10  C   UNL     1      -7.634  11.083  69.068  1.00  0.00    -0.134 C  
BRANCH  10  11
HETATM   11  O   UNL     1      -6.740  11.969  69.754  1.00  0.00    -0.057 OA 
BRANCH  11  12
HETATM   12  C   UNL     1      -6.707  13.235  69.198  1.00  0.00    -0.092 A  
HETATM   13  C   UNL     1      -6.004  14.320  69.731  1.00  0.00    -0.120 A  
HETATM   14  C   UNL     1      -5.964  15.547  69.073  1.00  0.00    -0.104 A  
HETATM   15  C   UNL     1      -6.615  15.714  67.849  1.00  0.00    -0.171 A  
HETATM   16  C   UNL     1      -7.372  14.650  67.337  1.00  0.00    -0.195 A  
HETATM   17  C   UNL     1      -7.412  13.416  68.009  1.00  0.00    -0.139 A  
BRANCH  15  18
HETATM   18  C   UNL     1      -6.423  16.999  67.077  1.00  0.00    -0.233 C  
BRANCH  18  19
HETATM   19  C   UNL     1      -7.755  17.606  66.621  1.00  0.00    -0.249 C  
HETATM   20  S   UNL     1      -8.894  18.018  67.993  1.00  0.00    -0.281 SA 
HETATM   21  C   UNL     1      -9.198  19.617  67.381  1.00  0.00    -0.325 C  
HETATM   22  N   UNL     1      -8.310  19.918  66.407  1.00  0.00    -0.353 N  
HETATM   23  O   UNL     1     -10.105  20.334  67.762  1.00  0.00    -0.404 OA 
HETATM   24  C   UNL     1      -7.556  18.912  65.883  1.00  0.00    -0.178 C  
HETATM   25  H   UNL     1      -8.207  20.876  66.072  1.00  0.00     0.000 HD 
HETATM   26  O   UNL     1      -6.859  19.050  64.887  1.00  0.00    -0.446 OA 
ENDBRANCH  18  19
ENDBRANCH  15  18
ENDBRANCH  11  12
ENDBRANCH  10  11
ENDBRANCH   9  10
ENDBRANCH   6   9
ENDBRANCH   2   3
TORSDOF 7
ENDMDL
MODEL      279
REMARK 921   NORMALIZED FREE ENERGY PREDICTED BY IDOCK:   -3.26 KCAL/MOL
REMARK 922        TOTAL FREE ENERGY PREDICTED BY IDOCK:   -5.73 KCAL/MOL
REMARK 923 INTER-LIGAND FREE ENERGY PREDICTED BY IDOCK:   -5.07 KCAL/MOL
REMARK 924 INTRA-LIGAND FREE ENERGY PREDICTED BY IDOCK:   -0.67 KCAL/MOL
REMARK 927      BINDING AFFINITY PREDICTED BY RF-SCORE:    0.00 PKD
ROOT
HETATM    1  C   UNL     1      -6.293  19.060  68.199  1.00  0.00    -0.234 C  
HETATM    2  C   UNL     1      -7.786  19.236  68.436  1.00  0.00    -0.362 C  
ENDROOT
BRANCH   2   3
HETATM    3  C   UNL     1      -8.573  18.068  67.916  1.00  0.00    -0.258 A  
HETATM    4  C   UNL     1      -9.433  18.214  66.840  1.00  0.00    -0.286 A  
HETATM    5  N   UNL     1     -10.195  17.217  66.344  1.00  0.00    -0.326 NA 
HETATM    6  C   UNL     1     -10.112  15.991  66.923  1.00  0.00    -0.265 A  
HETATM    7  C   UNL     1      -9.284  15.755  68.013  1.00  0.00    -0.188 A  
HETATM    8  C   UNL     1      -8.509  16.807  68.510  1.00  0.00    -0.244 A  
BRANCH   6   9
HETATM    9  C   UNL     1     -10.994  14.897  66.350  1.00  0.00    -0.336 C  
BRANCH   9  10
HETATM   10  C   UNL     1     -11.156  13.785  67.384  1.00  0.00    -0.296 C  
BRANCH  10  11
HETATM   11  O   UNL     1     -11.820  12.616  66.887  1.00  0.00    -0.381 OA 
BRANCH  11  12
HETATM   12  C   UNL     1     -11.146  11.445  67.191  1.00  0.00    -0.305 A  
HETATM   13  C   UNL     1     -11.112  10.313  66.372  1.00  0.00     0.223 A  
HETATM   14  C   UNL     1     -10.354   9.197  66.717  1.00  0.00    -0.308 A  
HETATM   15  C   UNL     1      -9.592   9.194  67.887  1.00  0.00    -0.168 A  
HETATM   16  C   UNL     1      -9.668  10.301  68.744  1.00  0.00    -0.178 A  
HETATM   17  C   UNL     1     -10.439  11.423  68.392  1.00  0.00    -0.221 A  
BRANCH  15  18
HETATM   18  C   UNL     1      -8.653   8.041  68.157  1.00  0.00    -0.126 C  
BRANCH  18  19
HETATM   19  C   UNL     1      -9.149   6.731  67.534  1.00  0.00    -0.117 C  
HETATM   20  S   UNL     1      -7.928   5.916  66.440  1.00  0.00    -0.103 SA 
HETATM   21  C   UNL     1      -8.139   4.369  67.206  1.00  0.00    -0.101 C  
HETATM   22  N   UNL     1      -8.837   4.511  68.356  1.00  0.00    -0.100 N  
HETATM   23  O   UNL     1      -7.741   3.317  66.742  1.00  0.00    -0.075 OA 
HETATM   24  C   UNL     1      -9.473   5.693  68.587  1.00  0.00    -0.126 C  
HETATM   25  H   UNL     1      -8.885   3.751  69.035  1.00  0.00     0.000 HD 
HETATM   26  O   UNL     1     -10.266   5.855  69.505  1.00  0.00    -0.186 OA 
ENDBRANCH  18  19
ENDBRANCH  15  18
ENDBRANCH  11  12
ENDBRANCH  10  11
ENDBRANCH   9  10
ENDBRANCH   6   9
ENDBRANCH   2   3
TORSDOF 7
ENDMDL
MODEL      280
REMARK 921   NORMALIZED FREE ENERGY PREDICTED BY IDOCK:   -3.24 KCAL/MOL
REMARK 922        TOTAL FREE ENERGY PREDICTED BY IDOCK:   -5.71 KCAL/MOL
REMARK 923 INTER-LIGAND FREE ENERGY PREDICTED BY IDOCK:   -5.32 KCAL/MOL
REMARK 924 INTRA-LIGAND FREE ENERGY PREDICTED BY IDOCK:   -0.39 KCAL/MOL
REMARK 927      BINDING AFFINITY PREDICTED BY RF-SCORE:    0.00 PKD
ROOT
HETATM    1  C   UNL     1     -14.266   8.445  72.314  1.00  0.00    -0.436 C  
HETATM    2  C   UNL     1     -13.066   9.035  71.587  1.00  0.00    -0.420 C  
ENDROOT
BRANCH   2   3
HETATM    3  C   UNL     1     -11.873   8.126  71.655  1.00  0.00    -0.334 A  
HETATM    4  C   UNL     1     -10.856   8.354  72.568  1.00  0.00    -0.305 A  
HETATM    5  N   UNL     1      -9.742   7.599  72.660  1.00  0.00    -0.178 NA 
HETATM    6  C   UNL     1      -9.605   6.544  71.815  1.00  0.00    -0.152 A  
HETATM    7  C   UNL     1     -10.569   6.245  70.861  1.00  0.00    -0.293 A  
HETATM    8  C   UNL     1     -11.712   7.047  70.784  1.00  0.00    -0.394 A  
BRANCH   6   9
HETATM    9  C   UNL     1      -8.333   5.726  71.935  1.00  0.00    -0.119 C  
BRANCH   9  10
HETATM   10  C   UNL     1      -7.309   6.230  70.919  1.00  0.00    -0.080 C  
BRANCH  10  11
HETATM   11  O   UNL     1      -7.030   7.632  71.017  1.00  0.00    -0.049 OA 
BRANCH  11  12
HETATM   12  C   UNL     1      -7.510   8.352  69.936  1.00  0.00    -0.064 A  
HETATM   13  C   UNL     1      -8.551   9.282  70.000  1.00  0.00    -0.193 A  
HETATM   14  C   UNL     1      -8.931  10.017  68.880  1.00  0.00    -0.152 A  
HETATM   15  C   UNL     1      -8.261   9.852  67.666  1.00  0.00    -0.114 A  
HETATM   16  C   UNL     1      -7.256   8.879  67.577  1.00  0.00    -0.080 A  
HETATM   17  C   UNL     1      -6.881   8.137  68.711  1.00  0.00    -0.066 A  
BRANCH  15  18
HETATM   18  C   UNL     1      -8.581  10.774  66.511  1.00  0.00    -0.150 C  
BRANCH  18  19
HETATM   19  C   UNL     1      -9.647  11.814  66.878  1.00  0.00    -0.193 C  
HETATM   20  S   UNL     1      -9.065  13.098  68.045  1.00  0.00    -0.211 SA 
HETATM   21  C   UNL     1      -9.688  14.395  67.067  1.00  0.00    -0.254 C  
HETATM   22  N   UNL     1     -10.039  13.931  65.847  1.00  0.00    -0.309 N  
HETATM   23  O   UNL     1      -9.816  15.543  67.455  1.00  0.00    -0.222 OA 
HETATM   24  C   UNL     1     -10.123  12.584  65.665  1.00  0.00    -0.269 C  
HETATM   25  H   UNL     1     -10.235  14.575  65.080  1.00  0.00     0.000 HD 
HETATM   26  O   UNL     1     -10.598  12.075  64.658  1.00  0.00    -0.279 OA 
ENDBRANCH  18  19
ENDBRANCH  15  18
ENDBRANCH  11  12
ENDBRANCH  10  11
ENDBRANCH   9  10
ENDBRANCH   6   9
ENDBRANCH   2   3
TORSDOF 7
ENDMDL
MODEL      281
REMARK 921   NORMALIZED FREE ENERGY PREDICTED BY IDOCK:   -3.19 KCAL/MOL
REMARK 922        TOTAL FREE ENERGY PREDICTED BY IDOCK:   -5.64 KCAL/MOL
REMARK 923 INTER-LIGAND FREE ENERGY PREDICTED BY IDOCK:   -4.14 KCAL/MOL
REMARK 924 INTRA-LIGAND FREE ENERGY PREDICTED BY IDOCK:   -1.50 KCAL/MOL
REMARK 927      BINDING AFFINITY PREDICTED BY RF-SCORE:    0.00 PKD
ROOT
HETATM    1  C   UNL     1     -10.256   5.594  66.592  1.00  0.00    -0.276 C  
HETATM    2  C   UNL     1     -10.845   6.608  67.561  1.00  0.00    -0.417 C  
ENDROOT
BRANCH   2   3
HETATM    3  C   UNL     1     -10.525   8.017  67.155  1.00  0.00    -0.408 A  
HETATM    4  C   UNL     1      -9.730   8.275  66.049  1.00  0.00    -0.030 A  
HETATM    5  N   UNL     1      -9.376   9.513  65.649  1.00  0.00    -0.222 NA 
HETATM    6  C   UNL     1      -9.828  10.578  66.361  1.00  0.00    -0.210 A  
HETATM    7  C   UNL     1     -10.622  10.414  67.489  1.00  0.00    -0.312 A  
HETATM    8  C   UNL     1     -10.972   9.120  67.886  1.00  0.00    -0.035 A  
BRANCH   6   9
HETATM    9  C   UNL     1      -9.397  11.955  65.892  1.00  0.00    -0.193 C  
BRANCH   9  10
HETATM   10  C   UNL     1      -8.458  12.571  66.927  1.00  0.00    -0.130 C  
BRANCH  10  11
HETATM   11  O   UNL     1      -7.160  11.965  66.974  1.00  0.00    -0.142 OA 
BRANCH  11  12
HETATM   12  C   UNL     1      -7.058  10.988  67.950  1.00  0.00    -0.081 A  
HETATM   13  C   UNL     1      -7.501  11.132  69.267  1.00  0.00    -0.076 A  
HETATM   14  C   UNL     1      -7.425  10.076  70.172  1.00  0.00    -0.176 A  
HETATM   15  C   UNL     1      -6.919   8.838  69.773  1.00  0.00    -0.050 A  
HETATM   16  C   UNL     1      -6.418   8.703  68.470  1.00  0.00    -0.055 A  
HETATM   17  C   UNL     1      -6.492   9.774  67.563  1.00  0.00    -0.068 A  
BRANCH  15  18
HETATM   18  C   UNL     1      -6.997   7.664  70.721  1.00  0.00    -0.047 C  
BRANCH  18  19
HETATM   19  C   UNL     1      -8.445   7.242  71.003  1.00  0.00    -0.127 C  
HETATM   20  S   UNL     1      -8.760   5.455  70.768  1.00  0.00    -0.134 SA 
HETATM   21  C   UNL     1      -9.559   5.301  72.305  1.00  0.00    -0.152 C  
HETATM   22  N   UNL     1      -9.353   6.411  73.049  1.00  0.00    -0.136 N  
HETATM   23  O   UNL     1     -10.232   4.341  72.632  1.00  0.00    -0.161 OA 
HETATM   24  C   UNL     1      -8.842   7.516  72.437  1.00  0.00    -0.127 C  
HETATM   25  H   UNL     1      -9.574   6.421  74.045  1.00  0.00     0.000 HD 
HETATM   26  O   UNL     1      -8.785   8.612  72.980  1.00  0.00    -0.380 OA 
ENDBRANCH  18  19
ENDBRANCH  15  18
ENDBRANCH  11  12
ENDBRANCH  10  11
ENDBRANCH   9  10
ENDBRANCH   6   9
ENDBRANCH   2   3
TORSDOF 7
ENDMDL
MODEL      282
REMARK 921   NORMALIZED FREE ENERGY PREDICTED BY IDOCK:   -3.18 KCAL/MOL
REMARK 922        TOTAL FREE ENERGY PREDICTED BY IDOCK:   -5.62 KCAL/MOL
REMARK 923 INTER-LIGAND FREE ENERGY PREDICTED BY IDOCK:   -5.02 KCAL/MOL
REMARK 924 INTRA-LIGAND FREE ENERGY PREDICTED BY IDOCK:   -0.60 KCAL/MOL
REMARK 927      BINDING AFFINITY PREDICTED BY RF-SCORE:    0.00 PKD
ROOT
HETATM    1  C   UNL     1     -10.819  19.772  66.053  1.00  0.00    -0.390 C  
HETATM    2  C   UNL     1      -9.730  20.305  66.972  1.00  0.00    -0.598 C  
ENDROOT
BRANCH   2   3
HETATM    3  C   UNL     1      -8.815  19.213  67.443  1.00  0.00    -0.324 A  
HETATM    4  C   UNL     1      -8.760  17.996  66.781  1.00  0.00    -0.255 A  
HETATM    5  N   UNL     1      -7.987  16.961  67.169  1.00  0.00    -0.172 NA 
HETATM    6  C   UNL     1      -7.205  17.116  68.269  1.00  0.00    -0.204 A  
HETATM    7  C   UNL     1      -7.202  18.296  69.001  1.00  0.00    -0.237 A  
HETATM    8  C   UNL     1      -8.016  19.352  68.580  1.00  0.00    -0.395 A  
BRANCH   6   9
HETATM    9  C   UNL     1      -6.361  15.926  68.687  1.00  0.00    -0.112 C  
BRANCH   9  10
HETATM   10  C   UNL     1      -6.352  14.891  67.564  1.00  0.00    -0.043 C  
BRANCH  10  11
HETATM   11  O   UNL     1      -5.484  13.776  67.802  1.00  0.00    -0.218 OA 
BRANCH  11  12
HETATM   12  C   UNL     1      -6.160  12.658  68.261  1.00  0.00    -0.068 A  
HETATM   13  C   UNL     1      -6.985  11.850  67.474  1.00  0.00    -0.123 A  
HETATM   14  C   UNL     1      -7.576  10.701  67.994  1.00  0.00    -0.091 A  
HETATM   15  C   UNL     1      -7.339  10.321  69.316  1.00  0.00    -0.099 A  
HETATM   16  C   UNL     1      -6.562  11.157  70.130  1.00  0.00    -0.048 A  
HETATM   17  C   UNL     1      -5.972  12.318  69.600  1.00  0.00    -0.121 A  
BRANCH  15  18
HETATM   18  C   UNL     1      -7.857   8.989  69.809  1.00  0.00    -0.086 C  
BRANCH  18  19
HETATM   19  C   UNL     1      -9.226   8.642  69.213  1.00  0.00    -0.150 C  
HETATM   20  S   UNL     1      -9.626   6.857  69.249  1.00  0.00    -0.149 SA 
HETATM   21  C   UNL     1     -11.201   7.131  69.933  1.00  0.00    -0.208 C  
HETATM   22  N   UNL     1     -11.305   8.408  70.364  1.00  0.00    -0.389 N  
HETATM   23  O   UNL     1     -12.082   6.292  69.978  1.00  0.00    -0.118 OA 
HETATM   24  C   UNL     1     -10.355   9.304  69.973  1.00  0.00    -0.217 C  
HETATM   25  H   UNL     1     -12.076   8.695  70.967  1.00  0.00     0.000 HD 
HETATM   26  O   UNL     1     -10.457  10.508  70.163  1.00  0.00    -0.207 OA 
ENDBRANCH  18  19
ENDBRANCH  15  18
ENDBRANCH  11  12
ENDBRANCH  10  11
ENDBRANCH   9  10
ENDBRANCH   6   9
ENDBRANCH   2   3
TORSDOF 7
ENDMDL
MODEL      283
REMARK 921   NORMALIZED FREE ENERGY PREDICTED BY IDOCK:   -3.17 KCAL/MOL
REMARK 922        TOTAL FREE ENERGY PREDICTED BY IDOCK:   -5.61 KCAL/MOL
REMARK 923 INTER-LIGAND FREE ENERGY PREDICTED BY IDOCK:   -5.17 KCAL/MOL
REMARK 924 INTRA-LIGAND FREE ENERGY PREDICTED BY IDOCK:   -0.44 KCAL/MOL
REMARK 927      BINDING AFFINITY PREDICTED BY RF-SCORE:    0.00 PKD
ROOT
HETATM    1  C   UNL     1      -8.335   1.979  67.490  1.00  0.00    -0.081 C  
HETATM    2  C   UNL     1      -9.389   2.180  68.569  1.00  0.00    -0.244 C  
ENDROOT
BRANCH   2   3
HETATM    3  C   UNL     1      -9.017   3.290  69.510  1.00  0.00    -0.176 A  
HETATM    4  C   UNL     1      -9.512   3.320  70.804  1.00  0.00    -0.166 A  
HETATM    5  N   UNL     1      -9.246   4.302  71.690  1.00  0.00    -0.126 NA 
HETATM    6  C   UNL     1      -8.439   5.322  71.300  1.00  0.00    -0.124 A  
HETATM    7  C   UNL     1      -7.905   5.380  70.019  1.00  0.00    -0.081 A  
HETATM    8  C   UNL     1      -8.199   4.352  69.119  1.00  0.00    -0.076 A  
BRANCH   6   9
HETATM    9  C   UNL     1      -8.174   6.418  72.316  1.00  0.00    -0.107 C  
BRANCH   9  10
HETATM   10  C   UNL     1      -9.487   7.117  72.661  1.00  0.00    -0.147 C  
BRANCH  10  11
HETATM   11  O   UNL     1      -9.412   8.548  72.640  1.00  0.00    -0.278 OA 
BRANCH  11  12
HETATM   12  C   UNL     1      -9.717   9.084  71.400  1.00  0.00    -0.299 A  
HETATM   13  C   UNL     1      -8.771   9.502  70.460  1.00  0.00    -0.247 A  
HETATM   14  C   UNL     1      -9.158   9.967  69.206  1.00  0.00    -0.208 A  
HETATM   15  C   UNL     1     -10.508  10.008  68.853  1.00  0.00    -0.229 A  
HETATM   16  C   UNL     1     -11.467   9.648  69.811  1.00  0.00    -0.095 A  
HETATM   17  C   UNL     1     -11.070   9.184  71.077  1.00  0.00    -0.374 A  
BRANCH  15  18
HETATM   18  C   UNL     1     -10.894  10.361  67.435  1.00  0.00    -0.344 C  
BRANCH  18  19
HETATM   19  C   UNL     1     -10.841  11.872  67.178  1.00  0.00    -0.255 C  
HETATM   20  S   UNL     1     -10.916  12.330  65.407  1.00  0.00    -0.311 SA 
HETATM   21  C   UNL     1     -12.161  13.514  65.674  1.00  0.00    -0.458 C  
HETATM   22  N   UNL     1     -12.677  13.375  66.916  1.00  0.00     0.037 N  
HETATM   23  O   UNL     1     -12.485  14.361  64.861  1.00  0.00    -0.487 OA 
HETATM   24  C   UNL     1     -12.011  12.592  67.811  1.00  0.00    -0.223 C  
HETATM   25  H   UNL     1     -13.544  13.845  67.178  1.00  0.00     0.000 HD 
HETATM   26  O   UNL     1     -12.299  12.545  68.999  1.00  0.00    -0.071 OA 
ENDBRANCH  18  19
ENDBRANCH  15  18
ENDBRANCH  11  12
ENDBRANCH  10  11
ENDBRANCH   9  10
ENDBRANCH   6   9
ENDBRANCH   2   3
TORSDOF 7
ENDMDL
MODEL      284
REMARK 921   NORMALIZED FREE ENERGY PREDICTED BY IDOCK:   -3.14 KCAL/MOL
REMARK 922        TOTAL FREE ENERGY PREDICTED BY IDOCK:   -5.57 KCAL/MOL
REMARK 923 INTER-LIGAND FREE ENERGY PREDICTED BY IDOCK:   -4.97 KCAL/MOL
REMARK 924 INTRA-LIGAND FREE ENERGY PREDICTED BY IDOCK:   -0.60 KCAL/MOL
REMARK 927      BINDING AFFINITY PREDICTED BY RF-SCORE:    0.00 PKD
ROOT
HETATM    1  C   UNL     1      -9.295   3.627  66.737  1.00  0.00    -0.210 C  
HETATM    2  C   UNL     1     -10.000   4.422  67.826  1.00  0.00    -0.098 C  
ENDROOT
BRANCH   2   3
HETATM    3  C   UNL     1      -9.185   5.602  68.269  1.00  0.00    -0.116 A  
HETATM    4  C   UNL     1      -7.812   5.498  68.430  1.00  0.00    -0.088 A  
HETATM    5  N   UNL     1      -7.025   6.507  68.857  1.00  0.00    -0.076 NA 
HETATM    6  C   UNL     1      -7.604   7.703  69.140  1.00  0.00    -0.100 A  
HETATM    7  C   UNL     1      -8.974   7.896  69.018  1.00  0.00    -0.145 A  
HETATM    8  C   UNL     1      -9.768   6.833  68.578  1.00  0.00    -0.133 A  
BRANCH   6   9
HETATM    9  C   UNL     1      -6.692   8.810  69.634  1.00  0.00    -0.039 C  
BRANCH   9  10
HETATM   10  C   UNL     1      -7.518  10.068  69.896  1.00  0.00    -0.167 C  
BRANCH  10  11
HETATM   11  O   UNL     1      -6.999  11.250  69.272  1.00  0.00    -0.104 OA 
BRANCH  11  12
HETATM   12  C   UNL     1      -7.957  11.941  68.550  1.00  0.00    -0.137 A  
HETATM   13  C   UNL     1      -7.682  12.972  67.648  1.00  0.00    -0.161 A  
HETATM   14  C   UNL     1      -8.698  13.573  66.909  1.00  0.00    -0.158 A  
HETATM   15  C   UNL     1     -10.018  13.141  67.040  1.00  0.00    -0.244 A  
HETATM   16  C   UNL     1     -10.312  12.148  67.986  1.00  0.00    -0.213 A  
HETATM   17  C   UNL     1      -9.283  11.549  68.733  1.00  0.00    -0.076 A  
BRANCH  15  18
HETATM   18  C   UNL     1     -11.076  13.693  66.111  1.00  0.00    -0.299 C  
BRANCH  18  19
HETATM   19  C   UNL     1     -11.482  15.124  66.481  1.00  0.00    -0.171 C  
HETATM   20  S   UNL     1     -11.252  15.530  68.251  1.00  0.00    -0.354 SA 
HETATM   21  C   UNL     1     -10.419  17.015  67.895  1.00  0.00    -0.354 C  
HETATM   22  N   UNL     1     -10.087  17.059  66.586  1.00  0.00    -0.296 N  
HETATM   23  O   UNL     1     -10.205  17.891  68.713  1.00  0.00    -0.367 OA 
HETATM   24  C   UNL     1     -10.656  16.154  65.741  1.00  0.00    -0.334 C  
HETATM   25  H   UNL     1      -9.426  17.754  66.237  1.00  0.00     0.000 HD 
HETATM   26  O   UNL     1     -10.556  16.224  64.524  1.00  0.00    -0.532 OA 
ENDBRANCH  18  19
ENDBRANCH  15  18
ENDBRANCH  11  12
ENDBRANCH  10  11
ENDBRANCH   9  10
ENDBRANCH   6   9
ENDBRANCH   2   3
TORSDOF 7
ENDMDL
MODEL      285
REMARK 921   NORMALIZED FREE ENERGY PREDICTED BY IDOCK:   -3.12 KCAL/MOL
REMARK 922        TOTAL FREE ENERGY PREDICTED BY IDOCK:   -5.54 KCAL/MOL
REMARK 923 INTER-LIGAND FREE ENERGY PREDICTED BY IDOCK:   -5.77 KCAL/MOL
REMARK 924 INTRA-LIGAND FREE ENERGY PREDICTED BY IDOCK:    0.23 KCAL/MOL
REMARK 927      BINDING AFFINITY PREDICTED BY RF-SCORE:    0.00 PKD
ROOT
HETATM    1  C   UNL     1      -5.176   9.972  67.799  1.00  0.00    -0.035 C  
HETATM    2  C   UNL     1      -5.638   8.540  68.025  1.00  0.00    -0.035 C  
ENDROOT
BRANCH   2   3
HETATM    3  C   UNL     1      -6.622   8.445  69.155  1.00  0.00    -0.047 A  
HETATM    4  C   UNL     1      -7.090   9.586  69.788  1.00  0.00    -0.075 A  
HETATM    5  N   UNL     1      -7.947   9.571  70.830  1.00  0.00    -0.298 NA 
HETATM    6  C   UNL     1      -8.390   8.371  71.286  1.00  0.00    -0.143 A  
HETATM    7  C   UNL     1      -7.967   7.176  70.719  1.00  0.00    -0.100 A  
HETATM    8  C   UNL     1      -7.075   7.218  69.643  1.00  0.00    -0.073 A  
BRANCH   6   9
HETATM    9  C   UNL     1      -9.340   8.391  72.469  1.00  0.00    -0.346 C  
BRANCH   9  10
HETATM   10  C   UNL     1     -10.357   7.262  72.320  1.00  0.00    -0.210 C  
BRANCH  10  11
HETATM   11  O   UNL     1     -11.561   7.645  71.642  1.00  0.00    -0.254 OA 
BRANCH  11  12
HETATM   12  C   UNL     1     -11.380   8.724  70.794  1.00  0.00    -0.272 A  
HETATM   13  C   UNL     1     -10.850   8.640  69.503  1.00  0.00    -0.138 A  
HETATM   14  C   UNL     1     -10.763   9.764  68.686  1.00  0.00    -0.247 A  
HETATM   15  C   UNL     1     -11.225  11.002  69.135  1.00  0.00    -0.318 A  
HETATM   16  C   UNL     1     -11.703  11.107  70.449  1.00  0.00    -0.415 A  
HETATM   17  C   UNL     1     -11.783   9.970  71.271  1.00  0.00    -0.452 A  
BRANCH  15  18
HETATM   18  C   UNL     1     -11.272  12.169  68.175  1.00  0.00    -0.320 C  
BRANCH  18  19
HETATM   19  C   UNL     1     -10.264  12.018  67.029  1.00  0.00    -0.203 C  
HETATM   20  S   UNL     1     -10.959  11.248  65.521  1.00  0.00    -0.063 SA 
HETATM   21  C   UNL     1     -10.313  12.484  64.483  1.00  0.00    -0.336 C  
HETATM   22  N   UNL     1      -9.869  13.527  65.221  1.00  0.00    -0.538 N  
HETATM   23  O   UNL     1     -10.245  12.392  63.271  1.00  0.00    -0.373 OA 
HETATM   24  C   UNL     1      -9.733  13.357  66.566  1.00  0.00    -0.282 C  
HETATM   25  H   UNL     1      -9.643  14.419  64.782  1.00  0.00     0.000 HD 
HETATM   26  O   UNL     1      -9.178  14.175  67.288  1.00  0.00    -0.201 OA 
ENDBRANCH  18  19
ENDBRANCH  15  18
ENDBRANCH  11  12
ENDBRANCH  10  11
ENDBRANCH   9  10
ENDBRANCH   6   9
ENDBRANCH   2   3
TORSDOF 7
ENDMDL
MODEL      286
REMARK 921   NORMALIZED FREE ENERGY PREDICTED BY IDOCK:   -3.08 KCAL/MOL
REMARK 922        TOTAL FREE ENERGY PREDICTED BY IDOCK:   -5.48 KCAL/MOL
REMARK 923 INTER-LIGAND FREE ENERGY PREDICTED BY IDOCK:   -5.12 KCAL/MOL
REMARK 924 INTRA-LIGAND FREE ENERGY PREDICTED BY IDOCK:   -0.36 KCAL/MOL
REMARK 927      BINDING AFFINITY PREDICTED BY RF-SCORE:    0.00 PKD
ROOT
HETATM    1  C   UNL     1     -12.188  12.973  66.546  1.00  0.00    -0.316 C  
HETATM    2  C   UNL     1     -10.835  13.292  65.928  1.00  0.00    -0.289 C  
ENDROOT
BRANCH   2   3
HETATM    3  C   UNL     1     -10.025  12.050  65.692  1.00  0.00    -0.270 A  
HETATM    4  C   UNL     1      -9.053  11.653  66.597  1.00  0.00    -0.194 A  
HETATM    5  N   UNL     1      -8.267  10.569  66.431  1.00  0.00    -0.135 NA 
HETATM    6  C   UNL     1      -8.438   9.811  65.317  1.00  0.00    -0.145 A  
HETATM    7  C   UNL     1      -9.381  10.139  64.351  1.00  0.00    -0.348 A  
HETATM    8  C   UNL     1     -10.180  11.269  64.545  1.00  0.00    -0.370 A  
BRANCH   6   9
HETATM    9  C   UNL     1      -7.527   8.609  65.154  1.00  0.00    -0.090 C  
BRANCH   9  10
HETATM   10  C   UNL     1      -8.319   7.332  65.425  1.00  0.00    -0.122 C  
BRANCH  10  11
HETATM   11  O   UNL     1      -9.472   7.524  66.256  1.00  0.00    -0.169 OA 
BRANCH  11  12
HETATM   12  C   UNL     1      -9.378   6.860  67.466  1.00  0.00    -0.122 A  
HETATM   13  C   UNL     1     -10.345   5.985  67.970  1.00  0.00    -0.250 A  
HETATM   14  C   UNL     1     -10.145   5.301  69.166  1.00  0.00    -0.289 A  
HETATM   15  C   UNL     1      -8.958   5.462  69.883  1.00  0.00    -0.147 A  
HETATM   16  C   UNL     1      -8.008   6.383  69.416  1.00  0.00    -0.110 A  
HETATM   17  C   UNL     1      -8.219   7.074  68.210  1.00  0.00    -0.124 A  
BRANCH  15  18
HETATM   18  C   UNL     1      -8.695   4.590  71.089  1.00  0.00    -0.141 C  
BRANCH  18  19
HETATM   19  C   UNL     1      -9.217   5.220  72.385  1.00  0.00    -0.140 C  
HETATM   20  S   UNL     1      -9.388   7.041  72.313  1.00  0.00    -0.135 SA 
HETATM   21  C   UNL     1     -11.003   7.005  72.956  1.00  0.00    -0.292 C  
HETATM   22  N   UNL     1     -11.478   5.739  72.951  1.00  0.00    -0.472 N  
HETATM   23  O   UNL     1     -11.594   7.983  73.377  1.00  0.00    -0.098 OA 
HETATM   24  C   UNL     1     -10.601   4.718  72.738  1.00  0.00    -0.211 C  
HETATM   25  H   UNL     1     -12.469   5.552  73.103  1.00  0.00     0.000 HD 
HETATM   26  O   UNL     1     -10.899   3.541  72.889  1.00  0.00    -0.139 OA 
ENDBRANCH  18  19
ENDBRANCH  15  18
ENDBRANCH  11  12
ENDBRANCH  10  11
ENDBRANCH   9  10
ENDBRANCH   6   9
ENDBRANCH   2   3
TORSDOF 7
ENDMDL
MODEL      287
REMARK 921   NORMALIZED FREE ENERGY PREDICTED BY IDOCK:   -3.07 KCAL/MOL
REMARK 922        TOTAL FREE ENERGY PREDICTED BY IDOCK:   -5.47 KCAL/MOL
REMARK 923 INTER-LIGAND FREE ENERGY PREDICTED BY IDOCK:   -4.59 KCAL/MOL
REMARK 924 INTRA-LIGAND FREE ENERGY PREDICTED BY IDOCK:   -0.88 KCAL/MOL
REMARK 927      BINDING AFFINITY PREDICTED BY RF-SCORE:    0.00 PKD
ROOT
HETATM    1  C   UNL     1     -10.872   8.562  66.872  1.00  0.00     0.030 C  
HETATM    2  C   UNL     1      -9.609   8.362  66.046  1.00  0.00    -0.196 C  
ENDROOT
BRANCH   2   3
HETATM    3  C   UNL     1      -8.589   9.428  66.322  1.00  0.00    -0.142 A  
HETATM    4  C   UNL     1      -7.455   9.547  65.535  1.00  0.00    -0.102 A  
HETATM    5  N   UNL     1      -6.483  10.458  65.747  1.00  0.00    -0.115 NA 
HETATM    6  C   UNL     1      -6.621  11.320  66.787  1.00  0.00    -0.140 A  
HETATM    7  C   UNL     1      -7.720  11.268  67.635  1.00  0.00    -0.115 A  
HETATM    8  C   UNL     1      -8.711  10.312  67.396  1.00  0.00    -0.128 A  
BRANCH   6   9
HETATM    9  C   UNL     1      -5.502  12.321  67.007  1.00  0.00    -0.020 C  
BRANCH   9  10
HETATM   10  C   UNL     1      -5.403  12.652  68.495  1.00  0.00    -0.058 C  
BRANCH  10  11
HETATM   11  O   UNL     1      -5.227  14.047  68.775  1.00  0.00    -0.078 OA 
BRANCH  11  12
HETATM   12  C   UNL     1      -6.409  14.763  68.700  1.00  0.00    -0.085 A  
HETATM   13  C   UNL     1      -7.528  14.536  69.506  1.00  0.00    -0.027 A  
HETATM   14  C   UNL     1      -8.657  15.346  69.417  1.00  0.00    -0.249 A  
HETATM   15  C   UNL     1      -8.687  16.421  68.526  1.00  0.00    -0.223 A  
HETATM   16  C   UNL     1      -7.593  16.619  67.672  1.00  0.00    -0.170 A  
HETATM   17  C   UNL     1      -6.459  15.795  67.764  1.00  0.00    -0.176 A  
BRANCH  15  18
HETATM   18  C   UNL     1      -9.854  17.381  68.562  1.00  0.00    -0.320 C  
BRANCH  18  19
HETATM   19  C   UNL     1     -11.132  16.763  67.984  1.00  0.00    -0.220 C  
HETATM   20  S   UNL     1     -10.896  15.941  66.365  1.00  0.00    -0.123 SA 
HETATM   21  C   UNL     1     -11.724  14.499  66.876  1.00  0.00    -0.382 C  
HETATM   22  N   UNL     1     -11.903  14.515  68.216  1.00  0.00    -0.440 N  
HETATM   23  O   UNL     1     -12.109  13.627  66.118  1.00  0.00    -0.389 OA 
HETATM   24  C   UNL     1     -11.693  15.684  68.884  1.00  0.00    -0.384 C  
HETATM   25  H   UNL     1     -12.188  13.672  68.715  1.00  0.00     0.000 HD 
HETATM   26  O   UNL     1     -11.996  15.843  70.059  1.00  0.00    -0.342 OA 
ENDBRANCH  18  19
ENDBRANCH  15  18
ENDBRANCH  11  12
ENDBRANCH  10  11
ENDBRANCH   9  10
ENDBRANCH   6   9
ENDBRANCH   2   3
TORSDOF 7
ENDMDL
MODEL      288
REMARK 921   NORMALIZED FREE ENERGY PREDICTED BY IDOCK:   -3.06 KCAL/MOL
REMARK 922        TOTAL FREE ENERGY PREDICTED BY IDOCK:   -5.46 KCAL/MOL
REMARK 923 INTER-LIGAND FREE ENERGY PREDICTED BY IDOCK:   -4.98 KCAL/MOL
REMARK 924 INTRA-LIGAND FREE ENERGY PREDICTED BY IDOCK:   -0.48 KCAL/MOL
REMARK 927      BINDING AFFINITY PREDICTED BY RF-SCORE:    0.00 PKD
ROOT
HETATM    1  C   UNL     1     -11.363  17.233  67.769  1.00  0.00     0.323 C  
HETATM    2  C   UNL     1     -10.221  16.243  67.946  1.00  0.00    -0.261 C  
ENDROOT
BRANCH   2   3
HETATM    3  C   UNL     1     -10.724  14.870  68.288  1.00  0.00    -0.249 A  
HETATM    4  C   UNL     1     -10.288  13.758  67.585  1.00  0.00    -0.239 A  
HETATM    5  N   UNL     1     -10.723  12.502  67.815  1.00  0.00    -0.214 NA 
HETATM    6  C   UNL     1     -11.637  12.306  68.800  1.00  0.00    -0.330 A  
HETATM    7  C   UNL     1     -12.138  13.363  69.550  1.00  0.00    -0.334 A  
HETATM    8  C   UNL     1     -11.674  14.655  69.288  1.00  0.00    -0.348 A  
BRANCH   6   9
HETATM    9  C   UNL     1     -12.117  10.884  69.023  1.00  0.00    -0.240 C  
BRANCH   9  10
HETATM   10  C   UNL     1     -12.254  10.624  70.522  1.00  0.00    -0.358 C  
BRANCH  10  11
HETATM   11  O   UNL     1     -11.047  10.172  71.149  1.00  0.00    -0.291 OA 
BRANCH  11  12
HETATM   12  C   UNL     1     -10.865   8.804  71.040  1.00  0.00    -0.260 A  
HETATM   13  C   UNL     1     -11.872   7.891  70.714  1.00  0.00    -0.190 A  
HETATM   14  C   UNL     1     -11.593   6.536  70.556  1.00  0.00    -0.455 A  
HETATM   15  C   UNL     1     -10.289   6.061  70.703  1.00  0.00    -0.280 A  
HETATM   16  C   UNL     1      -9.284   6.959  71.089  1.00  0.00    -0.154 A  
HETATM   17  C   UNL     1      -9.573   8.325  71.252  1.00  0.00    -0.219 A  
BRANCH  15  18
HETATM   18  C   UNL     1      -9.982   4.619  70.368  1.00  0.00    -0.300 C  
BRANCH  18  19
HETATM   19  C   UNL     1      -9.054   3.969  71.401  1.00  0.00    -0.117 C  
HETATM   20  S   UNL     1      -9.649   4.104  73.127  1.00  0.00    -0.122 SA 
HETATM   21  C   UNL     1      -9.401   2.411  73.440  1.00  0.00    -0.083 C  
HETATM   22  N   UNL     1      -9.173   1.752  72.282  1.00  0.00    -0.073 N  
HETATM   23  O   UNL     1      -9.402   1.914  74.551  1.00  0.00    -0.067 OA 
HETATM   24  C   UNL     1      -8.902   2.482  71.163  1.00  0.00    -0.072 C  
HETATM   25  H   UNL     1      -9.204   0.733  72.245  1.00  0.00     0.000 HD 
HETATM   26  O   UNL     1      -8.512   1.979  70.118  1.00  0.00    -0.044 OA 
ENDBRANCH  18  19
ENDBRANCH  15  18
ENDBRANCH  11  12
ENDBRANCH  10  11
ENDBRANCH   9  10
ENDBRANCH   6   9
ENDBRANCH   2   3
TORSDOF 7
ENDMDL
MODEL      289
REMARK 921   NORMALIZED FREE ENERGY PREDICTED BY IDOCK:   -3.04 KCAL/MOL
REMARK 922        TOTAL FREE ENERGY PREDICTED BY IDOCK:   -5.43 KCAL/MOL
REMARK 923 INTER-LIGAND FREE ENERGY PREDICTED BY IDOCK:   -4.35 KCAL/MOL
REMARK 924 INTRA-LIGAND FREE ENERGY PREDICTED BY IDOCK:   -1.08 KCAL/MOL
REMARK 927      BINDING AFFINITY PREDICTED BY RF-SCORE:    0.00 PKD
ROOT
HETATM    1  C   UNL     1      -7.104  10.521  66.228  1.00  0.00    -0.132 C  
HETATM    2  C   UNL     1      -5.937  11.016  67.069  1.00  0.00    -0.077 C  
ENDROOT
BRANCH   2   3
HETATM    3  C   UNL     1      -6.187  12.394  67.611  1.00  0.00    -0.132 A  
HETATM    4  C   UNL     1      -7.228  13.170  67.127  1.00  0.00     0.093 A  
HETATM    5  N   UNL     1      -7.488  14.426  67.544  1.00  0.00    -0.179 NA 
HETATM    6  C   UNL     1      -6.692  14.967  68.503  1.00  0.00    -0.092 A  
HETATM    7  C   UNL     1      -5.620  14.266  69.039  1.00  0.00    -0.088 A  
HETATM    8  C   UNL     1      -5.369  12.968  68.587  1.00  0.00    -0.066 A  
BRANCH   6   9
HETATM    9  C   UNL     1      -7.003  16.387  68.937  1.00  0.00    -0.186 C  
BRANCH   9  10
HETATM   10  C   UNL     1      -8.182  16.918  68.124  1.00  0.00    -0.207 C  
BRANCH  10  11
HETATM   11  O   UNL     1      -9.261  17.426  68.920  1.00  0.00    -0.252 OA 
BRANCH  11  12
HETATM   12  C   UNL     1     -10.255  16.488  69.139  1.00  0.00    -0.298 A  
HETATM   13  C   UNL     1     -10.913  15.777  68.131  1.00  0.00    -0.330 A  
HETATM   14  C   UNL     1     -11.855  14.799  68.436  1.00  0.00    -0.319 A  
HETATM   15  C   UNL     1     -12.150  14.491  69.765  1.00  0.00    -0.380 A  
HETATM   16  C   UNL     1     -11.539  15.239  70.782  1.00  0.00    -0.371 A  
HETATM   17  C   UNL     1     -10.592  16.230  70.467  1.00  0.00     0.135 A  
BRANCH  15  18
HETATM   18  C   UNL     1     -13.051  13.317  70.073  1.00  0.00     0.724 C  
BRANCH  18  19
HETATM   19  C   UNL     1     -12.287  12.154  70.717  1.00  0.00    -0.297 C  
HETATM   20  S   UNL     1     -13.275  11.184  71.914  1.00  0.00    -0.229 SA 
HETATM   21  C   UNL     1     -12.819   9.666  71.198  1.00  0.00    -0.316 C  
HETATM   22  N   UNL     1     -12.221   9.876  70.004  1.00  0.00    -0.479 N  
HETATM   23  O   UNL     1     -12.989   8.582  71.726  1.00  0.00    -0.326 OA 
HETATM   24  C   UNL     1     -11.830  11.142  69.688  1.00  0.00    -0.348 C  
HETATM   25  H   UNL     1     -12.067   9.105  69.354  1.00  0.00     0.000 HD 
HETATM   26  O   UNL     1     -11.130  11.401  68.718  1.00  0.00    -0.199 OA 
ENDBRANCH  18  19
ENDBRANCH  15  18
ENDBRANCH  11  12
ENDBRANCH  10  11
ENDBRANCH   9  10
ENDBRANCH   6   9
ENDBRANCH   2   3
TORSDOF 7
ENDMDL
MODEL      290
REMARK 921   NORMALIZED FREE ENERGY PREDICTED BY IDOCK:   -2.99 KCAL/MOL
REMARK 922        TOTAL FREE ENERGY PREDICTED BY IDOCK:   -5.36 KCAL/MOL
REMARK 923 INTER-LIGAND FREE ENERGY PREDICTED BY IDOCK:   -4.86 KCAL/MOL
REMARK 924 INTRA-LIGAND FREE ENERGY PREDICTED BY IDOCK:   -0.50 KCAL/MOL
REMARK 927      BINDING AFFINITY PREDICTED BY RF-SCORE:    0.00 PKD
ROOT
HETATM    1  C   UNL     1     -10.124  19.362  69.282  1.00  0.00    -0.243 C  
HETATM    2  C   UNL     1      -9.062  18.938  68.278  1.00  0.00    -0.363 C  
ENDROOT
BRANCH   2   3
HETATM    3  C   UNL     1      -8.444  17.620  68.645  1.00  0.00    -0.266 A  
HETATM    4  C   UNL     1      -7.069  17.487  68.761  1.00  0.00    -0.248 A  
HETATM    5  N   UNL     1      -6.447  16.327  69.054  1.00  0.00    -0.151 NA 
HETATM    6  C   UNL     1      -7.206  15.219  69.257  1.00  0.00    -0.184 A  
HETATM    7  C   UNL     1      -8.591  15.256  69.152  1.00  0.00    -0.235 A  
HETATM    8  C   UNL     1      -9.211  16.470  68.843  1.00  0.00    -0.258 A  
BRANCH   6   9
HETATM    9  C   UNL     1      -6.473  13.928  69.568  1.00  0.00    -0.115 C  
BRANCH   9  10
HETATM   10  C   UNL     1      -5.330  13.741  68.571  1.00  0.00    -0.094 C  
BRANCH  10  11
HETATM   11  O   UNL     1      -5.203  12.404  68.071  1.00  0.00    -0.059 OA 
BRANCH  11  12
HETATM   12  C   UNL     1      -6.424  11.816  67.793  1.00  0.00    -0.075 A  
HETATM   13  C   UNL     1      -7.355  12.312  66.877  1.00  0.00     0.029 A  
HETATM   14  C   UNL     1      -8.534  11.624  66.602  1.00  0.00    -0.165 A  
HETATM   15  C   UNL     1      -8.803  10.405  67.228  1.00  0.00    -0.135 A  
HETATM   16  C   UNL     1      -7.904   9.929  68.192  1.00  0.00    -0.085 A  
HETATM   17  C   UNL     1      -6.718  10.632  68.469  1.00  0.00    -0.056 A  
BRANCH  15  18
HETATM   18  C   UNL     1     -10.006   9.598  66.794  1.00  0.00    -0.289 C  
BRANCH  18  19
HETATM   19  C   UNL     1     -11.132   9.632  67.834  1.00  0.00    -0.038 C  
HETATM   20  S   UNL     1     -10.686   8.874  69.440  1.00  0.00    -0.130 SA 
HETATM   21  C   UNL     1     -11.276  10.235  70.348  1.00  0.00    -0.332 C  
HETATM   22  N   UNL     1     -11.515  11.278  69.521  1.00  0.00    -0.279 N  
HETATM   23  O   UNL     1     -11.472  10.221  71.550  1.00  0.00    -0.215 OA 
HETATM   24  C   UNL     1     -11.539  11.048  68.178  1.00  0.00    -0.272 C  
HETATM   25  H   UNL     1     -11.673  12.214  69.894  1.00  0.00     0.000 HD 
HETATM   26  O   UNL     1     -11.917  11.882  67.366  1.00  0.00    -0.603 OA 
ENDBRANCH  18  19
ENDBRANCH  15  18
ENDBRANCH  11  12
ENDBRANCH  10  11
ENDBRANCH   9  10
ENDBRANCH   6   9
ENDBRANCH   2   3
TORSDOF 7
ENDMDL
MODEL      291
REMARK 921   NORMALIZED FREE ENERGY PREDICTED BY IDOCK:   -2.98 KCAL/MOL
REMARK 922        TOTAL FREE ENERGY PREDICTED BY IDOCK:   -5.35 KCAL/MOL
REMARK 923 INTER-LIGAND FREE ENERGY PREDICTED BY IDOCK:   -4.73 KCAL/MOL
REMARK 924 INTRA-LIGAND FREE ENERGY PREDICTED BY IDOCK:   -0.62 KCAL/MOL
REMARK 927      BINDING AFFINITY PREDICTED BY RF-SCORE:    0.00 PKD
ROOT
HETATM    1  C   UNL     1      -9.875   4.430  67.740  1.00  0.00    -0.152 C  
HETATM    2  C   UNL     1     -10.173   5.475  68.805  1.00  0.00    -0.270 C  
ENDROOT
BRANCH   2   3
HETATM    3  C   UNL     1      -9.109   6.533  68.858  1.00  0.00    -0.131 A  
HETATM    4  C   UNL     1      -7.808   6.253  68.475  1.00  0.00    -0.105 A  
HETATM    5  N   UNL     1      -6.797   7.145  68.529  1.00  0.00    -0.074 NA 
HETATM    6  C   UNL     1      -7.065   8.398  68.977  1.00  0.00    -0.069 A  
HETATM    7  C   UNL     1      -8.339   8.767  69.392  1.00  0.00    -0.117 A  
HETATM    8  C   UNL     1      -9.367   7.822  69.330  1.00  0.00    -0.152 A  
BRANCH   6   9
HETATM    9  C   UNL     1      -5.903   9.372  69.041  1.00  0.00    -0.039 C  
BRANCH   9  10
HETATM   10  C   UNL     1      -6.385  10.699  69.623  1.00  0.00    -0.085 C  
BRANCH  10  11
HETATM   11  O   UNL     1      -5.995  11.848  68.861  1.00  0.00    -0.051 OA 
BRANCH  11  12
HETATM   12  C   UNL     1      -7.054  12.698  68.591  1.00  0.00    -0.096 A  
HETATM   13  C   UNL     1      -7.148  14.018  69.041  1.00  0.00    -0.106 A  
HETATM   14  C   UNL     1      -8.216  14.832  68.669  1.00  0.00    -0.159 A  
HETATM   15  C   UNL     1      -9.210  14.348  67.817  1.00  0.00    -0.192 A  
HETATM   16  C   UNL     1      -9.156  13.007  67.410  1.00  0.00    -0.201 A  
HETATM   17  C   UNL     1      -8.078  12.189  67.794  1.00  0.00    -0.152 A  
BRANCH  15  18
HETATM   18  C   UNL     1     -10.267  15.295  67.297  1.00  0.00    -0.248 C  
BRANCH  18  19
HETATM   19  C   UNL     1     -11.348  15.589  68.345  1.00  0.00    -0.354 C  
HETATM   20  S   UNL     1     -11.987  14.100  69.195  1.00  0.00    -0.336 SA 
HETATM   21  C   UNL     1     -11.797  14.808  70.772  1.00  0.00    -0.312 C  
HETATM   22  N   UNL     1     -11.055  15.936  70.689  1.00  0.00    -0.350 N  
HETATM   23  O   UNL     1     -12.295  14.359  71.788  1.00  0.00    -0.341 OA 
HETATM   24  C   UNL     1     -10.827  16.473  69.458  1.00  0.00    -0.315 C  
HETATM   25  H   UNL     1     -10.675  16.374  71.528  1.00  0.00     0.000 HD 
HETATM   26  O   UNL     1     -10.323  17.576  69.295  1.00  0.00    -0.327 OA 
ENDBRANCH  18  19
ENDBRANCH  15  18
ENDBRANCH  11  12
ENDBRANCH  10  11
ENDBRANCH   9  10
ENDBRANCH   6   9
ENDBRANCH   2   3
TORSDOF 7
ENDMDL
MODEL      292
REMARK 921   NORMALIZED FREE ENERGY PREDICTED BY IDOCK:   -2.98 KCAL/MOL
REMARK 922        TOTAL FREE ENERGY PREDICTED BY IDOCK:   -5.34 KCAL/MOL
REMARK 923 INTER-LIGAND FREE ENERGY PREDICTED BY IDOCK:   -4.76 KCAL/MOL
REMARK 924 INTRA-LIGAND FREE ENERGY PREDICTED BY IDOCK:   -0.58 KCAL/MOL
REMARK 927      BINDING AFFINITY PREDICTED BY RF-SCORE:    0.00 PKD
ROOT
HETATM    1  C   UNL     1     -10.646   8.465  67.151  1.00  0.00    -0.326 C  
HETATM    2  C   UNL     1     -10.044   7.818  68.390  1.00  0.00    -0.215 C  
ENDROOT
BRANCH   2   3
HETATM    3  C   UNL     1      -8.923   8.640  68.958  1.00  0.00    -0.142 A  
HETATM    4  C   UNL     1      -8.008   9.264  68.126  1.00  0.00    -0.099 A  
HETATM    5  N   UNL     1      -6.959   9.988  68.568  1.00  0.00    -0.065 NA 
HETATM    6  C   UNL     1      -6.788  10.125  69.909  1.00  0.00    -0.124 A  
HETATM    7  C   UNL     1      -7.650   9.526  70.818  1.00  0.00    -0.099 A  
HETATM    8  C   UNL     1      -8.727   8.778  70.333  1.00  0.00    -0.181 A  
BRANCH   6   9
HETATM    9  C   UNL     1      -5.589  10.932  70.372  1.00  0.00    -0.101 C  
BRANCH   9  10
HETATM   10  C   UNL     1      -5.961  12.412  70.415  1.00  0.00    -0.095 C  
BRANCH  10  11
HETATM   11  O   UNL     1      -5.489  13.168  69.292  1.00  0.00    -0.073 OA 
BRANCH  11  12
HETATM   12  C   UNL     1      -6.514  13.759  68.574  1.00  0.00    -0.093 A  
HETATM   13  C   UNL     1      -7.334  13.090  67.661  1.00  0.00    -0.147 A  
HETATM   14  C   UNL     1      -8.390  13.742  67.028  1.00  0.00    -0.107 A  
HETATM   15  C   UNL     1      -8.664  15.082  67.310  1.00  0.00    -0.221 A  
HETATM   16  C   UNL     1      -7.811  15.777  68.179  1.00  0.00    -0.133 A  
HETATM   17  C   UNL     1      -6.743  15.114  68.810  1.00  0.00    -0.099 A  
BRANCH  15  18
HETATM   18  C   UNL     1      -9.909  15.720  66.738  1.00  0.00    -0.256 C  
BRANCH  18  19
HETATM   19  C   UNL     1     -11.127  15.537  67.653  1.00  0.00    -0.311 C  
HETATM   20  S   UNL     1     -11.508  13.790  68.045  1.00  0.00    -0.330 SA 
HETATM   21  C   UNL     1     -11.634  14.107  69.751  1.00  0.00    -0.290 C  
HETATM   22  N   UNL     1     -11.150  15.338  70.032  1.00  0.00    -0.267 N  
HETATM   23  O   UNL     1     -12.121  13.334  70.556  1.00  0.00    -0.352 OA 
HETATM   24  C   UNL     1     -10.924  16.197  68.999  1.00  0.00    -0.312 C  
HETATM   25  H   UNL     1     -10.959  15.617  70.995  1.00  0.00     0.000 HD 
HETATM   26  O   UNL     1     -10.657  17.380  69.163  1.00  0.00    -0.321 OA 
ENDBRANCH  18  19
ENDBRANCH  15  18
ENDBRANCH  11  12
ENDBRANCH  10  11
ENDBRANCH   9  10
ENDBRANCH   6   9
ENDBRANCH   2   3
TORSDOF 7
ENDMDL
MODEL      293
REMARK 921   NORMALIZED FREE ENERGY PREDICTED BY IDOCK:   -2.98 KCAL/MOL
REMARK 922        TOTAL FREE ENERGY PREDICTED BY IDOCK:   -5.34 KCAL/MOL
REMARK 923 INTER-LIGAND FREE ENERGY PREDICTED BY IDOCK:   -5.32 KCAL/MOL
REMARK 924 INTRA-LIGAND FREE ENERGY PREDICTED BY IDOCK:   -0.03 KCAL/MOL
REMARK 927      BINDING AFFINITY PREDICTED BY RF-SCORE:    0.00 PKD
ROOT
HETATM    1  C   UNL     1     -12.732  14.090  65.164  1.00  0.00    -0.419 C  
HETATM    2  C   UNL     1     -12.325  12.632  65.009  1.00  0.00    -0.561 C  
ENDROOT
BRANCH   2   3
HETATM    3  C   UNL     1     -10.988  12.358  65.635  1.00  0.00    -0.321 A  
HETATM    4  C   UNL     1     -10.084  11.497  65.033  1.00  0.00    -0.270 A  
HETATM    5  N   UNL     1      -8.882  11.180  65.557  1.00  0.00    -0.175 NA 
HETATM    6  C   UNL     1      -8.524  11.743  66.740  1.00  0.00    -0.177 A  
HETATM    7  C   UNL     1      -9.370  12.610  67.420  1.00  0.00    -0.189 A  
HETATM    8  C   UNL     1     -10.612  12.918  66.858  1.00  0.00    -0.262 A  
BRANCH   6   9
HETATM    9  C   UNL     1      -7.172  11.353  67.308  1.00  0.00    -0.119 C  
BRANCH   9  10
HETATM   10  C   UNL     1      -6.663  10.104  66.591  1.00  0.00    -0.079 C  
BRANCH  10  11
HETATM   11  O   UNL     1      -6.686   8.917  67.395  1.00  0.00    -0.064 OA 
BRANCH  11  12
HETATM   12  C   UNL     1      -7.622   8.976  68.413  1.00  0.00    -0.090 A  
HETATM   13  C   UNL     1      -8.988   8.724  68.253  1.00  0.00    -0.141 A  
HETATM   14  C   UNL     1      -9.855   8.737  69.342  1.00  0.00    -0.186 A  
HETATM   15  C   UNL     1      -9.372   8.984  70.628  1.00  0.00    -0.283 A  
HETATM   16  C   UNL     1      -8.015   9.297  70.789  1.00  0.00    -0.187 A  
HETATM   17  C   UNL     1      -7.145   9.287  69.685  1.00  0.00    -0.061 A  
BRANCH  15  18
HETATM   18  C   UNL     1     -10.300   8.832  71.811  1.00  0.00    -0.413 C  
BRANCH  18  19
HETATM   19  C   UNL     1     -10.470   7.366  72.229  1.00  0.00    -0.223 C  
HETATM   20  S   UNL     1     -11.046   6.269  70.882  1.00  0.00    -0.312 SA 
HETATM   21  C   UNL     1      -9.810   5.086  71.195  1.00  0.00    -0.187 C  
HETATM   22  N   UNL     1      -8.879   5.596  72.033  1.00  0.00    -0.138 N  
HETATM   23  O   UNL     1      -9.817   3.955  70.745  1.00  0.00    -0.194 OA 
HETATM   24  C   UNL     1      -9.163   6.756  72.688  1.00  0.00    -0.139 C  
HETATM   25  H   UNL     1      -7.985   5.124  72.170  1.00  0.00     0.000 HD 
HETATM   26  O   UNL     1      -8.466   7.199  73.591  1.00  0.00    -0.125 OA 
ENDBRANCH  18  19
ENDBRANCH  15  18
ENDBRANCH  11  12
ENDBRANCH  10  11
ENDBRANCH   9  10
ENDBRANCH   6   9
ENDBRANCH   2   3
TORSDOF 7
ENDMDL
MODEL      294
REMARK 921   NORMALIZED FREE ENERGY PREDICTED BY IDOCK:   -2.98 KCAL/MOL
REMARK 922        TOTAL FREE ENERGY PREDICTED BY IDOCK:   -5.34 KCAL/MOL
REMARK 923 INTER-LIGAND FREE ENERGY PREDICTED BY IDOCK:   -4.65 KCAL/MOL
REMARK 924 INTRA-LIGAND FREE ENERGY PREDICTED BY IDOCK:   -0.69 KCAL/MOL
REMARK 927      BINDING AFFINITY PREDICTED BY RF-SCORE:    0.00 PKD
ROOT
HETATM    1  C   UNL     1     -10.623   4.859  65.628  1.00  0.00    -0.165 C  
HETATM    2  C   UNL     1     -10.700   5.790  66.829  1.00  0.00    -0.369 C  
ENDROOT
BRANCH   2   3
HETATM    3  C   UNL     1      -9.490   6.672  66.928  1.00  0.00    -0.184 A  
HETATM    4  C   UNL     1      -8.511   6.433  67.880  1.00  0.00    -0.118 A  
HETATM    5  N   UNL     1      -7.417   7.204  68.046  1.00  0.00    -0.097 NA 
HETATM    6  C   UNL     1      -7.253   8.277  67.229  1.00  0.00    -0.084 A  
HETATM    7  C   UNL     1      -8.187   8.599  66.253  1.00  0.00    -0.116 A  
HETATM    8  C   UNL     1      -9.314   7.786  66.105  1.00  0.00    -0.162 A  
BRANCH   6   9
HETATM    9  C   UNL     1      -6.020   9.132  67.454  1.00  0.00    -0.050 C  
BRANCH   9  10
HETATM   10  C   UNL     1      -5.989   9.605  68.906  1.00  0.00    -0.042 C  
BRANCH  10  11
HETATM   11  O   UNL     1      -5.511  10.946  69.075  1.00  0.00    -0.041 OA 
BRANCH  11  12
HETATM   12  C   UNL     1      -6.366  11.893  68.539  1.00  0.00    -0.054 A  
HETATM   13  C   UNL     1      -7.758  11.769  68.488  1.00  0.00    -0.137 A  
HETATM   14  C   UNL     1      -8.556  12.798  67.994  1.00  0.00    -0.186 A  
HETATM   15  C   UNL     1      -7.979  13.990  67.555  1.00  0.00    -0.199 A  
HETATM   16  C   UNL     1      -6.581  14.101  67.546  1.00  0.00    -0.098 A  
HETATM   17  C   UNL     1      -5.781  13.056  68.041  1.00  0.00    -0.107 A  
BRANCH  15  18
HETATM   18  C   UNL     1      -8.871  15.151  67.178  1.00  0.00    -0.236 C  
BRANCH  18  19
HETATM   19  C   UNL     1      -9.169  16.065  68.373  1.00  0.00    -0.196 C  
HETATM   20  S   UNL     1      -8.200  17.618  68.383  1.00  0.00    -0.294 SA 
HETATM   21  C   UNL     1      -9.608  18.599  68.666  1.00  0.00    -0.368 C  
HETATM   22  N   UNL     1     -10.730  17.868  68.480  1.00  0.00    -0.310 N  
HETATM   23  O   UNL     1      -9.570  19.765  69.015  1.00  0.00    -0.340 OA 
HETATM   24  C   UNL     1     -10.614  16.514  68.392  1.00  0.00    -0.323 C  
HETATM   25  H   UNL     1     -11.642  18.320  68.407  1.00  0.00     0.000 HD 
HETATM   26  O   UNL     1     -11.578  15.760  68.400  1.00  0.00    -0.373 OA 
ENDBRANCH  18  19
ENDBRANCH  15  18
ENDBRANCH  11  12
ENDBRANCH  10  11
ENDBRANCH   9  10
ENDBRANCH   6   9
ENDBRANCH   2   3
TORSDOF 7
ENDMDL
MODEL      295
REMARK 921   NORMALIZED FREE ENERGY PREDICTED BY IDOCK:   -2.95 KCAL/MOL
REMARK 922        TOTAL FREE ENERGY PREDICTED BY IDOCK:   -5.30 KCAL/MOL
REMARK 923 INTER-LIGAND FREE ENERGY PREDICTED BY IDOCK:   -3.96 KCAL/MOL
REMARK 924 INTRA-LIGAND FREE ENERGY PREDICTED BY IDOCK:   -1.34 KCAL/MOL
REMARK 927      BINDING AFFINITY PREDICTED BY RF-SCORE:    0.00 PKD
ROOT
HETATM    1  C   UNL     1      -8.987   6.526  66.603  1.00  0.00    -0.144 C  
HETATM    2  C   UNL     1      -9.112   8.037  66.476  1.00  0.00    -0.213 C  
ENDROOT
BRANCH   2   3
HETATM    3  C   UNL     1      -8.395   8.750  67.586  1.00  0.00    -0.114 A  
HETATM    4  C   UNL     1      -7.123   9.264  67.395  1.00  0.00    -0.079 A  
HETATM    5  N   UNL     1      -6.409   9.884  68.357  1.00  0.00    -0.050 NA 
HETATM    6  C   UNL     1      -6.968  10.027  69.586  1.00  0.00    -0.096 A  
HETATM    7  C   UNL     1      -8.236   9.535  69.871  1.00  0.00    -0.169 A  
HETATM    8  C   UNL     1      -8.952   8.891  68.858  1.00  0.00    -0.137 A  
BRANCH   6   9
HETATM    9  C   UNL     1      -6.132  10.715  70.649  1.00  0.00    -0.075 C  
BRANCH   9  10
HETATM   10  C   UNL     1      -5.292   9.673  71.386  1.00  0.00    -0.070 C  
BRANCH  10  11
HETATM   11  O   UNL     1      -5.734   9.405  72.723  1.00  0.00    -0.253 OA 
BRANCH  11  12
HETATM   12  C   UNL     1      -6.601   8.328  72.796  1.00  0.00    -0.091 A  
HETATM   13  C   UNL     1      -6.467   7.148  72.060  1.00  0.00    -0.044 A  
HETATM   14  C   UNL     1      -7.344   6.082  72.240  1.00  0.00    -0.094 A  
HETATM   15  C   UNL     1      -8.372   6.164  73.182  1.00  0.00    -0.118 A  
HETATM   16  C   UNL     1      -8.551   7.365  73.882  1.00  0.00    -0.245 A  
HETATM   17  C   UNL     1      -7.665   8.440  73.691  1.00  0.00    -0.151 A  
BRANCH  15  18
HETATM   18  C   UNL     1      -9.207   4.939  73.476  1.00  0.00    -0.119 C  
BRANCH  18  19
HETATM   19  C   UNL     1     -10.324   4.737  72.445  1.00  0.00    -0.201 C  
HETATM   20  S   UNL     1     -11.020   6.296  71.785  1.00  0.00    -0.270 SA 
HETATM   21  C   UNL     1     -10.882   5.764  70.135  1.00  0.00    -0.313 C  
HETATM   22  N   UNL     1     -10.121   4.649  70.068  1.00  0.00    -0.236 N  
HETATM   23  O   UNL     1     -11.427   6.310  69.193  1.00  0.00    -0.394 OA 
HETATM   24  C   UNL     1      -9.836   3.988  71.225  1.00  0.00    -0.172 C  
HETATM   25  H   UNL     1      -9.768   4.311  69.173  1.00  0.00     0.000 HD 
HETATM   26  O   UNL     1      -9.308   2.884  71.249  1.00  0.00    -0.113 OA 
ENDBRANCH  18  19
ENDBRANCH  15  18
ENDBRANCH  11  12
ENDBRANCH  10  11
ENDBRANCH   9  10
ENDBRANCH   6   9
ENDBRANCH   2   3
TORSDOF 7
ENDMDL
MODEL      296
REMARK 921   NORMALIZED FREE ENERGY PREDICTED BY IDOCK:   -2.95 KCAL/MOL
REMARK 922        TOTAL FREE ENERGY PREDICTED BY IDOCK:   -5.29 KCAL/MOL
REMARK 923 INTER-LIGAND FREE ENERGY PREDICTED BY IDOCK:   -3.95 KCAL/MOL
REMARK 924 INTRA-LIGAND FREE ENERGY PREDICTED BY IDOCK:   -1.35 KCAL/MOL
REMARK 927      BINDING AFFINITY PREDICTED BY RF-SCORE:    0.00 PKD
ROOT
HETATM    1  C   UNL     1      -8.575   6.126  66.407  1.00  0.00    -0.131 C  
HETATM    2  C   UNL     1      -9.556   7.254  66.688  1.00  0.00    -0.236 C  
ENDROOT
BRANCH   2   3
HETATM    3  C   UNL     1     -10.128   7.162  68.074  1.00  0.00    -0.201 A  
HETATM    4  C   UNL     1     -10.645   5.969  68.552  1.00  0.00    -0.265 A  
HETATM    5  N   UNL     1     -11.203   5.825  69.771  1.00  0.00    -0.270 NA 
HETATM    6  C   UNL     1     -11.257   6.907  70.589  1.00  0.00    -0.301 A  
HETATM    7  C   UNL     1     -10.771   8.146  70.191  1.00  0.00    -0.243 A  
HETATM    8  C   UNL     1     -10.202   8.270  68.920  1.00  0.00    -0.222 A  
BRANCH   6   9
HETATM    9  C   UNL     1     -11.905   6.714  71.948  1.00  0.00    -0.375 C  
BRANCH   9  10
HETATM   10  C   UNL     1     -10.831   6.759  73.033  1.00  0.00    -0.283 C  
BRANCH  10  11
HETATM   11  O   UNL     1      -9.696   5.926  72.768  1.00  0.00    -0.156 OA 
BRANCH  11  12
HETATM   12  C   UNL     1      -8.632   6.624  72.223  1.00  0.00    -0.121 A  
HETATM   13  C   UNL     1      -7.864   6.184  71.141  1.00  0.00    -0.111 A  
HETATM   14  C   UNL     1      -6.851   6.977  70.606  1.00  0.00    -0.054 A  
HETATM   15  C   UNL     1      -6.595   8.245  71.131  1.00  0.00    -0.046 A  
HETATM   16  C   UNL     1      -7.320   8.669  72.254  1.00  0.00    -0.038 A  
HETATM   17  C   UNL     1      -8.337   7.862  72.792  1.00  0.00    -0.203 A  
BRANCH  15  18
HETATM   18  C   UNL     1      -5.607   9.150  70.433  1.00  0.00    -0.034 C  
BRANCH  18  19
HETATM   19  C   UNL     1      -6.284  10.062  69.403  1.00  0.00    -0.045 C  
HETATM   20  S   UNL     1      -5.699  11.796  69.443  1.00  0.00    -0.075 SA 
HETATM   21  C   UNL     1      -5.453  11.847  67.722  1.00  0.00    -0.063 C  
HETATM   22  N   UNL     1      -5.523  10.600  67.204  1.00  0.00    -0.041 N  
HETATM   23  O   UNL     1      -5.279  12.872  67.086  1.00  0.00    -0.334 OA 
HETATM   24  C   UNL     1      -6.022   9.601  67.985  1.00  0.00    -0.043 C  
HETATM   25  H   UNL     1      -5.209  10.411  66.252  1.00  0.00     0.000 HD 
HETATM   26  O   UNL     1      -6.287   8.487  67.553  1.00  0.00    -0.055 OA 
ENDBRANCH  18  19
ENDBRANCH  15  18
ENDBRANCH  11  12
ENDBRANCH  10  11
ENDBRANCH   9  10
ENDBRANCH   6   9
ENDBRANCH   2   3
TORSDOF 7
ENDMDL
MODEL      297
REMARK 921   NORMALIZED FREE ENERGY PREDICTED BY IDOCK:   -2.94 KCAL/MOL
REMARK 922        TOTAL FREE ENERGY PREDICTED BY IDOCK:   -5.28 KCAL/MOL
REMARK 923 INTER-LIGAND FREE ENERGY PREDICTED BY IDOCK:   -4.60 KCAL/MOL
REMARK 924 INTRA-LIGAND FREE ENERGY PREDICTED BY IDOCK:   -0.68 KCAL/MOL
REMARK 927      BINDING AFFINITY PREDICTED BY RF-SCORE:    0.00 PKD
ROOT
HETATM    1  C   UNL     1      -9.546  20.232  68.648  1.00  0.00    -0.027 C  
HETATM    2  C   UNL     1      -8.558  19.557  67.709  1.00  0.00    -0.356 C  
ENDROOT
BRANCH   2   3
HETATM    3  C   UNL     1      -9.110  18.280  67.144  1.00  0.00    -0.264 A  
HETATM    4  C   UNL     1     -10.398  18.226  66.637  1.00  0.00    -0.381 A  
HETATM    5  N   UNL     1     -10.968  17.105  66.147  1.00  0.00     0.069 NA 
HETATM    6  C   UNL     1     -10.239  15.960  66.139  1.00  0.00    -0.324 A  
HETATM    7  C   UNL     1      -8.943  15.918  66.636  1.00  0.00    -0.301 A  
HETATM    8  C   UNL     1      -8.377  17.091  67.142  1.00  0.00    -0.213 A  
BRANCH   6   9
HETATM    9  C   UNL     1     -10.916  14.715  65.596  1.00  0.00    -0.336 C  
BRANCH   9  10
HETATM   10  C   UNL     1     -10.659  13.544  66.542  1.00  0.00    -0.281 C  
BRANCH  10  11
HETATM   11  O   UNL     1     -11.163  12.288  66.071  1.00  0.00    -0.302 OA 
BRANCH  11  12
HETATM   12  C   UNL     1     -10.161  11.434  65.643  1.00  0.00    -0.251 A  
HETATM   13  C   UNL     1      -8.980  11.180  66.345  1.00  0.00    -0.190 A  
HETATM   14  C   UNL     1      -8.050  10.253  65.881  1.00  0.00    -0.143 A  
HETATM   15  C   UNL     1      -8.291   9.539  64.706  1.00  0.00    -0.155 A  
HETATM   16  C   UNL     1      -9.445   9.830  63.964  1.00  0.00    -0.131 A  
HETATM   17  C   UNL     1     -10.376  10.771  64.436  1.00  0.00    -0.405 A  
BRANCH  15  18
HETATM   18  C   UNL     1      -7.350   8.424  64.310  1.00  0.00    -0.096 C  
BRANCH  18  19
HETATM   19  C   UNL     1      -7.953   7.038  64.566  1.00  0.00    -0.104 C  
HETATM   20  S   UNL     1      -7.752   5.868  63.173  1.00  0.00    -0.099 SA 
HETATM   21  C   UNL     1      -7.150   4.604  64.204  1.00  0.00    -0.050 C  
HETATM   22  N   UNL     1      -6.852   5.101  65.425  1.00  0.00    -0.059 N  
HETATM   23  O   UNL     1      -7.050   3.437  63.869  1.00  0.00    -0.047 OA 
HETATM   24  C   UNL     1      -7.299   6.348  65.744  1.00  0.00    -0.080 C  
HETATM   25  H   UNL     1      -6.306   4.556  66.093  1.00  0.00     0.000 HD 
HETATM   26  O   UNL     1      -7.233   6.811  66.875  1.00  0.00    -0.076 OA 
ENDBRANCH  18  19
ENDBRANCH  15  18
ENDBRANCH  11  12
ENDBRANCH  10  11
ENDBRANCH   9  10
ENDBRANCH   6   9
ENDBRANCH   2   3
TORSDOF 7
ENDMDL
MODEL      298
REMARK 921   NORMALIZED FREE ENERGY PREDICTED BY IDOCK:   -2.92 KCAL/MOL
REMARK 922        TOTAL FREE ENERGY PREDICTED BY IDOCK:   -5.25 KCAL/MOL
REMARK 923 INTER-LIGAND FREE ENERGY PREDICTED BY IDOCK:   -4.77 KCAL/MOL
REMARK 924 INTRA-LIGAND FREE ENERGY PREDICTED BY IDOCK:   -0.48 KCAL/MOL
REMARK 927      BINDING AFFINITY PREDICTED BY RF-SCORE:    0.00 PKD
ROOT
HETATM    1  C   UNL     1     -10.278  19.488  68.246  1.00  0.00    -0.552 C  
HETATM    2  C   UNL     1      -8.909  19.230  67.635  1.00  0.00    -0.342 C  
ENDROOT
BRANCH   2   3
HETATM    3  C   UNL     1      -8.330  17.925  68.098  1.00  0.00    -0.267 A  
HETATM    4  C   UNL     1      -6.959  17.759  68.221  1.00  0.00    -0.223 A  
HETATM    5  N   UNL     1      -6.371  16.606  68.599  1.00  0.00    -0.143 NA 
HETATM    6  C   UNL     1      -7.162  15.540  68.885  1.00  0.00    -0.142 A  
HETATM    7  C   UNL     1      -8.546  15.611  68.780  1.00  0.00    -0.193 A  
HETATM    8  C   UNL     1      -9.130  16.817  68.382  1.00  0.00    -0.233 A  
BRANCH   6   9
HETATM    9  C   UNL     1      -6.467  14.254  69.291  1.00  0.00    -0.115 C  
BRANCH   9  10
HETATM   10  C   UNL     1      -5.946  13.545  68.042  1.00  0.00    -0.131 C  
BRANCH  10  11
HETATM   11  O   UNL     1      -5.863  12.119  68.170  1.00  0.00    -0.050 OA 
BRANCH  11  12
HETATM   12  C   UNL     1      -7.093  11.497  68.053  1.00  0.00    -0.079 A  
HETATM   13  C   UNL     1      -7.986  11.693  66.995  1.00  0.00    -0.164 A  
HETATM   14  C   UNL     1      -9.177  10.976  66.914  1.00  0.00    -0.168 A  
HETATM   15  C   UNL     1      -9.497  10.026  67.885  1.00  0.00    -0.159 A  
HETATM   16  C   UNL     1      -8.637   9.865  68.981  1.00  0.00    -0.149 A  
HETATM   17  C   UNL     1      -7.439  10.596  69.059  1.00  0.00    -0.117 A  
BRANCH  15  18
HETATM   18  C   UNL     1     -10.711   9.146  67.691  1.00  0.00    -0.257 C  
BRANCH  18  19
HETATM   19  C   UNL     1     -10.342   7.763  67.140  1.00  0.00    -0.319 C  
HETATM   20  S   UNL     1      -8.631   7.647  66.502  1.00  0.00    -0.145 SA 
HETATM   21  C   UNL     1      -8.305   6.185  67.387  1.00  0.00    -0.108 C  
HETATM   22  N   UNL     1      -9.280   5.965  68.298  1.00  0.00    -0.117 N  
HETATM   23  O   UNL     1      -7.350   5.459  67.179  1.00  0.00    -0.080 OA 
HETATM   24  C   UNL     1     -10.429   6.692  68.206  1.00  0.00    -0.209 C  
HETATM   25  H   UNL     1      -9.158   5.272  69.036  1.00  0.00     0.000 HD 
HETATM   26  O   UNL     1     -11.428   6.445  68.867  1.00  0.00    -0.314 OA 
ENDBRANCH  18  19
ENDBRANCH  15  18
ENDBRANCH  11  12
ENDBRANCH  10  11
ENDBRANCH   9  10
ENDBRANCH   6   9
ENDBRANCH   2   3
TORSDOF 7
ENDMDL
MODEL      299
REMARK 921   NORMALIZED FREE ENERGY PREDICTED BY IDOCK:   -2.90 KCAL/MOL
REMARK 922        TOTAL FREE ENERGY PREDICTED BY IDOCK:   -5.23 KCAL/MOL
REMARK 923 INTER-LIGAND FREE ENERGY PREDICTED BY IDOCK:   -4.39 KCAL/MOL
REMARK 924 INTRA-LIGAND FREE ENERGY PREDICTED BY IDOCK:   -0.84 KCAL/MOL
REMARK 927      BINDING AFFINITY PREDICTED BY RF-SCORE:    0.00 PKD
ROOT
HETATM    1  C   UNL     1     -11.570  13.003  63.650  1.00  0.00    -0.507 C  
HETATM    2  C   UNL     1     -11.659  11.921  64.715  1.00  0.00    -0.302 C  
ENDROOT
BRANCH   2   3
HETATM    3  C   UNL     1     -10.587  10.883  64.545  1.00  0.00    -0.335 A  
HETATM    4  C   UNL     1      -9.928  10.733  63.336  1.00  0.00    -0.328 A  
HETATM    5  N   UNL     1      -8.981   9.801  63.104  1.00  0.00    -0.245 NA 
HETATM    6  C   UNL     1      -8.641   8.960  64.114  1.00  0.00    -0.106 A  
HETATM    7  C   UNL     1      -9.256   9.030  65.358  1.00  0.00    -0.241 A  
HETATM    8  C   UNL     1     -10.237  10.002  65.571  1.00  0.00    -0.248 A  
BRANCH   6   9
HETATM    9  C   UNL     1      -7.584   7.913  63.815  1.00  0.00    -0.129 C  
BRANCH   9  10
HETATM   10  C   UNL     1      -8.257   6.555  63.624  1.00  0.00     0.068 C  
BRANCH  10  11
HETATM   11  O   UNL     1      -7.570   5.468  64.257  1.00  0.00    -0.065 OA 
BRANCH  11  12
HETATM   12  C   UNL     1      -8.114   5.130  65.484  1.00  0.00    -0.117 A  
HETATM   13  C   UNL     1      -9.455   4.795  65.693  1.00  0.00    -0.173 A  
HETATM   14  C   UNL     1      -9.912   4.399  66.947  1.00  0.00    -0.210 A  
HETATM   15  C   UNL     1      -9.029   4.310  68.025  1.00  0.00    -0.148 A  
HETATM   16  C   UNL     1      -7.696   4.702  67.839  1.00  0.00    -0.082 A  
HETATM   17  C   UNL     1      -7.242   5.105  66.571  1.00  0.00    -0.077 A  
BRANCH  15  18
HETATM   18  C   UNL     1      -9.512   3.723  69.332  1.00  0.00    -0.257 C  
BRANCH  18  19
HETATM   19  C   UNL     1      -8.886   4.420  70.546  1.00  0.00    -0.091 C  
HETATM   20  S   UNL     1      -9.788   5.917  71.093  1.00  0.00    -0.185 SA 
HETATM   21  C   UNL     1      -9.804   5.408  72.756  1.00  0.00    -0.157 C  
HETATM   22  N   UNL     1      -9.431   4.112  72.850  1.00  0.00    -0.121 N  
HETATM   23  O   UNL     1     -10.081   6.138  73.691  1.00  0.00    -0.185 OA 
HETATM   24  C   UNL     1      -8.863   3.520  71.763  1.00  0.00    -0.095 C  
HETATM   25  H   UNL     1      -9.572   3.589  73.715  1.00  0.00     0.000 HD 
HETATM   26  O   UNL     1      -8.337   2.416  71.804  1.00  0.00    -0.055 OA 
ENDBRANCH  18  19
ENDBRANCH  15  18
ENDBRANCH  11  12
ENDBRANCH  10  11
ENDBRANCH   9  10
ENDBRANCH   6   9
ENDBRANCH   2   3
TORSDOF 7
ENDMDL
MODEL      300
REMARK 921   NORMALIZED FREE ENERGY PREDICTED BY IDOCK:   -2.84 KCAL/MOL
REMARK 922        TOTAL FREE ENERGY PREDICTED BY IDOCK:   -5.15 KCAL/MOL
REMARK 923 INTER-LIGAND FREE ENERGY PREDICTED BY IDOCK:   -4.62 KCAL/MOL
REMARK 924 INTRA-LIGAND FREE ENERGY PREDICTED BY IDOCK:   -0.53 KCAL/MOL
REMARK 927      BINDING AFFINITY PREDICTED BY RF-SCORE:    0.00 PKD
ROOT
HETATM    1  C   UNL     1     -12.137  14.168  65.488  1.00  0.00    -0.421 C  
HETATM    2  C   UNL     1     -11.829  14.225  66.977  1.00  0.00    -0.455 C  
ENDROOT
BRANCH   2   3
HETATM    3  C   UNL     1     -10.512  13.580  67.299  1.00  0.00    -0.248 A  
HETATM    4  C   UNL     1     -10.292  12.240  67.025  1.00  0.00    -0.219 A  
HETATM    5  N   UNL     1      -9.147  11.589  67.319  1.00  0.00    -0.162 NA 
HETATM    6  C   UNL     1      -8.142  12.285  67.910  1.00  0.00    -0.155 A  
HETATM    7  C   UNL     1      -8.277  13.630  68.230  1.00  0.00    -0.156 A  
HETATM    8  C   UNL     1      -9.475  14.280  67.919  1.00  0.00    -0.212 A  
BRANCH   6   9
HETATM    9  C   UNL     1      -6.874  11.519  68.240  1.00  0.00    -0.066 C  
BRANCH   9  10
HETATM   10  C   UNL     1      -6.784  11.318  69.752  1.00  0.00    -0.099 C  
BRANCH  10  11
HETATM   11  O   UNL     1      -6.014  10.175  70.145  1.00  0.00    -0.049 OA 
BRANCH  11  12
HETATM   12  C   UNL     1      -6.785   9.037  70.308  1.00  0.00    -0.047 A  
HETATM   13  C   UNL     1      -6.356   7.738  70.022  1.00  0.00    -0.033 A  
HETATM   14  C   UNL     1      -7.169   6.637  70.278  1.00  0.00    -0.077 A  
HETATM   15  C   UNL     1      -8.433   6.809  70.847  1.00  0.00    -0.136 A  
HETATM   16  C   UNL     1      -8.895   8.112  71.081  1.00  0.00    -0.171 A  
HETATM   17  C   UNL     1      -8.071   9.219  70.815  1.00  0.00    -0.194 A  
BRANCH  15  18
HETATM   18  C   UNL     1      -9.229   5.595  71.266  1.00  0.00    -0.164 C  
BRANCH  18  19
HETATM   19  C   UNL     1     -10.175   5.112  70.160  1.00  0.00    -0.278 C  
HETATM   20  S   UNL     1     -11.149   6.450  69.377  1.00  0.00    -0.390 SA 
HETATM   21  C   UNL     1     -10.749   5.921  67.769  1.00  0.00    -0.265 C  
HETATM   22  N   UNL     1      -9.750   5.012  67.813  1.00  0.00    -0.146 N  
HETATM   23  O   UNL     1     -11.321   6.300  66.763  1.00  0.00    -0.229 OA 
HETATM   24  C   UNL     1      -9.423   4.465  69.018  1.00  0.00    -0.168 C  
HETATM   25  H   UNL     1      -9.252   4.741  66.965  1.00  0.00     0.000 HD 
HETATM   26  O   UNL     1      -8.661   3.515  69.134  1.00  0.00    -0.076 OA 
ENDBRANCH  18  19
ENDBRANCH  15  18
ENDBRANCH  11  12
ENDBRANCH  10  11
ENDBRANCH   9  10
ENDBRANCH   6   9
ENDBRANCH   2   3
TORSDOF 7
ENDMDL
MODEL      301
REMARK 921   NORMALIZED FREE ENERGY PREDICTED BY IDOCK:   -2.80 KCAL/MOL
REMARK 922        TOTAL FREE ENERGY PREDICTED BY IDOCK:   -5.09 KCAL/MOL
REMARK 923 INTER-LIGAND FREE ENERGY PREDICTED BY IDOCK:   -4.64 KCAL/MOL
REMARK 924 INTRA-LIGAND FREE ENERGY PREDICTED BY IDOCK:   -0.45 KCAL/MOL
REMARK 927      BINDING AFFINITY PREDICTED BY RF-SCORE:    0.00 PKD
ROOT
HETATM    1  C   UNL     1      -9.505  14.087  68.882  1.00  0.00     0.007 C  
HETATM    2  C   UNL     1      -8.194  13.849  68.147  1.00  0.00    -0.158 C  
ENDROOT
BRANCH   2   3
HETATM    3  C   UNL     1      -8.242  12.601  67.313  1.00  0.00    -0.184 A  
HETATM    4  C   UNL     1      -9.439  12.145  66.784  1.00  0.00    -0.212 A  
HETATM    5  N   UNL     1      -9.560  11.016  66.057  1.00  0.00    -0.206 NA 
HETATM    6  C   UNL     1      -8.444  10.281  65.815  1.00  0.00    -0.157 A  
HETATM    7  C   UNL     1      -7.202  10.656  66.313  1.00  0.00    -0.137 A  
HETATM    8  C   UNL     1      -7.105  11.828  67.068  1.00  0.00    -0.132 A  
BRANCH   6   9
HETATM    9  C   UNL     1      -8.618   9.008  65.006  1.00  0.00    -0.207 C  
BRANCH   9  10
HETATM   10  C   UNL     1      -8.354   7.800  65.902  1.00  0.00    -0.134 C  
BRANCH  10  11
HETATM   11  O   UNL     1      -9.398   6.818  65.883  1.00  0.00    -0.056 OA 
BRANCH  11  12
HETATM   12  C   UNL     1      -9.883   6.524  67.145  1.00  0.00    -0.148 A  
HETATM   13  C   UNL     1      -9.615   5.344  67.845  1.00  0.00    -0.152 A  
HETATM   14  C   UNL     1     -10.085   5.152  69.142  1.00  0.00    -0.274 A  
HETATM   15  C   UNL     1     -10.822   6.151  69.781  1.00  0.00    -0.421 A  
HETATM   16  C   UNL     1     -11.146   7.313  69.066  1.00  0.00     0.006 A  
HETATM   17  C   UNL     1     -10.673   7.498  67.755  1.00  0.00    -0.233 A  
BRANCH  15  18
HETATM   18  C   UNL     1     -11.179   5.989  71.241  1.00  0.00    -0.323 C  
BRANCH  18  19
HETATM   19  C   UNL     1     -10.482   7.028  72.127  1.00  0.00    -0.209 C  
HETATM   20  S   UNL     1      -8.660   7.052  71.955  1.00  0.00    -0.119 SA 
HETATM   21  C   UNL     1      -8.612   8.780  71.759  1.00  0.00    -0.128 C  
HETATM   22  N   UNL     1      -9.858   9.259  71.550  1.00  0.00    -0.254 N  
HETATM   23  O   UNL     1      -7.597   9.448  71.836  1.00  0.00    -0.215 OA 
HETATM   24  C   UNL     1     -10.918   8.438  71.792  1.00  0.00    -0.291 C  
HETATM   25  H   UNL     1     -10.003  10.213  71.218  1.00  0.00     0.000 HD 
HETATM   26  O   UNL     1     -12.077   8.831  71.802  1.00  0.00    -0.306 OA 
ENDBRANCH  18  19
ENDBRANCH  15  18
ENDBRANCH  11  12
ENDBRANCH  10  11
ENDBRANCH   9  10
ENDBRANCH   6   9
ENDBRANCH   2   3
TORSDOF 7
ENDMDL
MODEL      302
REMARK 921   NORMALIZED FREE ENERGY PREDICTED BY IDOCK:   -2.78 KCAL/MOL
REMARK 922        TOTAL FREE ENERGY PREDICTED BY IDOCK:   -5.06 KCAL/MOL
REMARK 923 INTER-LIGAND FREE ENERGY PREDICTED BY IDOCK:   -4.78 KCAL/MOL
REMARK 924 INTRA-LIGAND FREE ENERGY PREDICTED BY IDOCK:   -0.28 KCAL/MOL
REMARK 927      BINDING AFFINITY PREDICTED BY RF-SCORE:    0.00 PKD
ROOT
HETATM    1  C   UNL     1     -12.384  14.299  65.616  1.00  0.00    -0.416 C  
HETATM    2  C   UNL     1     -11.227  14.048  66.572  1.00  0.00    -0.326 C  
ENDROOT
BRANCH   2   3
HETATM    3  C   UNL     1     -11.106  12.595  66.931  1.00  0.00    -0.315 A  
HETATM    4  C   UNL     1     -10.474  11.703  66.080  1.00  0.00    -0.247 A  
HETATM    5  N   UNL     1     -10.360  10.381  66.324  1.00  0.00    -0.226 NA 
HETATM    6  C   UNL     1     -10.887   9.888  67.474  1.00  0.00    -0.243 A  
HETATM    7  C   UNL     1     -11.547  10.707  68.382  1.00  0.00    -0.269 A  
HETATM    8  C   UNL     1     -11.655  12.072  68.104  1.00  0.00    -0.403 A  
BRANCH   6   9
HETATM    9  C   UNL     1     -10.755   8.395  67.709  1.00  0.00    -0.165 C  
BRANCH   9  10
HETATM   10  C   UNL     1     -10.133   7.741  66.476  1.00  0.00    -0.154 C  
BRANCH  10  11
HETATM   11  O   UNL     1      -9.223   6.676  66.776  1.00  0.00    -0.138 OA 
BRANCH  11  12
HETATM   12  C   UNL     1      -8.436   6.937  67.884  1.00  0.00    -0.120 A  
HETATM   13  C   UNL     1      -7.692   8.105  68.073  1.00  0.00    -0.114 A  
HETATM   14  C   UNL     1      -6.978   8.322  69.249  1.00  0.00    -0.058 A  
HETATM   15  C   UNL     1      -7.008   7.380  70.279  1.00  0.00    -0.059 A  
HETATM   16  C   UNL     1      -7.703   6.179  70.074  1.00  0.00    -0.097 A  
HETATM   17  C   UNL     1      -8.417   5.963  68.882  1.00  0.00    -0.105 A  
BRANCH  15  18
HETATM   18  C   UNL     1      -6.363   7.709  71.605  1.00  0.00    -0.038 C  
BRANCH  18  19
HETATM   19  C   UNL     1      -7.387   8.171  72.649  1.00  0.00    -0.111 C  
HETATM   20  S   UNL     1      -9.027   8.589  71.951  1.00  0.00    -0.233 SA 
HETATM   21  C   UNL     1      -9.873   7.630  73.129  1.00  0.00    -0.279 C  
HETATM   22  N   UNL     1      -9.003   6.841  73.798  1.00  0.00    -0.139 N  
HETATM   23  O   UNL     1     -11.072   7.698  73.332  1.00  0.00    -0.337 OA 
HETATM   24  C   UNL     1      -7.670   7.094  73.674  1.00  0.00    -0.100 C  
HETATM   25  H   UNL     1      -9.336   6.073  74.382  1.00  0.00     0.000 HD 
HETATM   26  O   UNL     1      -6.822   6.554  74.371  1.00  0.00    -0.087 OA 
ENDBRANCH  18  19
ENDBRANCH  15  18
ENDBRANCH  11  12
ENDBRANCH  10  11
ENDBRANCH   9  10
ENDBRANCH   6   9
ENDBRANCH   2   3
TORSDOF 7
ENDMDL
MODEL      303
REMARK 921   NORMALIZED FREE ENERGY PREDICTED BY IDOCK:   -2.70 KCAL/MOL
REMARK 922        TOTAL FREE ENERGY PREDICTED BY IDOCK:   -4.94 KCAL/MOL
REMARK 923 INTER-LIGAND FREE ENERGY PREDICTED BY IDOCK:   -4.99 KCAL/MOL
REMARK 924 INTRA-LIGAND FREE ENERGY PREDICTED BY IDOCK:    0.04 KCAL/MOL
REMARK 927      BINDING AFFINITY PREDICTED BY RF-SCORE:    0.00 PKD
ROOT
HETATM    1  C   UNL     1     -11.363  17.233  67.769  1.00  0.00     0.323 C  
HETATM    2  C   UNL     1     -10.221  16.243  67.946  1.00  0.00    -0.261 C  
ENDROOT
BRANCH   2   3
HETATM    3  C   UNL     1     -10.724  14.870  68.288  1.00  0.00    -0.249 A  
HETATM    4  C   UNL     1     -10.288  13.758  67.585  1.00  0.00    -0.239 A  
HETATM    5  N   UNL     1     -10.723  12.502  67.815  1.00  0.00    -0.214 NA 
HETATM    6  C   UNL     1     -11.637  12.306  68.800  1.00  0.00    -0.330 A  
HETATM    7  C   UNL     1     -12.138  13.363  69.550  1.00  0.00    -0.334 A  
HETATM    8  C   UNL     1     -11.674  14.655  69.288  1.00  0.00    -0.348 A  
BRANCH   6   9
HETATM    9  C   UNL     1     -12.117  10.884  69.023  1.00  0.00    -0.240 C  
BRANCH   9  10
HETATM   10  C   UNL     1     -12.254  10.624  70.522  1.00  0.00    -0.358 C  
BRANCH  10  11
HETATM   11  O   UNL     1     -11.047  10.172  71.149  1.00  0.00    -0.291 OA 
BRANCH  11  12
HETATM   12  C   UNL     1     -10.865   8.804  71.040  1.00  0.00    -0.260 A  
HETATM   13  C   UNL     1     -11.872   7.891  70.714  1.00  0.00    -0.190 A  
HETATM   14  C   UNL     1     -11.593   6.536  70.556  1.00  0.00    -0.455 A  
HETATM   15  C   UNL     1     -10.289   6.061  70.703  1.00  0.00    -0.280 A  
HETATM   16  C   UNL     1      -9.284   6.959  71.089  1.00  0.00    -0.154 A  
HETATM   17  C   UNL     1      -9.573   8.325  71.252  1.00  0.00    -0.219 A  
BRANCH  15  18
HETATM   18  C   UNL     1      -9.982   4.619  70.368  1.00  0.00    -0.300 C  
BRANCH  18  19
HETATM   19  C   UNL     1      -9.192   4.484  69.061  1.00  0.00    -0.134 C  
HETATM   20  S   UNL     1      -7.661   5.485  69.008  1.00  0.00    -0.088 SA 
HETATM   21  C   UNL     1      -6.696   4.144  68.464  1.00  0.00    -0.046 C  
HETATM   22  N   UNL     1      -7.390   2.991  68.590  1.00  0.00    -0.049 N  
HETATM   23  O   UNL     1      -5.573   4.252  68.007  1.00  0.00    -0.015 OA 
HETATM   24  C   UNL     1      -8.729   3.062  68.827  1.00  0.00    -0.092 C  
HETATM   25  H   UNL     1      -6.921   2.088  68.510  1.00  0.00     0.000 HD 
HETATM   26  O   UNL     1      -9.467   2.087  68.781  1.00  0.00    -0.163 OA 
ENDBRANCH  18  19
ENDBRANCH  15  18
ENDBRANCH  11  12
ENDBRANCH  10  11
ENDBRANCH   9  10
ENDBRANCH   6   9
ENDBRANCH   2   3
TORSDOF 7
ENDMDL
MODEL      304
REMARK 921   NORMALIZED FREE ENERGY PREDICTED BY IDOCK:   -2.67 KCAL/MOL
REMARK 922        TOTAL FREE ENERGY PREDICTED BY IDOCK:   -4.90 KCAL/MOL
REMARK 923 INTER-LIGAND FREE ENERGY PREDICTED BY IDOCK:   -4.32 KCAL/MOL
REMARK 924 INTRA-LIGAND FREE ENERGY PREDICTED BY IDOCK:   -0.59 KCAL/MOL
REMARK 927      BINDING AFFINITY PREDICTED BY RF-SCORE:    0.00 PKD
ROOT
HETATM    1  C   UNL     1      -9.323   3.944  66.506  1.00  0.00    -0.199 C  
HETATM    2  C   UNL     1     -10.599   4.746  66.295  1.00  0.00    -0.246 C  
ENDROOT
BRANCH   2   3
HETATM    3  C   UNL     1     -10.591   6.023  67.086  1.00  0.00    -0.374 A  
HETATM    4  C   UNL     1     -10.897   6.024  68.437  1.00  0.00    -0.281 A  
HETATM    5  N   UNL     1     -10.942   7.136  69.198  1.00  0.00    -0.162 NA 
HETATM    6  C   UNL     1     -10.661   8.330  68.615  1.00  0.00    -0.027 A  
HETATM    7  C   UNL     1     -10.353   8.426  67.264  1.00  0.00    -0.369 A  
HETATM    8  C   UNL     1     -10.318   7.259  66.496  1.00  0.00    -0.104 A  
BRANCH   6   9
HETATM    9  C   UNL     1     -10.736   9.563  69.497  1.00  0.00    -0.246 C  
BRANCH   9  10
HETATM   10  C   UNL     1      -9.944  10.697  68.850  1.00  0.00    -0.204 C  
BRANCH  10  11
HETATM   11  O   UNL     1     -10.754  11.662  68.166  1.00  0.00    -0.195 OA 
BRANCH  11  12
HETATM   12  C   UNL     1     -10.104  12.868  67.972  1.00  0.00    -0.235 A  
HETATM   13  C   UNL     1      -9.843  13.438  66.723  1.00  0.00    -0.265 A  
HETATM   14  C   UNL     1      -9.244  14.690  66.613  1.00  0.00    -0.291 A  
HETATM   15  C   UNL     1      -8.908  15.416  67.757  1.00  0.00    -0.170 A  
HETATM   16  C   UNL     1      -9.112  14.827  69.013  1.00  0.00    -0.136 A  
HETATM   17  C   UNL     1      -9.712  13.560  69.117  1.00  0.00     0.364 A  
BRANCH  15  18
HETATM   18  C   UNL     1      -8.412  16.837  67.615  1.00  0.00    -0.197 C  
BRANCH  18  19
HETATM   19  C   UNL     1      -7.488  17.010  66.403  1.00  0.00    -0.301 C  
HETATM   20  S   UNL     1      -7.616  18.647  65.596  1.00  0.00     0.257 SA 
HETATM   21  C   UNL     1      -5.891  18.873  65.577  1.00  0.00    -0.202 C  
HETATM   22  N   UNL     1      -5.293  17.948  66.361  1.00  0.00    -0.157 N  
HETATM   23  O   UNL     1      -5.320  19.724  64.920  1.00  0.00    -0.158 OA 
HETATM   24  C   UNL     1      -6.029  16.883  66.785  1.00  0.00    -0.166 C  
HETATM   25  H   UNL     1      -4.313  18.045  66.629  1.00  0.00     0.000 HD 
HETATM   26  O   UNL     1      -5.536  15.913  67.345  1.00  0.00    -0.251 OA 
ENDBRANCH  18  19
ENDBRANCH  15  18
ENDBRANCH  11  12
ENDBRANCH  10  11
ENDBRANCH   9  10
ENDBRANCH   6   9
ENDBRANCH   2   3
TORSDOF 7
ENDMDL
MODEL      305
REMARK 921   NORMALIZED FREE ENERGY PREDICTED BY IDOCK:   -2.65 KCAL/MOL
REMARK 922        TOTAL FREE ENERGY PREDICTED BY IDOCK:   -4.88 KCAL/MOL
REMARK 923 INTER-LIGAND FREE ENERGY PREDICTED BY IDOCK:   -3.57 KCAL/MOL
REMARK 924 INTRA-LIGAND FREE ENERGY PREDICTED BY IDOCK:   -1.31 KCAL/MOL
REMARK 927      BINDING AFFINITY PREDICTED BY RF-SCORE:    0.00 PKD
ROOT
HETATM    1  C   UNL     1     -10.301   5.149  67.168  1.00  0.00    -0.246 C  
HETATM    2  C   UNL     1     -10.444   5.871  68.500  1.00  0.00    -0.297 C  
ENDROOT
BRANCH   2   3
HETATM    3  C   UNL     1     -10.606   7.352  68.315  1.00  0.00    -0.204 A  
HETATM    4  C   UNL     1     -10.550   7.921  67.053  1.00  0.00    -0.311 A  
HETATM    5  N   UNL     1     -10.654   9.246  66.818  1.00  0.00    -0.188 NA 
HETATM    6  C   UNL     1     -10.832  10.077  67.877  1.00  0.00    -0.271 A  
HETATM    7  C   UNL     1     -10.890   9.597  69.179  1.00  0.00    -0.212 A  
HETATM    8  C   UNL     1     -10.776   8.220  69.395  1.00  0.00    -0.160 A  
BRANCH   6   9
HETATM    9  C   UNL     1     -10.929  11.562  67.579  1.00  0.00    -0.308 C  
BRANCH   9  10
HETATM   10  C   UNL     1     -10.059  12.335  68.569  1.00  0.00    -0.187 C  
BRANCH  10  11
HETATM   11  O   UNL     1      -8.763  12.680  68.064  1.00  0.00    -0.175 OA 
BRANCH  11  12
HETATM   12  C   UNL     1      -7.994  11.571  67.755  1.00  0.00    -0.128 A  
HETATM   13  C   UNL     1      -7.543  10.632  68.686  1.00  0.00    -0.103 A  
HETATM   14  C   UNL     1      -6.830   9.504  68.286  1.00  0.00    -0.062 A  
HETATM   15  C   UNL     1      -6.568   9.278  66.933  1.00  0.00    -0.068 A  
HETATM   16  C   UNL     1      -6.964  10.245  65.998  1.00  0.00    -0.120 A  
HETATM   17  C   UNL     1      -7.678  11.383  66.410  1.00  0.00    -0.051 A  
BRANCH  15  18
HETATM   18  C   UNL     1      -5.939   7.971  66.509  1.00  0.00    -0.041 C  
BRANCH  18  19
HETATM   19  C   UNL     1      -6.982   6.866  66.301  1.00  0.00    -0.069 C  
HETATM   20  S   UNL     1      -7.844   6.948  64.689  1.00  0.00    -0.109 SA 
HETATM   21  C   UNL     1      -7.578   5.261  64.360  1.00  0.00    -0.077 C  
HETATM   22  N   UNL     1      -6.680   4.752  65.233  1.00  0.00    -0.047 N  
HETATM   23  O   UNL     1      -8.152   4.635  63.487  1.00  0.00    -0.086 OA 
HETATM   24  C   UNL     1      -6.357   5.488  66.334  1.00  0.00    -0.039 C  
HETATM   25  H   UNL     1      -6.254   3.839  65.073  1.00  0.00     0.000 HD 
HETATM   26  O   UNL     1      -5.696   5.043  67.263  1.00  0.00    -0.013 OA 
ENDBRANCH  18  19
ENDBRANCH  15  18
ENDBRANCH  11  12
ENDBRANCH  10  11
ENDBRANCH   9  10
ENDBRANCH   6   9
ENDBRANCH   2   3
TORSDOF 7
ENDMDL
MODEL      306
REMARK 921   NORMALIZED FREE ENERGY PREDICTED BY IDOCK:   -2.63 KCAL/MOL
REMARK 922        TOTAL FREE ENERGY PREDICTED BY IDOCK:   -4.85 KCAL/MOL
REMARK 923 INTER-LIGAND FREE ENERGY PREDICTED BY IDOCK:   -4.65 KCAL/MOL
REMARK 924 INTRA-LIGAND FREE ENERGY PREDICTED BY IDOCK:   -0.19 KCAL/MOL
REMARK 927      BINDING AFFINITY PREDICTED BY RF-SCORE:    0.00 PKD
ROOT
HETATM    1  C   UNL     1     -12.627  14.521  64.399  1.00  0.00    -0.180 C  
HETATM    2  C   UNL     1     -11.146  14.194  64.275  1.00  0.00    -0.146 C  
ENDROOT
BRANCH   2   3
HETATM    3  C   UNL     1     -10.797  12.917  64.984  1.00  0.00    -0.323 A  
HETATM    4  C   UNL     1      -9.949  11.990  64.400  1.00  0.00    -0.228 A  
HETATM    5  N   UNL     1      -9.621  10.810  64.965  1.00  0.00    -0.233 NA 
HETATM    6  C   UNL     1     -10.141  10.509  66.183  1.00  0.00    -0.246 A  
HETATM    7  C   UNL     1     -11.007  11.375  66.839  1.00  0.00    -0.355 A  
HETATM    8  C   UNL     1     -11.335  12.589  66.229  1.00  0.00    -0.386 A  
BRANCH   6   9
HETATM    9  C   UNL     1      -9.764   9.167  66.782  1.00  0.00    -0.271 C  
BRANCH   9  10
HETATM   10  C   UNL     1      -8.548   8.607  66.046  1.00  0.00    -0.155 C  
BRANCH  10  11
HETATM   11  O   UNL     1      -8.740   7.290  65.516  1.00  0.00    -0.122 OA 
BRANCH  11  12
HETATM   12  C   UNL     1      -8.888   6.330  66.502  1.00  0.00    -0.138 A  
HETATM   13  C   UNL     1      -7.838   5.795  67.254  1.00  0.00    -0.102 A  
HETATM   14  C   UNL     1      -8.076   4.882  68.278  1.00  0.00    -0.085 A  
HETATM   15  C   UNL     1      -9.381   4.493  68.588  1.00  0.00    -0.199 A  
HETATM   16  C   UNL     1     -10.435   4.978  67.800  1.00  0.00    -0.053 A  
HETATM   17  C   UNL     1     -10.186   5.896  66.765  1.00  0.00    -0.269 A  
BRANCH  15  18
HETATM   18  C   UNL     1      -9.628   3.631  69.804  1.00  0.00    -0.228 C  
BRANCH  18  19
HETATM   19  C   UNL     1      -9.415   4.400  71.114  1.00  0.00    -0.160 C  
HETATM   20  S   UNL     1      -7.710   5.029  71.340  1.00  0.00    -0.102 SA 
HETATM   21  C   UNL     1      -8.259   6.626  71.754  1.00  0.00    -0.110 C  
HETATM   22  N   UNL     1      -9.574   6.756  71.467  1.00  0.00    -0.164 N  
HETATM   23  O   UNL     1      -7.554   7.481  72.260  1.00  0.00    -0.080 OA 
HETATM   24  C   UNL     1     -10.291   5.631  71.193  1.00  0.00    -0.232 C  
HETATM   25  H   UNL     1     -10.018   7.674  71.456  1.00  0.00     0.000 HD 
HETATM   26  O   UNL     1     -11.511   5.626  71.097  1.00  0.00    -0.088 OA 
ENDBRANCH  18  19
ENDBRANCH  15  18
ENDBRANCH  11  12
ENDBRANCH  10  11
ENDBRANCH   9  10
ENDBRANCH   6   9
ENDBRANCH   2   3
TORSDOF 7
ENDMDL
MODEL      307
REMARK 921   NORMALIZED FREE ENERGY PREDICTED BY IDOCK:   -2.59 KCAL/MOL
REMARK 922        TOTAL FREE ENERGY PREDICTED BY IDOCK:   -4.80 KCAL/MOL
REMARK 923 INTER-LIGAND FREE ENERGY PREDICTED BY IDOCK:   -4.36 KCAL/MOL
REMARK 924 INTRA-LIGAND FREE ENERGY PREDICTED BY IDOCK:   -0.44 KCAL/MOL
REMARK 927      BINDING AFFINITY PREDICTED BY RF-SCORE:    0.00 PKD
ROOT
HETATM    1  C   UNL     1     -12.328  14.746  64.346  1.00  0.00    -0.389 C  
HETATM    2  C   UNL     1     -10.924  15.070  64.837  1.00  0.00    -0.427 C  
ENDROOT
BRANCH   2   3
HETATM    3  C   UNL     1     -10.426  14.043  65.812  1.00  0.00    -0.317 A  
HETATM    4  C   UNL     1      -9.399  14.339  66.694  1.00  0.00    -0.284 A  
HETATM    5  N   UNL     1      -8.881  13.456  67.572  1.00  0.00    -0.197 NA 
HETATM    6  C   UNL     1      -9.397  12.200  67.605  1.00  0.00    -0.187 A  
HETATM    7  C   UNL     1     -10.421  11.810  66.751  1.00  0.00    -0.260 A  
HETATM    8  C   UNL     1     -10.937  12.744  65.848  1.00  0.00    -0.303 A  
BRANCH   6   9
HETATM    9  C   UNL     1      -8.780  11.227  68.592  1.00  0.00    -0.136 C  
BRANCH   9  10
HETATM   10  C   UNL     1      -9.175   9.801  68.212  1.00  0.00    -0.129 C  
BRANCH  10  11
HETATM   11  O   UNL     1      -8.128   9.051  67.584  1.00  0.00    -0.108 OA 
BRANCH  11  12
HETATM   12  C   UNL     1      -7.778   7.916  68.296  1.00  0.00    -0.121 A  
HETATM   13  C   UNL     1      -6.651   7.808  69.114  1.00  0.00    -0.040 A  
HETATM   14  C   UNL     1      -6.404   6.653  69.852  1.00  0.00    -0.039 A  
HETATM   15  C   UNL     1      -7.296   5.580  69.804  1.00  0.00    -0.066 A  
HETATM   16  C   UNL     1      -8.397   5.656  68.940  1.00  0.00    -0.103 A  
HETATM   17  C   UNL     1      -8.637   6.823  68.193  1.00  0.00    -0.120 A  
BRANCH  15  18
HETATM   18  C   UNL     1      -7.095   4.406  70.736  1.00  0.00    -0.037 C  
BRANCH  18  19
HETATM   19  C   UNL     1      -8.116   4.394  71.880  1.00  0.00    -0.098 C  
HETATM   20  S   UNL     1      -8.509   6.053  72.547  1.00  0.00    -0.118 SA 
HETATM   21  C   UNL     1     -10.224   5.781  72.460  1.00  0.00    -0.188 C  
HETATM   22  N   UNL     1     -10.483   4.672  71.731  1.00  0.00    -0.133 N  
HETATM   23  O   UNL     1     -11.056   6.479  73.011  1.00  0.00    -0.250 OA 
HETATM   24  C   UNL     1      -9.450   3.832  71.439  1.00  0.00    -0.155 C  
HETATM   25  H   UNL     1     -11.429   4.469  71.406  1.00  0.00     0.000 HD 
HETATM   26  O   UNL     1      -9.611   2.726  70.941  1.00  0.00    -0.151 OA 
ENDBRANCH  18  19
ENDBRANCH  15  18
ENDBRANCH  11  12
ENDBRANCH  10  11
ENDBRANCH   9  10
ENDBRANCH   6   9
ENDBRANCH   2   3
TORSDOF 7
ENDMDL
MODEL      308
REMARK 921   NORMALIZED FREE ENERGY PREDICTED BY IDOCK:   -2.54 KCAL/MOL
REMARK 922        TOTAL FREE ENERGY PREDICTED BY IDOCK:   -4.72 KCAL/MOL
REMARK 923 INTER-LIGAND FREE ENERGY PREDICTED BY IDOCK:   -4.15 KCAL/MOL
REMARK 924 INTRA-LIGAND FREE ENERGY PREDICTED BY IDOCK:   -0.57 KCAL/MOL
REMARK 927      BINDING AFFINITY PREDICTED BY RF-SCORE:    0.00 PKD
ROOT
HETATM    1  C   UNL     1     -12.287  15.247  64.121  1.00  0.00    -0.065 C  
HETATM    2  C   UNL     1     -11.089  15.966  64.725  1.00  0.00    -0.397 C  
ENDROOT
BRANCH   2   3
HETATM    3  C   UNL     1     -10.326  15.080  65.667  1.00  0.00    -0.374 A  
HETATM    4  C   UNL     1      -9.708  15.603  66.791  1.00  0.00    -0.241 A  
HETATM    5  N   UNL     1      -8.979  14.872  67.659  1.00  0.00    -0.176 NA 
HETATM    6  C   UNL     1      -8.845  13.540  67.429  1.00  0.00    -0.221 A  
HETATM    7  C   UNL     1      -9.422  12.931  66.322  1.00  0.00    -0.205 A  
HETATM    8  C   UNL     1     -10.169  13.712  65.436  1.00  0.00    -0.330 A  
BRANCH   6   9
HETATM    9  C   UNL     1      -8.006  12.751  68.416  1.00  0.00    -0.137 C  
BRANCH   9  10
HETATM   10  C   UNL     1      -7.898  11.302  67.944  1.00  0.00    -0.116 C  
BRANCH  10  11
HETATM   11  O   UNL     1      -6.726  10.620  68.411  1.00  0.00    -0.058 OA 
BRANCH  11  12
HETATM   12  C   UNL     1      -6.852   9.243  68.364  1.00  0.00    -0.063 A  
HETATM   13  C   UNL     1      -7.574   8.479  69.284  1.00  0.00    -0.095 A  
HETATM   14  C   UNL     1      -7.710   7.101  69.129  1.00  0.00    -0.109 A  
HETATM   15  C   UNL     1      -7.139   6.454  68.031  1.00  0.00    -0.082 A  
HETATM   16  C   UNL     1      -6.362   7.203  67.136  1.00  0.00    -0.053 A  
HETATM   17  C   UNL     1      -6.225   8.593  67.301  1.00  0.00    -0.056 A  
BRANCH  15  18
HETATM   18  C   UNL     1      -7.436   4.991  67.796  1.00  0.00    -0.079 C  
BRANCH  18  19
HETATM   19  C   UNL     1      -8.937   4.724  67.627  1.00  0.00    -0.110 C  
HETATM   20  S   UNL     1      -9.733   5.738  66.328  1.00  0.00    -0.074 SA 
HETATM   21  C   UNL     1     -10.509   4.361  65.603  1.00  0.00    -0.193 C  
HETATM   22  N   UNL     1      -9.992   3.217  66.105  1.00  0.00    -0.352 N  
HETATM   23  O   UNL     1     -11.411   4.435  64.788  1.00  0.00    -0.266 OA 
HETATM   24  C   UNL     1      -9.212   3.293  67.220  1.00  0.00    -0.192 C  
HETATM   25  H   UNL     1     -10.180   2.319  65.660  1.00  0.00     0.000 HD 
HETATM   26  O   UNL     1      -8.847   2.307  67.846  1.00  0.00    -0.102 OA 
ENDBRANCH  18  19
ENDBRANCH  15  18
ENDBRANCH  11  12
ENDBRANCH  10  11
ENDBRANCH   9  10
ENDBRANCH   6   9
ENDBRANCH   2   3
TORSDOF 7
ENDMDL
MODEL      309
REMARK 921   NORMALIZED FREE ENERGY PREDICTED BY IDOCK:   -2.52 KCAL/MOL
REMARK 922        TOTAL FREE ENERGY PREDICTED BY IDOCK:   -4.70 KCAL/MOL
REMARK 923 INTER-LIGAND FREE ENERGY PREDICTED BY IDOCK:   -4.36 KCAL/MOL
REMARK 924 INTRA-LIGAND FREE ENERGY PREDICTED BY IDOCK:   -0.34 KCAL/MOL
REMARK 927      BINDING AFFINITY PREDICTED BY RF-SCORE:    0.00 PKD
ROOT
HETATM    1  C   UNL     1     -10.867   8.560  66.871  1.00  0.00     0.030 C  
HETATM    2  C   UNL     1      -9.612   8.346  66.038  1.00  0.00    -0.196 C  
ENDROOT
BRANCH   2   3
HETATM    3  C   UNL     1      -8.581   9.404  66.303  1.00  0.00    -0.142 A  
HETATM    4  C   UNL     1      -7.447   9.505  65.513  1.00  0.00    -0.102 A  
HETATM    5  N   UNL     1      -6.466  10.409  65.715  1.00  0.00    -0.115 NA 
HETATM    6  C   UNL     1      -6.594  11.282  66.747  1.00  0.00    -0.140 A  
HETATM    7  C   UNL     1      -7.693  11.249  67.597  1.00  0.00    -0.115 A  
HETATM    8  C   UNL     1      -8.693  10.299  67.369  1.00  0.00    -0.128 A  
BRANCH   6   9
HETATM    9  C   UNL     1      -5.465  12.274  66.956  1.00  0.00    -0.020 C  
BRANCH   9  10
HETATM   10  C   UNL     1      -5.367  12.625  68.439  1.00  0.00    -0.058 C  
BRANCH  10  11
HETATM   11  O   UNL     1      -5.173  14.022  68.698  1.00  0.00    -0.081 OA 
BRANCH  11  12
HETATM   12  C   UNL     1      -6.344  14.754  68.600  1.00  0.00    -0.085 A  
HETATM   13  C   UNL     1      -7.103  14.885  67.434  1.00  0.00    -0.194 A  
HETATM   14  C   UNL     1      -8.308  15.584  67.433  1.00  0.00    -0.202 A  
HETATM   15  C   UNL     1      -8.794  16.155  68.610  1.00  0.00    -0.218 A  
HETATM   16  C   UNL     1      -8.010  16.080  69.770  1.00  0.00     0.297 A  
HETATM   17  C   UNL     1      -6.793  15.378  69.763  1.00  0.00    -0.162 A  
BRANCH  15  18
HETATM   18  C   UNL     1     -10.177  16.766  68.622  1.00  0.00    -0.298 C  
BRANCH  18  19
HETATM   19  C   UNL     1     -10.167  18.232  68.172  1.00  0.00    -0.387 C  
HETATM   20  S   UNL     1      -8.894  19.256  68.996  1.00  0.00    -0.122 SA 
HETATM   21  C   UNL     1      -8.326  19.920  67.492  1.00  0.00    -0.324 C  
HETATM   22  N   UNL     1      -8.841  19.225  66.453  1.00  0.00    -0.340 N  
HETATM   23  O   UNL     1      -7.598  20.892  67.406  1.00  0.00    -0.345 OA 
HETATM   24  C   UNL     1      -9.871  18.366  66.694  1.00  0.00    -0.353 C  
HETATM   25  H   UNL     1      -8.468  19.340  65.511  1.00  0.00     0.000 HD 
HETATM   26  O   UNL     1     -10.514  17.829  65.802  1.00  0.00    -0.556 OA 
ENDBRANCH  18  19
ENDBRANCH  15  18
ENDBRANCH  11  12
ENDBRANCH  10  11
ENDBRANCH   9  10
ENDBRANCH   6   9
ENDBRANCH   2   3
TORSDOF 7
ENDMDL
MODEL      310
REMARK 921   NORMALIZED FREE ENERGY PREDICTED BY IDOCK:   -2.50 KCAL/MOL
REMARK 922        TOTAL FREE ENERGY PREDICTED BY IDOCK:   -4.66 KCAL/MOL
REMARK 923 INTER-LIGAND FREE ENERGY PREDICTED BY IDOCK:   -4.09 KCAL/MOL
REMARK 924 INTRA-LIGAND FREE ENERGY PREDICTED BY IDOCK:   -0.58 KCAL/MOL
REMARK 927      BINDING AFFINITY PREDICTED BY RF-SCORE:    0.00 PKD
ROOT
HETATM    1  C   UNL     1     -12.633  14.580  65.320  1.00  0.00    -0.240 C  
HETATM    2  C   UNL     1     -12.637  13.479  66.370  1.00  0.00    -0.244 C  
ENDROOT
BRANCH   2   3
HETATM    3  C   UNL     1     -11.715  12.354  65.999  1.00  0.00    -0.469 A  
HETATM    4  C   UNL     1     -10.960  11.706  66.964  1.00  0.00    -0.288 A  
HETATM    5  N   UNL     1     -10.088  10.712  66.696  1.00  0.00    -0.212 NA 
HETATM    6  C   UNL     1      -9.942  10.309  65.407  1.00  0.00    -0.302 A  
HETATM    7  C   UNL     1     -10.651  10.908  64.373  1.00  0.00    -0.343 A  
HETATM    8  C   UNL     1     -11.544  11.939  64.676  1.00  0.00    -0.320 A  
BRANCH   6   9
HETATM    9  C   UNL     1      -8.942   9.200  65.140  1.00  0.00    -0.238 C  
BRANCH   9  10
HETATM   10  C   UNL     1      -9.245   8.014  66.054  1.00  0.00    -0.120 C  
BRANCH  10  11
HETATM   11  O   UNL     1      -8.559   8.056  67.312  1.00  0.00    -0.123 OA 
BRANCH  11  12
HETATM   12  C   UNL     1      -9.337   7.598  68.362  1.00  0.00    -0.146 A  
HETATM   13  C   UNL     1     -10.655   7.152  68.239  1.00  0.00    -0.230 A  
HETATM   14  C   UNL     1     -11.348   6.641  69.334  1.00  0.00    -0.331 A  
HETATM   15  C   UNL     1     -10.729   6.547  70.581  1.00  0.00    -0.297 A  
HETATM   16  C   UNL     1      -9.427   7.048  70.728  1.00  0.00    -0.161 A  
HETATM   17  C   UNL     1      -8.735   7.567  69.620  1.00  0.00    -0.137 A  
BRANCH  15  18
HETATM   18  C   UNL     1     -11.442   5.841  71.712  1.00  0.00    -0.199 C  
BRANCH  18  19
HETATM   19  C   UNL     1     -10.560   4.779  72.380  1.00  0.00    -0.180 C  
HETATM   20  S   UNL     1     -11.157   4.241  74.024  1.00  0.00     0.028 SA 
HETATM   21  C   UNL     1     -11.010   2.555  73.626  1.00  0.00    -0.209 C  
HETATM   22  N   UNL     1     -10.814   2.406  72.297  1.00  0.00     0.220 N  
HETATM   23  O   UNL     1     -11.048   1.653  74.444  1.00  0.00    -0.123 OA 
HETATM   24  C   UNL     1     -10.493   3.508  71.562  1.00  0.00     0.485 C  
HETATM   25  H   UNL     1     -10.904   1.492  71.854  1.00  0.00     0.000 HD 
HETATM   26  O   UNL     1     -10.126   3.447  70.396  1.00  0.00     0.094 OA 
ENDBRANCH  18  19
ENDBRANCH  15  18
ENDBRANCH  11  12
ENDBRANCH  10  11
ENDBRANCH   9  10
ENDBRANCH   6   9
ENDBRANCH   2   3
TORSDOF 7
ENDMDL
MODEL      311
REMARK 921   NORMALIZED FREE ENERGY PREDICTED BY IDOCK:   -2.46 KCAL/MOL
REMARK 922        TOTAL FREE ENERGY PREDICTED BY IDOCK:   -4.61 KCAL/MOL
REMARK 923 INTER-LIGAND FREE ENERGY PREDICTED BY IDOCK:   -4.10 KCAL/MOL
REMARK 924 INTRA-LIGAND FREE ENERGY PREDICTED BY IDOCK:   -0.50 KCAL/MOL
REMARK 927      BINDING AFFINITY PREDICTED BY RF-SCORE:    0.00 PKD
ROOT
HETATM    1  C   UNL     1      -6.479  17.327  67.652  1.00  0.00    -0.166 C  
HETATM    2  C   UNL     1      -7.821  16.957  68.268  1.00  0.00    -0.208 C  
ENDROOT
BRANCH   2   3
HETATM    3  C   UNL     1      -8.195  15.533  67.973  1.00  0.00    -0.146 A  
HETATM    4  C   UNL     1      -9.260  15.237  67.138  1.00  0.00    -0.209 A  
HETATM    5  N   UNL     1      -9.672  13.983  66.857  1.00  0.00    -0.262 NA 
HETATM    6  C   UNL     1      -9.001  12.943  67.416  1.00  0.00    -0.199 A  
HETATM    7  C   UNL     1      -7.927  13.145  68.273  1.00  0.00    -0.148 A  
HETATM    8  C   UNL     1      -7.523  14.454  68.551  1.00  0.00    -0.122 A  
BRANCH   6   9
HETATM    9  C   UNL     1      -9.500  11.547  67.092  1.00  0.00    -0.186 C  
BRANCH   9  10
HETATM   10  C   UNL     1      -8.756  10.530  67.957  1.00  0.00    -0.128 C  
BRANCH  10  11
HETATM   11  O   UNL     1      -9.587   9.483  68.474  1.00  0.00    -0.141 OA 
BRANCH  11  12
HETATM   12  C   UNL     1      -9.397   8.276  67.824  1.00  0.00    -0.138 A  
HETATM   13  C   UNL     1     -10.426   7.469  67.330  1.00  0.00    -0.367 A  
HETATM   14  C   UNL     1     -10.150   6.299  66.626  1.00  0.00    -0.214 A  
HETATM   15  C   UNL     1      -8.830   5.918  66.380  1.00  0.00    -0.134 A  
HETATM   16  C   UNL     1      -7.792   6.690  66.922  1.00  0.00    -0.108 A  
HETATM   17  C   UNL     1      -8.078   7.866  67.637  1.00  0.00    -0.124 A  
BRANCH  15  18
HETATM   18  C   UNL     1      -8.555   4.738  65.476  1.00  0.00    -0.131 C  
BRANCH  18  19
HETATM   19  C   UNL     1      -9.735   3.760  65.425  1.00  0.00    -0.157 C  
HETATM   20  S   UNL     1     -10.878   4.044  64.023  1.00  0.00     0.074 SA 
HETATM   21  C   UNL     1     -10.871   2.368  63.561  1.00  0.00    -0.153 C  
HETATM   22  N   UNL     1      -9.884   1.710  64.209  1.00  0.00    -0.273 N  
HETATM   23  O   UNL     1     -11.670   1.868  62.789  1.00  0.00    -0.288 OA 
HETATM   24  C   UNL     1      -9.274   2.328  65.260  1.00  0.00    -0.083 C  
HETATM   25  H   UNL     1      -9.601   0.774  63.920  1.00  0.00     0.000 HD 
HETATM   26  O   UNL     1      -8.500   1.754  66.013  1.00  0.00    -0.094 OA 
ENDBRANCH  18  19
ENDBRANCH  15  18
ENDBRANCH  11  12
ENDBRANCH  10  11
ENDBRANCH   9  10
ENDBRANCH   6   9
ENDBRANCH   2   3
TORSDOF 7
ENDMDL
MODEL      312
REMARK 921   NORMALIZED FREE ENERGY PREDICTED BY IDOCK:   -2.42 KCAL/MOL
REMARK 922        TOTAL FREE ENERGY PREDICTED BY IDOCK:   -4.55 KCAL/MOL
REMARK 923 INTER-LIGAND FREE ENERGY PREDICTED BY IDOCK:   -3.65 KCAL/MOL
REMARK 924 INTRA-LIGAND FREE ENERGY PREDICTED BY IDOCK:   -0.90 KCAL/MOL
REMARK 927      BINDING AFFINITY PREDICTED BY RF-SCORE:    0.00 PKD
ROOT
HETATM    1  C   UNL     1     -11.050  14.598  67.286  1.00  0.00    -0.331 C  
HETATM    2  C   UNL     1     -10.750  13.224  66.705  1.00  0.00    -0.279 C  
ENDROOT
BRANCH   2   3
HETATM    3  C   UNL     1      -9.306  12.850  66.875  1.00  0.00    -0.240 A  
HETATM    4  C   UNL     1      -8.802  11.687  66.316  1.00  0.00    -0.164 A  
HETATM    5  N   UNL     1      -7.525  11.275  66.457  1.00  0.00    -0.133 NA 
HETATM    6  C   UNL     1      -6.674  12.045  67.182  1.00  0.00    -0.136 A  
HETATM    7  C   UNL     1      -7.094  13.223  67.787  1.00  0.00    -0.149 A  
HETATM    8  C   UNL     1      -8.423  13.626  67.629  1.00  0.00    -0.183 A  
BRANCH   6   9
HETATM    9  C   UNL     1      -5.250  11.544  67.334  1.00  0.00    -0.061 C  
BRANCH   9  10
HETATM   10  C   UNL     1      -5.230  10.024  67.187  1.00  0.00    -0.041 C  
BRANCH  10  11
HETATM   11  O   UNL     1      -5.154   9.316  68.431  1.00  0.00    -0.034 OA 
BRANCH  11  12
HETATM   12  C   UNL     1      -6.312   8.617  68.722  1.00  0.00    -0.049 A  
HETATM   13  C   UNL     1      -6.796   7.536  67.979  1.00  0.00    -0.067 A  
HETATM   14  C   UNL     1      -7.934   6.840  68.377  1.00  0.00    -0.115 A  
HETATM   15  C   UNL     1      -8.609   7.197  69.546  1.00  0.00    -0.134 A  
HETATM   16  C   UNL     1      -8.165   8.316  70.265  1.00  0.00    -0.121 A  
HETATM   17  C   UNL     1      -7.019   9.018  69.855  1.00  0.00    -0.052 A  
BRANCH  15  18
HETATM   18  C   UNL     1      -9.741   6.328  70.044  1.00  0.00    -0.193 C  
BRANCH  18  19
HETATM   19  C   UNL     1      -9.344   5.511  71.280  1.00  0.00    -0.147 C  
HETATM   20  S   UNL     1     -10.108   6.095  72.837  1.00  0.00    -0.189 SA 
HETATM   21  C   UNL     1     -10.627   4.497  73.287  1.00  0.00    -0.216 C  
HETATM   22  N   UNL     1     -10.499   3.654  72.238  1.00  0.00    -0.071 N  
HETATM   23  O   UNL     1     -11.014   4.192  74.400  1.00  0.00    -0.201 OA 
HETATM   24  C   UNL     1      -9.773   4.065  71.160  1.00  0.00    -0.187 C  
HETATM   25  H   UNL     1     -10.936   2.732  72.251  1.00  0.00     0.000 HD 
HETATM   26  O   UNL     1      -9.454   3.316  70.246  1.00  0.00    -0.161 OA 
ENDBRANCH  18  19
ENDBRANCH  15  18
ENDBRANCH  11  12
ENDBRANCH  10  11
ENDBRANCH   9  10
ENDBRANCH   6   9
ENDBRANCH   2   3
TORSDOF 7
ENDMDL
MODEL      313
REMARK 921   NORMALIZED FREE ENERGY PREDICTED BY IDOCK:   -2.40 KCAL/MOL
REMARK 922        TOTAL FREE ENERGY PREDICTED BY IDOCK:   -4.53 KCAL/MOL
REMARK 923 INTER-LIGAND FREE ENERGY PREDICTED BY IDOCK:   -4.59 KCAL/MOL
REMARK 924 INTRA-LIGAND FREE ENERGY PREDICTED BY IDOCK:    0.07 KCAL/MOL
REMARK 927      BINDING AFFINITY PREDICTED BY RF-SCORE:    0.00 PKD
ROOT
HETATM    1  C   UNL     1     -10.194   4.253  65.067  1.00  0.00    -0.213 C  
HETATM    2  C   UNL     1     -10.479   5.165  66.251  1.00  0.00    -0.341 C  
ENDROOT
BRANCH   2   3
HETATM    3  C   UNL     1      -9.624   6.399  66.221  1.00  0.00    -0.106 A  
HETATM    4  C   UNL     1      -8.425   6.417  65.526  1.00  0.00    -0.139 A  
HETATM    5  N   UNL     1      -7.594   7.478  65.485  1.00  0.00    -0.088 NA 
HETATM    6  C   UNL     1      -7.949   8.604  66.155  1.00  0.00    -0.106 A  
HETATM    7  C   UNL     1      -9.128   8.675  66.886  1.00  0.00    -0.175 A  
HETATM    8  C   UNL     1      -9.971   7.560  66.916  1.00  0.00    -0.318 A  
BRANCH   6   9
HETATM    9  C   UNL     1      -6.984   9.773  66.101  1.00  0.00    -0.095 C  
BRANCH   9  10
HETATM   10  C   UNL     1      -7.568  10.949  66.881  1.00  0.00    -0.128 C  
BRANCH  10  11
HETATM   11  O   UNL     1      -6.649  11.557  67.798  1.00  0.00    -0.061 OA 
BRANCH  11  12
HETATM   12  C   UNL     1      -7.005  12.851  68.137  1.00  0.00    -0.102 A  
HETATM   13  C   UNL     1      -7.051  13.347  69.443  1.00  0.00     0.134 A  
HETATM   14  C   UNL     1      -7.354  14.682  69.697  1.00  0.00    -0.064 A  
HETATM   15  C   UNL     1      -7.600  15.564  68.643  1.00  0.00    -0.141 A  
HETATM   16  C   UNL     1      -7.615  15.063  67.334  1.00  0.00    -0.233 A  
HETATM   17  C   UNL     1      -7.314  13.712  67.084  1.00  0.00     0.133 A  
BRANCH  15  18
HETATM   18  C   UNL     1      -7.764  17.038  68.933  1.00  0.00    -0.231 C  
BRANCH  18  19
HETATM   19  C   UNL     1      -9.015  17.624  68.267  1.00  0.00    -0.276 C  
HETATM   20  S   UNL     1      -8.814  17.978  66.483  1.00  0.00    -0.233 SA 
HETATM   21  C   UNL     1     -10.293  17.166  66.063  1.00  0.00    -0.309 C  
HETATM   22  N   UNL     1     -10.745  16.448  67.116  1.00  0.00    -0.279 N  
HETATM   23  O   UNL     1     -10.846  17.268  64.983  1.00  0.00    -0.686 OA 
HETATM   24  C   UNL     1     -10.189  16.673  68.340  1.00  0.00    -0.284 C  
HETATM   25  H   UNL     1     -11.484  15.755  66.998  1.00  0.00     0.000 HD 
HETATM   26  O   UNL     1     -10.646  16.206  69.375  1.00  0.00    -0.254 OA 
ENDBRANCH  18  19
ENDBRANCH  15  18
ENDBRANCH  11  12
ENDBRANCH  10  11
ENDBRANCH   9  10
ENDBRANCH   6   9
ENDBRANCH   2   3
TORSDOF 7
ENDMDL
MODEL      314
REMARK 921   NORMALIZED FREE ENERGY PREDICTED BY IDOCK:   -2.39 KCAL/MOL
REMARK 922        TOTAL FREE ENERGY PREDICTED BY IDOCK:   -4.52 KCAL/MOL
REMARK 923 INTER-LIGAND FREE ENERGY PREDICTED BY IDOCK:   -3.37 KCAL/MOL
REMARK 924 INTRA-LIGAND FREE ENERGY PREDICTED BY IDOCK:   -1.15 KCAL/MOL
REMARK 927      BINDING AFFINITY PREDICTED BY RF-SCORE:    0.00 PKD
ROOT
HETATM    1  C   UNL     1      -9.929   5.434  67.995  1.00  0.00    -0.199 C  
HETATM    2  C   UNL     1     -10.174   6.415  69.132  1.00  0.00    -0.217 C  
ENDROOT
BRANCH   2   3
HETATM    3  C   UNL     1     -10.460   7.798  68.621  1.00  0.00    -0.199 A  
HETATM    4  C   UNL     1     -10.503   8.059  67.261  1.00  0.00    -0.314 A  
HETATM    5  N   UNL     1     -10.720   9.281  66.735  1.00  0.00    -0.125 NA 
HETATM    6  C   UNL     1     -10.918  10.324  67.582  1.00  0.00    -0.294 A  
HETATM    7  C   UNL     1     -10.883  10.159  68.961  1.00  0.00    -0.257 A  
HETATM    8  C   UNL     1     -10.651   8.882  69.481  1.00  0.00    -0.233 A  
BRANCH   6   9
HETATM    9  C   UNL     1     -11.144  11.688  66.957  1.00  0.00    -0.359 C  
BRANCH   9  10
HETATM   10  C   UNL     1     -10.480  12.758  67.822  1.00  0.00    -0.223 C  
BRANCH  10  11
HETATM   11  O   UNL     1      -9.185  13.164  67.359  1.00  0.00    -0.195 OA 
BRANCH  11  12
HETATM   12  C   UNL     1      -8.226  12.178  67.515  1.00  0.00    -0.167 A  
HETATM   13  C   UNL     1      -7.696  11.772  68.743  1.00  0.00    -0.091 A  
HETATM   14  C   UNL     1      -6.782  10.725  68.823  1.00  0.00    -0.060 A  
HETATM   15  C   UNL     1      -6.389  10.041  67.671  1.00  0.00    -0.059 A  
HETATM   16  C   UNL     1      -6.869  10.480  66.429  1.00  0.00    -0.119 A  
HETATM   17  C   UNL     1      -7.787  11.542  66.355  1.00  0.00    -0.020 A  
BRANCH  15  18
HETATM   18  C   UNL     1      -5.526   8.806  67.800  1.00  0.00    -0.035 C  
BRANCH  18  19
HETATM   19  C   UNL     1      -6.354   7.547  68.080  1.00  0.00    -0.048 C  
HETATM   20  S   UNL     1      -5.664   6.021  67.341  1.00  0.00    -0.017 SA 
HETATM   21  C   UNL     1      -5.805   5.130  68.829  1.00  0.00    -0.020 C  
HETATM   22  N   UNL     1      -6.068   5.973  69.852  1.00  0.00    -0.025 N  
HETATM   23  O   UNL     1      -5.710   3.919  68.911  1.00  0.00    -0.020 OA 
HETATM   24  C   UNL     1      -6.444   7.249  69.561  1.00  0.00    -0.036 C  
HETATM   25  H   UNL     1      -5.987   5.661  70.820  1.00  0.00     0.000 HD 
HETATM   26  O   UNL     1      -6.870   8.028  70.404  1.00  0.00    -0.037 OA 
ENDBRANCH  18  19
ENDBRANCH  15  18
ENDBRANCH  11  12
ENDBRANCH  10  11
ENDBRANCH   9  10
ENDBRANCH   6   9
ENDBRANCH   2   3
TORSDOF 7
ENDMDL
MODEL      315
REMARK 921   NORMALIZED FREE ENERGY PREDICTED BY IDOCK:   -2.37 KCAL/MOL
REMARK 922        TOTAL FREE ENERGY PREDICTED BY IDOCK:   -4.48 KCAL/MOL
REMARK 923 INTER-LIGAND FREE ENERGY PREDICTED BY IDOCK:   -3.88 KCAL/MOL
REMARK 924 INTRA-LIGAND FREE ENERGY PREDICTED BY IDOCK:   -0.60 KCAL/MOL
REMARK 927      BINDING AFFINITY PREDICTED BY RF-SCORE:    0.00 PKD
ROOT
HETATM    1  C   UNL     1     -11.549  15.650  64.061  1.00  0.00     0.079 C  
HETATM    2  C   UNL     1     -10.839  16.467  65.130  1.00  0.00    -0.289 C  
ENDROOT
BRANCH   2   3
HETATM    3  C   UNL     1      -9.990  15.603  66.018  1.00  0.00    -0.359 A  
HETATM    4  C   UNL     1      -8.717  16.003  66.391  1.00  0.00    -0.327 A  
HETATM    5  N   UNL     1      -7.890  15.262  67.157  1.00  0.00    -0.209 NA 
HETATM    6  C   UNL     1      -8.326  14.055  67.600  1.00  0.00    -0.187 A  
HETATM    7  C   UNL     1      -9.585  13.569  67.268  1.00  0.00    -0.235 A  
HETATM    8  C   UNL     1     -10.421  14.354  66.469  1.00  0.00    -0.289 A  
BRANCH   6   9
HETATM    9  C   UNL     1      -7.365  13.241  68.446  1.00  0.00    -0.112 C  
BRANCH   9  10
HETATM   10  C   UNL     1      -7.888  11.812  68.575  1.00  0.00    -0.144 C  
BRANCH  10  11
HETATM   11  O   UNL     1      -6.862  10.826  68.745  1.00  0.00    -0.060 OA 
BRANCH  11  12
HETATM   12  C   UNL     1      -7.358   9.599  69.152  1.00  0.00    -0.077 A  
HETATM   13  C   UNL     1      -8.659   9.148  68.911  1.00  0.00    -0.131 A  
HETATM   14  C   UNL     1      -9.062   7.872  69.294  1.00  0.00    -0.148 A  
HETATM   15  C   UNL     1      -8.162   7.003  69.914  1.00  0.00    -0.130 A  
HETATM   16  C   UNL     1      -6.873   7.467  70.213  1.00  0.00    -0.047 A  
HETATM   17  C   UNL     1      -6.474   8.759  69.828  1.00  0.00    -0.038 A  
BRANCH  15  18
HETATM   18  C   UNL     1      -8.571   5.570  70.171  1.00  0.00    -0.122 C  
BRANCH  18  19
HETATM   19  C   UNL     1      -8.469   5.196  71.655  1.00  0.00    -0.125 C  
HETATM   20  S   UNL     1      -9.697   6.035  72.722  1.00  0.00    -0.155 SA 
HETATM   21  C   UNL     1     -10.171   4.551  73.495  1.00  0.00    -0.172 C  
HETATM   22  N   UNL     1      -9.670   3.493  72.819  1.00  0.00    -0.129 N  
HETATM   23  O   UNL     1     -10.830   4.493  74.518  1.00  0.00    -0.324 OA 
HETATM   24  C   UNL     1      -8.708   3.719  71.881  1.00  0.00    -0.095 C  
HETATM   25  H   UNL     1     -10.005   2.547  73.006  1.00  0.00     0.000 HD 
HETATM   26  O   UNL     1      -8.074   2.820  71.346  1.00  0.00    -0.056 OA 
ENDBRANCH  18  19
ENDBRANCH  15  18
ENDBRANCH  11  12
ENDBRANCH  10  11
ENDBRANCH   9  10
ENDBRANCH   6   9
ENDBRANCH   2   3
TORSDOF 7
ENDMDL
MODEL      316
REMARK 921   NORMALIZED FREE ENERGY PREDICTED BY IDOCK:   -2.36 KCAL/MOL
REMARK 922        TOTAL FREE ENERGY PREDICTED BY IDOCK:   -4.47 KCAL/MOL
REMARK 923 INTER-LIGAND FREE ENERGY PREDICTED BY IDOCK:   -4.35 KCAL/MOL
REMARK 924 INTRA-LIGAND FREE ENERGY PREDICTED BY IDOCK:   -0.11 KCAL/MOL
REMARK 927      BINDING AFFINITY PREDICTED BY RF-SCORE:    0.00 PKD
ROOT
HETATM    1  C   UNL     1      -7.544   4.027  70.546  1.00  0.00    -0.045 C  
HETATM    2  C   UNL     1      -8.580   4.967  71.144  1.00  0.00    -0.131 C  
ENDROOT
BRANCH   2   3
HETATM    3  C   UNL     1      -8.480   6.348  70.562  1.00  0.00    -0.138 A  
HETATM    4  C   UNL     1      -7.648   6.606  69.485  1.00  0.00    -0.095 A  
HETATM    5  N   UNL     1      -7.484   7.827  68.934  1.00  0.00    -0.093 NA 
HETATM    6  C   UNL     1      -8.181   8.869  69.456  1.00  0.00    -0.107 A  
HETATM    7  C   UNL     1      -9.032   8.706  70.543  1.00  0.00    -0.185 A  
HETATM    8  C   UNL     1      -9.179   7.431  71.097  1.00  0.00    -0.155 A  
BRANCH   6   9
HETATM    9  C   UNL     1      -7.962  10.231  68.824  1.00  0.00    -0.113 C  
BRANCH   9  10
HETATM   10  C   UNL     1      -6.690  10.198  67.979  1.00  0.00    -0.063 C  
BRANCH  10  11
HETATM   11  O   UNL     1      -6.000  11.453  67.910  1.00  0.00    -0.043 OA 
BRANCH  11  12
HETATM   12  C   UNL     1      -6.860  12.533  67.806  1.00  0.00    -0.120 A  
HETATM   13  C   UNL     1      -6.706  13.739  68.494  1.00  0.00    -0.094 A  
HETATM   14  C   UNL     1      -7.577  14.805  68.282  1.00  0.00    -0.115 A  
HETATM   15  C   UNL     1      -8.617  14.696  67.357  1.00  0.00    -0.212 A  
HETATM   16  C   UNL     1      -8.814  13.469  66.707  1.00  0.00    -0.146 A  
HETATM   17  C   UNL     1      -7.935  12.396  66.929  1.00  0.00    -0.041 A  
BRANCH  15  18
HETATM   18  C   UNL     1      -9.446  15.915  67.025  1.00  0.00    -0.234 C  
BRANCH  18  19
HETATM   19  C   UNL     1      -9.056  17.130  67.876  1.00  0.00    -0.230 C  
HETATM   20  S   UNL     1      -8.749  18.652  66.907  1.00  0.00    -0.295 SA 
HETATM   21  C   UNL     1      -9.765  19.619  67.935  1.00  0.00    -0.374 C  
HETATM   22  N   UNL     1     -10.494  18.824  68.750  1.00  0.00    -0.412 N  
HETATM   23  O   UNL     1      -9.779  20.837  67.932  1.00  0.00    -0.248 OA 
HETATM   24  C   UNL     1     -10.150  17.510  68.850  1.00  0.00    -0.346 C  
HETATM   25  H   UNL     1     -11.283  19.199  69.277  1.00  0.00     0.000 HD 
HETATM   26  O   UNL     1     -10.632  16.757  69.686  1.00  0.00    -0.319 OA 
ENDBRANCH  18  19
ENDBRANCH  15  18
ENDBRANCH  11  12
ENDBRANCH  10  11
ENDBRANCH   9  10
ENDBRANCH   6   9
ENDBRANCH   2   3
TORSDOF 7
ENDMDL
MODEL      317
REMARK 921   NORMALIZED FREE ENERGY PREDICTED BY IDOCK:   -2.35 KCAL/MOL
REMARK 922        TOTAL FREE ENERGY PREDICTED BY IDOCK:   -4.46 KCAL/MOL
REMARK 923 INTER-LIGAND FREE ENERGY PREDICTED BY IDOCK:   -4.06 KCAL/MOL
REMARK 924 INTRA-LIGAND FREE ENERGY PREDICTED BY IDOCK:   -0.40 KCAL/MOL
REMARK 927      BINDING AFFINITY PREDICTED BY RF-SCORE:    0.00 PKD
ROOT
HETATM    1  C   UNL     1     -12.469  14.533  64.557  1.00  0.00    -0.346 C  
HETATM    2  C   UNL     1     -11.208  15.323  64.877  1.00  0.00    -0.422 C  
ENDROOT
BRANCH   2   3
HETATM    3  C   UNL     1     -10.227  14.509  65.670  1.00  0.00    -0.379 A  
HETATM    4  C   UNL     1      -9.283  15.122  66.478  1.00  0.00    -0.287 A  
HETATM    5  N   UNL     1      -8.353  14.454  67.190  1.00  0.00    -0.206 NA 
HETATM    6  C   UNL     1      -8.339  13.098  67.124  1.00  0.00    -0.140 A  
HETATM    7  C   UNL     1      -9.241  12.398  66.333  1.00  0.00    -0.192 A  
HETATM    8  C   UNL     1     -10.193  13.114  65.601  1.00  0.00    -0.294 A  
BRANCH   6   9
HETATM    9  C   UNL     1      -7.269  12.379  67.924  1.00  0.00    -0.110 C  
BRANCH   9  10
HETATM   10  C   UNL     1      -7.444  10.870  67.763  1.00  0.00    -0.094 C  
BRANCH  10  11
HETATM   11  O   UNL     1      -6.349  10.096  68.270  1.00  0.00    -0.049 OA 
BRANCH  11  12
HETATM   12  C   UNL     1      -6.711   9.283  69.330  1.00  0.00    -0.048 A  
HETATM   13  C   UNL     1      -7.412   9.716  70.460  1.00  0.00    -0.147 A  
HETATM   14  C   UNL     1      -7.800   8.821  71.454  1.00  0.00    -0.166 A  
HETATM   15  C   UNL     1      -7.511   7.460  71.331  1.00  0.00    -0.080 A  
HETATM   16  C   UNL     1      -6.757   7.027  70.232  1.00  0.00    -0.052 A  
HETATM   17  C   UNL     1      -6.364   7.937  69.234  1.00  0.00    -0.035 A  
BRANCH  15  18
HETATM   18  C   UNL     1      -8.082   6.488  72.337  1.00  0.00    -0.101 C  
BRANCH  18  19
HETATM   19  C   UNL     1      -9.356   5.805  71.825  1.00  0.00    -0.148 C  
HETATM   20  S   UNL     1     -10.366   6.850  70.712  1.00  0.00    -0.204 SA 
HETATM   21  C   UNL     1     -10.512   5.595  69.517  1.00  0.00    -0.302 C  
HETATM   22  N   UNL     1      -9.647   4.592  69.789  1.00  0.00    -0.181 N  
HETATM   23  O   UNL     1     -11.307   5.617  68.596  1.00  0.00     0.132 OA 
HETATM   24  C   UNL     1      -9.044   4.568  71.011  1.00  0.00    -0.132 C  
HETATM   25  H   UNL     1      -9.449   3.870  69.096  1.00  0.00     0.000 HD 
HETATM   26  O   UNL     1      -8.389   3.616  71.412  1.00  0.00    -0.070 OA 
ENDBRANCH  18  19
ENDBRANCH  15  18
ENDBRANCH  11  12
ENDBRANCH  10  11
ENDBRANCH   9  10
ENDBRANCH   6   9
ENDBRANCH   2   3
TORSDOF 7
ENDMDL
MODEL      318
REMARK 921   NORMALIZED FREE ENERGY PREDICTED BY IDOCK:   -2.33 KCAL/MOL
REMARK 922        TOTAL FREE ENERGY PREDICTED BY IDOCK:   -4.43 KCAL/MOL
REMARK 923 INTER-LIGAND FREE ENERGY PREDICTED BY IDOCK:   -3.72 KCAL/MOL
REMARK 924 INTRA-LIGAND FREE ENERGY PREDICTED BY IDOCK:   -0.71 KCAL/MOL
REMARK 927      BINDING AFFINITY PREDICTED BY RF-SCORE:    0.00 PKD
ROOT
HETATM    1  C   UNL     1      -5.540   8.091  63.331  1.00  0.00    -0.054 C  
HETATM    2  C   UNL     1      -6.083   9.501  63.148  1.00  0.00    -0.097 C  
ENDROOT
BRANCH   2   3
HETATM    3  C   UNL     1      -7.132   9.830  64.170  1.00  0.00    -0.126 A  
HETATM    4  C   UNL     1      -6.802  10.501  65.337  1.00  0.00    -0.078 A  
HETATM    5  N   UNL     1      -7.687  10.798  66.311  1.00  0.00    -0.143 NA 
HETATM    6  C   UNL     1      -8.983  10.428  66.142  1.00  0.00    -0.157 A  
HETATM    7  C   UNL     1      -9.403   9.744  65.008  1.00  0.00    -0.325 A  
HETATM    8  C   UNL     1      -8.465   9.444  64.016  1.00  0.00    -0.203 A  
BRANCH   6   9
HETATM    9  C   UNL     1      -9.948  10.764  67.263  1.00  0.00    -0.219 C  
BRANCH   9  10
HETATM   10  C   UNL     1      -9.250  10.569  68.608  1.00  0.00    -0.172 C  
BRANCH  10  11
HETATM   11  O   UNL     1     -10.143  10.326  69.702  1.00  0.00    -0.230 OA 
BRANCH  11  12
HETATM   12  C   UNL     1     -10.161   8.999  70.096  1.00  0.00    -0.193 A  
HETATM   13  C   UNL     1     -10.690   7.952  69.338  1.00  0.00    -0.174 A  
HETATM   14  C   UNL     1     -10.608   6.632  69.775  1.00  0.00    -0.270 A  
HETATM   15  C   UNL     1      -9.973   6.325  70.980  1.00  0.00    -0.213 A  
HETATM   16  C   UNL     1      -9.492   7.375  71.775  1.00  0.00    -0.166 A  
HETATM   17  C   UNL     1      -9.583   8.705  71.331  1.00  0.00    -0.313 A  
BRANCH  15  18
HETATM   18  C   UNL     1      -9.752   4.877  71.353  1.00  0.00    -0.237 C  
BRANCH  18  19
HETATM   19  C   UNL     1      -8.302   4.602  71.771  1.00  0.00    -0.109 C  
HETATM   20  S   UNL     1      -8.143   3.613  73.304  1.00  0.00    -0.080 SA 
HETATM   21  C   UNL     1      -7.003   2.515  72.584  1.00  0.00    -0.027 C  
HETATM   22  N   UNL     1      -6.966   2.694  71.244  1.00  0.00    -0.031 N  
HETATM   23  O   UNL     1      -6.320   1.728  73.214  1.00  0.00    -0.011 OA 
HETATM   24  C   UNL     1      -7.555   3.807  70.723  1.00  0.00    -0.041 C  
HETATM   25  H   UNL     1      -6.509   2.013  70.638  1.00  0.00     0.000 HD 
HETATM   26  O   UNL     1      -7.423   4.145  69.554  1.00  0.00    -0.053 OA 
ENDBRANCH  18  19
ENDBRANCH  15  18
ENDBRANCH  11  12
ENDBRANCH  10  11
ENDBRANCH   9  10
ENDBRANCH   6   9
ENDBRANCH   2   3
TORSDOF 7
ENDMDL
MODEL      319
REMARK 921   NORMALIZED FREE ENERGY PREDICTED BY IDOCK:   -2.29 KCAL/MOL
REMARK 922        TOTAL FREE ENERGY PREDICTED BY IDOCK:   -4.37 KCAL/MOL
REMARK 923 INTER-LIGAND FREE ENERGY PREDICTED BY IDOCK:   -4.19 KCAL/MOL
REMARK 924 INTRA-LIGAND FREE ENERGY PREDICTED BY IDOCK:   -0.18 KCAL/MOL
REMARK 927      BINDING AFFINITY PREDICTED BY RF-SCORE:    0.00 PKD
ROOT
HETATM    1  C   UNL     1      -7.869  18.931  67.623  1.00  0.00    -0.265 C  
HETATM    2  C   UNL     1      -6.992  18.107  66.692  1.00  0.00    -0.243 C  
ENDROOT
BRANCH   2   3
HETATM    3  C   UNL     1      -6.834  16.696  67.180  1.00  0.00    -0.223 A  
HETATM    4  C   UNL     1      -5.621  16.248  67.679  1.00  0.00    -0.145 A  
HETATM    5  N   UNL     1      -5.401  14.986  68.102  1.00  0.00    -0.112 NA 
HETATM    6  C   UNL     1      -6.426  14.098  68.046  1.00  0.00    -0.149 A  
HETATM    7  C   UNL     1      -7.674  14.455  67.552  1.00  0.00    -0.210 A  
HETATM    8  C   UNL     1      -7.875  15.768  67.116  1.00  0.00    -0.247 A  
BRANCH   6   9
HETATM    9  C   UNL     1      -6.139  12.683  68.515  1.00  0.00    -0.062 C  
BRANCH   9  10
HETATM   10  C   UNL     1      -5.305  11.960  67.459  1.00  0.00    -0.084 C  
BRANCH  10  11
HETATM   11  O   UNL     1      -6.033  10.982  66.706  1.00  0.00    -0.073 OA 
BRANCH  11  12
HETATM   12  C   UNL     1      -7.313  10.776  67.190  1.00  0.00    -0.101 A  
HETATM   13  C   UNL     1      -8.485  11.093  66.498  1.00  0.00    -0.165 A  
HETATM   14  C   UNL     1      -9.738  10.791  67.026  1.00  0.00    -0.205 A  
HETATM   15  C   UNL     1      -9.849  10.143  68.257  1.00  0.00    -0.162 A  
HETATM   16  C   UNL     1      -8.682   9.876  68.986  1.00  0.00    -0.151 A  
HETATM   17  C   UNL     1      -7.420  10.188  68.450  1.00  0.00    -0.086 A  
BRANCH  15  18
HETATM   18  C   UNL     1     -11.208   9.680  68.732  1.00  0.00    -0.011 C  
BRANCH  18  19
HETATM   19  C   UNL     1     -11.158   9.098  70.150  1.00  0.00    -0.222 C  
HETATM   20  S   UNL     1     -12.464   9.735  71.263  1.00  0.00    -0.392 SA 
HETATM   21  C   UNL     1     -12.917   8.141  71.791  1.00  0.00    -0.342 C  
HETATM   22  N   UNL     1     -12.347   7.208  70.996  1.00  0.00    -0.465 N  
HETATM   23  O   UNL     1     -13.619   7.916  72.761  1.00  0.00     0.280 OA 
HETATM   24  C   UNL     1     -11.353   7.597  70.150  1.00  0.00    -0.132 C  
HETATM   25  H   UNL     1     -12.654   6.236  71.028  1.00  0.00     0.000 HD 
HETATM   26  O   UNL     1     -10.662   6.804  69.524  1.00  0.00    -0.226 OA 
ENDBRANCH  18  19
ENDBRANCH  15  18
ENDBRANCH  11  12
ENDBRANCH  10  11
ENDBRANCH   9  10
ENDBRANCH   6   9
ENDBRANCH   2   3
TORSDOF 7
ENDMDL
MODEL      320
REMARK 921   NORMALIZED FREE ENERGY PREDICTED BY IDOCK:   -2.25 KCAL/MOL
REMARK 922        TOTAL FREE ENERGY PREDICTED BY IDOCK:   -4.32 KCAL/MOL
REMARK 923 INTER-LIGAND FREE ENERGY PREDICTED BY IDOCK:   -3.99 KCAL/MOL
REMARK 924 INTRA-LIGAND FREE ENERGY PREDICTED BY IDOCK:   -0.33 KCAL/MOL
REMARK 927      BINDING AFFINITY PREDICTED BY RF-SCORE:    0.00 PKD
ROOT
HETATM    1  C   UNL     1     -12.552  15.762  70.236  1.00  0.00    -0.226 C  
HETATM    2  C   UNL     1     -11.356  15.442  69.352  1.00  0.00    -0.315 C  
ENDROOT
BRANCH   2   3
HETATM    3  C   UNL     1     -11.176  13.962  69.174  1.00  0.00    -0.311 A  
HETATM    4  C   UNL     1     -12.131  13.069  69.633  1.00  0.00    -0.241 A  
HETATM    5  N   UNL     1     -12.017  11.729  69.537  1.00  0.00    -0.309 NA 
HETATM    6  C   UNL     1     -10.906  11.215  68.948  1.00  0.00    -0.216 A  
HETATM    7  C   UNL     1      -9.892  12.033  68.467  1.00  0.00    -0.177 A  
HETATM    8  C   UNL     1     -10.033  13.419  68.583  1.00  0.00    -0.139 A  
BRANCH   6   9
HETATM    9  C   UNL     1     -10.803   9.703  68.871  1.00  0.00    -0.201 C  
BRANCH   9  10
HETATM   10  C   UNL     1      -9.395   9.271  69.274  1.00  0.00    -0.160 C  
BRANCH  10  11
HETATM   11  O   UNL     1      -8.724   8.472  68.290  1.00  0.00    -0.140 OA 
BRANCH  11  12
HETATM   12  C   UNL     1      -8.761   9.034  67.026  1.00  0.00    -0.116 A  
HETATM   13  C   UNL     1      -9.842   8.938  66.145  1.00  0.00    -0.326 A  
HETATM   14  C   UNL     1      -9.829   9.591  64.915  1.00  0.00     0.072 A  
HETATM   15  C   UNL     1      -8.736  10.376  64.543  1.00  0.00    -0.205 A  
HETATM   16  C   UNL     1      -7.623  10.429  65.394  1.00  0.00    -0.131 A  
HETATM   17  C   UNL     1      -7.640   9.764  66.632  1.00  0.00    -0.098 A  
BRANCH  15  18
HETATM   18  C   UNL     1      -8.813  11.204  63.280  1.00  0.00    -0.068 C  
BRANCH  18  19
HETATM   19  C   UNL     1      -9.955  12.227  63.327  1.00  0.00    -0.039 C  
HETATM   20  S   UNL     1     -11.604  11.522  62.962  1.00  0.00     0.559 SA 
HETATM   21  C   UNL     1     -12.329  12.265  64.357  1.00  0.00    -0.404 C  
HETATM   22  N   UNL     1     -11.371  12.753  65.176  1.00  0.00    -0.302 N  
HETATM   23  O   UNL     1     -13.530  12.355  64.537  1.00  0.00    -0.668 OA 
HETATM   24  C   UNL     1     -10.098  12.848  64.699  1.00  0.00    -0.231 C  
HETATM   25  H   UNL     1     -11.595  13.043  66.128  1.00  0.00     0.000 HD 
HETATM   26  O   UNL     1      -9.205  13.435  65.296  1.00  0.00     0.407 OA 
ENDBRANCH  18  19
ENDBRANCH  15  18
ENDBRANCH  11  12
ENDBRANCH  10  11
ENDBRANCH   9  10
ENDBRANCH   6   9
ENDBRANCH   2   3
TORSDOF 7
ENDMDL
MODEL      321
REMARK 921   NORMALIZED FREE ENERGY PREDICTED BY IDOCK:   -2.18 KCAL/MOL
REMARK 922        TOTAL FREE ENERGY PREDICTED BY IDOCK:   -4.22 KCAL/MOL
REMARK 923 INTER-LIGAND FREE ENERGY PREDICTED BY IDOCK:   -3.84 KCAL/MOL
REMARK 924 INTRA-LIGAND FREE ENERGY PREDICTED BY IDOCK:   -0.38 KCAL/MOL
REMARK 927      BINDING AFFINITY PREDICTED BY RF-SCORE:    0.00 PKD
ROOT
HETATM    1  C   UNL     1     -12.657  13.999  65.203  1.00  0.00    -0.453 C  
HETATM    2  C   UNL     1     -12.328  12.513  65.174  1.00  0.00    -0.496 C  
ENDROOT
BRANCH   2   3
HETATM    3  C   UNL     1     -11.010  12.222  65.832  1.00  0.00    -0.338 A  
HETATM    4  C   UNL     1     -10.109  11.338  65.259  1.00  0.00    -0.267 A  
HETATM    5  N   UNL     1      -8.925  11.006  65.812  1.00  0.00    -0.193 NA 
HETATM    6  C   UNL     1      -8.583  11.574  66.997  1.00  0.00    -0.161 A  
HETATM    7  C   UNL     1      -9.428  12.463  67.649  1.00  0.00    -0.190 A  
HETATM    8  C   UNL     1     -10.651  12.788  67.057  1.00  0.00    -0.253 A  
BRANCH   6   9
HETATM    9  C   UNL     1      -7.251  11.166  67.599  1.00  0.00    -0.094 C  
BRANCH   9  10
HETATM   10  C   UNL     1      -6.645  10.037  66.768  1.00  0.00    -0.072 C  
BRANCH  10  11
HETATM   11  O   UNL     1      -6.680   8.755  67.408  1.00  0.00    -0.064 OA 
BRANCH  11  12
HETATM   12  C   UNL     1      -7.231   7.769  66.607  1.00  0.00    -0.087 A  
HETATM   13  C   UNL     1      -6.588   7.181  65.514  1.00  0.00    -0.048 A  
HETATM   14  C   UNL     1      -7.184   6.146  64.799  1.00  0.00    -0.063 A  
HETATM   15  C   UNL     1      -8.437   5.658  65.173  1.00  0.00    -0.144 A  
HETATM   16  C   UNL     1      -9.115   6.281  66.230  1.00  0.00    -0.166 A  
HETATM   17  C   UNL     1      -8.510   7.330  66.945  1.00  0.00    -0.119 A  
BRANCH  15  18
HETATM   18  C   UNL     1      -8.990   4.430  64.487  1.00  0.00    -0.151 C  
BRANCH  18  19
HETATM   19  C   UNL     1      -8.366   3.136  65.024  1.00  0.00    -0.095 C  
HETATM   20  S   UNL     1      -6.560   3.011  64.754  1.00  0.00    -0.040 SA 
HETATM   21  C   UNL     1      -6.254   2.566  66.407  1.00  0.00    -0.024 C  
HETATM   22  N   UNL     1      -7.359   2.774  67.158  1.00  0.00    -0.057 N  
HETATM   23  O   UNL     1      -5.201   2.102  66.806  1.00  0.00    -0.008 OA 
HETATM   24  C   UNL     1      -8.541   3.005  66.521  1.00  0.00    -0.117 C  
HETATM   25  H   UNL     1      -7.309   2.760  68.177  1.00  0.00     0.000 HD 
HETATM   26  O   UNL     1      -9.617   3.030  67.103  1.00  0.00    -0.137 OA 
ENDBRANCH  18  19
ENDBRANCH  15  18
ENDBRANCH  11  12
ENDBRANCH  10  11
ENDBRANCH   9  10
ENDBRANCH   6   9
ENDBRANCH   2   3
TORSDOF 7
ENDMDL
MODEL      322
REMARK 921   NORMALIZED FREE ENERGY PREDICTED BY IDOCK:   -2.14 KCAL/MOL
REMARK 922        TOTAL FREE ENERGY PREDICTED BY IDOCK:   -4.16 KCAL/MOL
REMARK 923 INTER-LIGAND FREE ENERGY PREDICTED BY IDOCK:   -3.59 KCAL/MOL
REMARK 924 INTRA-LIGAND FREE ENERGY PREDICTED BY IDOCK:   -0.57 KCAL/MOL
REMARK 927      BINDING AFFINITY PREDICTED BY RF-SCORE:    0.00 PKD
ROOT
HETATM    1  C   UNL     1     -11.412  15.838  64.319  1.00  0.00    -0.203 C  
HETATM    2  C   UNL     1     -10.804  16.520  65.536  1.00  0.00    -0.196 C  
ENDROOT
BRANCH   2   3
HETATM    3  C   UNL     1      -9.934  15.582  66.323  1.00  0.00    -0.313 A  
HETATM    4  C   UNL     1      -8.643  15.938  66.676  1.00  0.00    -0.285 A  
HETATM    5  N   UNL     1      -7.797  15.132  67.350  1.00  0.00    -0.182 NA 
HETATM    6  C   UNL     1      -8.233  13.899  67.717  1.00  0.00    -0.173 A  
HETATM    7  C   UNL     1      -9.510  13.454  67.398  1.00  0.00    -0.222 A  
HETATM    8  C   UNL     1     -10.365  14.306  66.694  1.00  0.00    -0.279 A  
BRANCH   6   9
HETATM    9  C   UNL     1      -7.251  13.013  68.461  1.00  0.00    -0.104 C  
BRANCH   9  10
HETATM   10  C   UNL     1      -7.620  11.548  68.236  1.00  0.00    -0.115 C  
BRANCH  10  11
HETATM   11  O   UNL     1      -6.534  10.634  68.433  1.00  0.00    -0.054 OA 
BRANCH  11  12
HETATM   12  C   UNL     1      -6.951   9.393  68.882  1.00  0.00    -0.063 A  
HETATM   13  C   UNL     1      -6.095   8.349  69.243  1.00  0.00    -0.038 A  
HETATM   14  C   UNL     1      -6.592   7.152  69.752  1.00  0.00    -0.044 A  
HETATM   15  C   UNL     1      -7.965   6.976  69.931  1.00  0.00    -0.123 A  
HETATM   16  C   UNL     1      -8.835   7.995  69.516  1.00  0.00    -0.144 A  
HETATM   17  C   UNL     1      -8.327   9.199  68.998  1.00  0.00    -0.127 A  
BRANCH  15  18
HETATM   18  C   UNL     1      -8.468   5.737  70.635  1.00  0.00    -0.128 C  
BRANCH  18  19
HETATM   19  C   UNL     1      -9.285   4.833  69.704  1.00  0.00    -0.122 C  
HETATM   20  S   UNL     1      -8.449   4.443  68.122  1.00  0.00    -0.095 SA 
HETATM   21  C   UNL     1      -8.761   2.739  68.274  1.00  0.00    -0.101 C  
HETATM   22  N   UNL     1      -9.190   2.454  69.524  1.00  0.00    -0.119 N  
HETATM   23  O   UNL     1      -8.638   1.938  67.365  1.00  0.00    -0.078 OA 
HETATM   24  C   UNL     1      -9.566   3.485  70.331  1.00  0.00    -0.171 C  
HETATM   25  H   UNL     1      -9.231   1.490  69.855  1.00  0.00     0.000 HD 
HETATM   26  O   UNL     1     -10.129   3.319  71.405  1.00  0.00    -0.114 OA 
ENDBRANCH  18  19
ENDBRANCH  15  18
ENDBRANCH  11  12
ENDBRANCH  10  11
ENDBRANCH   9  10
ENDBRANCH   6   9
ENDBRANCH   2   3
TORSDOF 7
ENDMDL
MODEL      323
REMARK 921   NORMALIZED FREE ENERGY PREDICTED BY IDOCK:   -2.11 KCAL/MOL
REMARK 922        TOTAL FREE ENERGY PREDICTED BY IDOCK:   -4.12 KCAL/MOL
REMARK 923 INTER-LIGAND FREE ENERGY PREDICTED BY IDOCK:   -3.59 KCAL/MOL
REMARK 924 INTRA-LIGAND FREE ENERGY PREDICTED BY IDOCK:   -0.53 KCAL/MOL
REMARK 927      BINDING AFFINITY PREDICTED BY RF-SCORE:    0.00 PKD
ROOT
HETATM    1  C   UNL     1     -12.569  14.377  65.470  1.00  0.00    -0.345 C  
HETATM    2  C   UNL     1     -11.404  14.282  66.445  1.00  0.00    -0.346 C  
ENDROOT
BRANCH   2   3
HETATM    3  C   UNL     1     -11.162  12.868  66.886  1.00  0.00    -0.331 A  
HETATM    4  C   UNL     1     -10.433  11.992  66.097  1.00  0.00    -0.236 A  
HETATM    5  N   UNL     1     -10.206  10.701  66.416  1.00  0.00    -0.228 NA 
HETATM    6  C   UNL     1     -10.712  10.225  67.583  1.00  0.00    -0.288 A  
HETATM    7  C   UNL     1     -11.463  11.028  68.432  1.00  0.00    -0.378 A  
HETATM    8  C   UNL     1     -11.687  12.361  68.076  1.00  0.00    -0.414 A  
BRANCH   6   9
HETATM    9  C   UNL     1     -10.452   8.765  67.903  1.00  0.00    -0.275 C  
BRANCH   9  10
HETATM   10  C   UNL     1     -11.115   7.889  66.842  1.00  0.00     0.553 C  
BRANCH  10  11
HETATM   11  O   UNL     1     -11.202   6.503  67.198  1.00  0.00    -0.388 OA 
BRANCH  11  12
HETATM   12  C   UNL     1      -9.963   5.890  67.278  1.00  0.00    -0.153 A  
HETATM   13  C   UNL     1      -8.978   5.957  66.288  1.00  0.00    -0.153 A  
HETATM   14  C   UNL     1      -7.730   5.368  66.473  1.00  0.00    -0.099 A  
HETATM   15  C   UNL     1      -7.428   4.712  67.668  1.00  0.00    -0.078 A  
HETATM   16  C   UNL     1      -8.429   4.588  68.641  1.00  0.00    -0.093 A  
HETATM   17  C   UNL     1      -9.690   5.180  68.446  1.00  0.00    -0.200 A  
BRANCH  15  18
HETATM   18  C   UNL     1      -6.017   4.225  67.911  1.00  0.00    -0.027 C  
BRANCH  18  19
HETATM   19  C   UNL     1      -5.223   5.178  68.812  1.00  0.00     0.000 C  
HETATM   20  S   UNL     1      -5.629   6.946  68.569  1.00  0.00    -0.018 SA 
HETATM   21  C   UNL     1      -5.820   7.229  70.274  1.00  0.00    -0.024 C  
HETATM   22  N   UNL     1      -5.863   6.053  70.939  1.00  0.00    -0.021 N  
HETATM   23  O   UNL     1      -5.871   8.335  70.783  1.00  0.00    -0.032 OA 
HETATM   24  C   UNL     1      -5.491   4.921  70.279  1.00  0.00    -0.011 C  
HETATM   25  H   UNL     1      -6.168   6.013  71.912  1.00  0.00     0.000 HD 
HETATM   26  O   UNL     1      -5.329   3.845  70.839  1.00  0.00    -0.003 OA 
ENDBRANCH  18  19
ENDBRANCH  15  18
ENDBRANCH  11  12
ENDBRANCH  10  11
ENDBRANCH   9  10
ENDBRANCH   6   9
ENDBRANCH   2   3
TORSDOF 7
ENDMDL
MODEL      324
REMARK 921   NORMALIZED FREE ENERGY PREDICTED BY IDOCK:   -2.11 KCAL/MOL
REMARK 922        TOTAL FREE ENERGY PREDICTED BY IDOCK:   -4.11 KCAL/MOL
REMARK 923 INTER-LIGAND FREE ENERGY PREDICTED BY IDOCK:   -2.82 KCAL/MOL
REMARK 924 INTRA-LIGAND FREE ENERGY PREDICTED BY IDOCK:   -1.29 KCAL/MOL
REMARK 927      BINDING AFFINITY PREDICTED BY RF-SCORE:    0.00 PKD
ROOT
HETATM    1  C   UNL     1      -6.304  10.773  70.356  1.00  0.00    -0.108 C  
HETATM    2  C   UNL     1      -6.634   9.401  69.785  1.00  0.00    -0.045 C  
ENDROOT
BRANCH   2   3
HETATM    3  C   UNL     1      -6.732   8.360  70.862  1.00  0.00    -0.042 A  
HETATM    4  C   UNL     1      -7.463   8.596  72.015  1.00  0.00    -0.037 A  
HETATM    5  N   UNL     1      -7.565   7.719  73.035  1.00  0.00    -0.103 NA 
HETATM    6  C   UNL     1      -6.923   6.527  72.930  1.00  0.00    -0.073 A  
HETATM    7  C   UNL     1      -6.159   6.208  71.814  1.00  0.00    -0.040 A  
HETATM    8  C   UNL     1      -6.066   7.136  70.773  1.00  0.00    -0.035 A  
BRANCH   6   9
HETATM    9  C   UNL     1      -7.046   5.571  74.102  1.00  0.00    -0.082 C  
BRANCH   9  10
HETATM   10  C   UNL     1      -7.326   4.163  73.580  1.00  0.00    -0.075 C  
BRANCH  10  11
HETATM   11  O   UNL     1      -8.670   3.966  73.121  1.00  0.00    -0.093 OA 
BRANCH  11  12
HETATM   12  C   UNL     1      -8.753   3.822  71.747  1.00  0.00    -0.094 A  
HETATM   13  C   UNL     1      -9.688   4.469  70.935  1.00  0.00    -0.263 A  
HETATM   14  C   UNL     1      -9.663   4.325  69.550  1.00  0.00    -0.272 A  
HETATM   15  C   UNL     1      -8.683   3.539  68.939  1.00  0.00    -0.138 A  
HETATM   16  C   UNL     1      -7.779   2.839  69.750  1.00  0.00    -0.045 A  
HETATM   17  C   UNL     1      -7.813   2.985  71.147  1.00  0.00    -0.050 A  
BRANCH  15  18
HETATM   18  C   UNL     1      -8.575   3.529  67.432  1.00  0.00    -0.113 C  
BRANCH  18  19
HETATM   19  C   UNL     1      -8.461   4.942  66.849  1.00  0.00    -0.106 C  
HETATM   20  S   UNL     1      -6.940   5.225  65.871  1.00  0.00    -0.068 SA 
HETATM   21  C   UNL     1      -7.817   5.916  64.538  1.00  0.00    -0.115 C  
HETATM   22  N   UNL     1      -9.142   5.691  64.686  1.00  0.00    -0.346 N  
HETATM   23  O   UNL     1      -7.300   6.540  63.629  1.00  0.00    -0.055 OA 
HETATM   24  C   UNL     1      -9.594   5.251  65.894  1.00  0.00    -0.125 C  
HETATM   25  H   UNL     1      -9.788   5.846  63.912  1.00  0.00     0.000 HD 
HETATM   26  O   UNL     1     -10.782   5.188  66.178  1.00  0.00    -0.296 OA 
ENDBRANCH  18  19
ENDBRANCH  15  18
ENDBRANCH  11  12
ENDBRANCH  10  11
ENDBRANCH   9  10
ENDBRANCH   6   9
ENDBRANCH   2   3
TORSDOF 7
ENDMDL
MODEL      325
REMARK 921   NORMALIZED FREE ENERGY PREDICTED BY IDOCK:   -1.76 KCAL/MOL
REMARK 922        TOTAL FREE ENERGY PREDICTED BY IDOCK:   -3.63 KCAL/MOL
REMARK 923 INTER-LIGAND FREE ENERGY PREDICTED BY IDOCK:   -3.15 KCAL/MOL
REMARK 924 INTRA-LIGAND FREE ENERGY PREDICTED BY IDOCK:   -0.48 KCAL/MOL
REMARK 927      BINDING AFFINITY PREDICTED BY RF-SCORE:    0.00 PKD
ROOT
HETATM    1  C   UNL     1      -8.989   6.524  66.609  1.00  0.00    -0.144 C  
HETATM    2  C   UNL     1      -9.278   8.010  66.456  1.00  0.00    -0.236 C  
ENDROOT
BRANCH   2   3
HETATM    3  C   UNL     1      -8.582   8.823  67.510  1.00  0.00    -0.127 A  
HETATM    4  C   UNL     1      -7.430   9.533  67.214  1.00  0.00    -0.091 A  
HETATM    5  N   UNL     1      -6.736  10.254  68.118  1.00  0.00    -0.058 NA 
HETATM    6  C   UNL     1      -7.194  10.300  69.396  1.00  0.00    -0.104 A  
HETATM    7  C   UNL     1      -8.336   9.612  69.786  1.00  0.00    -0.183 A  
HETATM    8  C   UNL     1      -9.033   8.868  68.831  1.00  0.00    -0.137 A  
BRANCH   6   9
HETATM    9  C   UNL     1      -6.381  11.108  70.391  1.00  0.00    -0.035 C  
BRANCH   9  10
HETATM   10  C   UNL     1      -5.264  10.235  70.959  1.00  0.00    -0.077 C  
BRANCH  10  11
HETATM   11  O   UNL     1      -5.445   9.874  72.335  1.00  0.00    -0.263 OA 
BRANCH  11  12
HETATM   12  C   UNL     1      -5.963   8.601  72.492  1.00  0.00    -0.079 A  
HETATM   13  C   UNL     1      -5.851   7.574  71.550  1.00  0.00    -0.036 A  
HETATM   14  C   UNL     1      -6.341   6.298  71.812  1.00  0.00    -0.046 A  
HETATM   15  C   UNL     1      -6.942   6.010  73.039  1.00  0.00    -0.080 A  
HETATM   16  C   UNL     1      -7.113   7.047  73.966  1.00  0.00    -0.087 A  
HETATM   17  C   UNL     1      -6.621   8.335  73.693  1.00  0.00    -0.141 A  
BRANCH  15  18
HETATM   18  C   UNL     1      -7.317   4.582  73.364  1.00  0.00    -0.081 C  
BRANCH  18  19
HETATM   19  C   UNL     1      -8.623   4.156  72.681  1.00  0.00    -0.104 C  
HETATM   20  S   UNL     1      -9.121   2.431  73.035  1.00  0.00    -0.073 SA 
HETATM   21  C   UNL     1     -10.749   2.889  73.440  1.00  0.00    -0.184 C  
HETATM   22  N   UNL     1     -10.834   4.231  73.581  1.00  0.00    -0.251 N  
HETATM   23  O   UNL     1     -11.674   2.104  73.544  1.00  0.00    -0.214 OA 
HETATM   24  C   UNL     1      -9.797   4.996  73.138  1.00  0.00    -0.153 C  
HETATM   25  H   UNL     1     -11.654   4.661  74.008  1.00  0.00     0.000 HD 
HETATM   26  O   UNL     1      -9.854   6.216  73.060  1.00  0.00    -0.165 OA 
ENDBRANCH  18  19
ENDBRANCH  15  18
ENDBRANCH  11  12
ENDBRANCH  10  11
ENDBRANCH   9  10
ENDBRANCH   6   9
ENDBRANCH   2   3
TORSDOF 7
ENDMDL
MODEL      326
REMARK 921   NORMALIZED FREE ENERGY PREDICTED BY IDOCK:   -1.72 KCAL/MOL
REMARK 922        TOTAL FREE ENERGY PREDICTED BY IDOCK:   -3.57 KCAL/MOL
REMARK 923 INTER-LIGAND FREE ENERGY PREDICTED BY IDOCK:   -3.09 KCAL/MOL
REMARK 924 INTRA-LIGAND FREE ENERGY PREDICTED BY IDOCK:   -0.48 KCAL/MOL
REMARK 927      BINDING AFFINITY PREDICTED BY RF-SCORE:    0.00 PKD
ROOT
HETATM    1  C   UNL     1      -5.167  16.156  67.481  1.00  0.00    -0.136 C  
HETATM    2  C   UNL     1      -6.378  15.866  68.355  1.00  0.00    -0.110 C  
ENDROOT
BRANCH   2   3
HETATM    3  C   UNL     1      -6.690  14.398  68.404  1.00  0.00    -0.103 A  
HETATM    4  C   UNL     1      -7.731  13.868  67.659  1.00  0.00    -0.184 A  
HETATM    5  N   UNL     1      -8.087  12.567  67.682  1.00  0.00    -0.158 NA 
HETATM    6  C   UNL     1      -7.381  11.718  68.473  1.00  0.00    -0.103 A  
HETATM    7  C   UNL     1      -6.328  12.163  69.262  1.00  0.00    -0.103 A  
HETATM    8  C   UNL     1      -5.982  13.516  69.223  1.00  0.00    -0.091 A  
BRANCH   6   9
HETATM    9  C   UNL     1      -7.818  10.265  68.487  1.00  0.00    -0.097 C  
BRANCH   9  10
HETATM   10  C   UNL     1      -9.324  10.186  68.244  1.00  0.00    -0.133 C  
BRANCH  10  11
HETATM   11  O   UNL     1      -9.813   8.857  68.020  1.00  0.00    -0.156 OA 
BRANCH  11  12
HETATM   12  C   UNL     1      -9.830   8.090  69.172  1.00  0.00    -0.178 A  
HETATM   13  C   UNL     1      -9.348   6.782  69.263  1.00  0.00    -0.144 A  
HETATM   14  C   UNL     1      -9.338   6.100  70.477  1.00  0.00    -0.173 A  
HETATM   15  C   UNL     1      -9.795   6.721  71.640  1.00  0.00    -0.173 A  
HETATM   16  C   UNL     1     -10.336   8.011  71.548  1.00  0.00    -0.258 A  
HETATM   17  C   UNL     1     -10.348   8.692  70.318  1.00  0.00    -0.217 A  
BRANCH  15  18
HETATM   18  C   UNL     1      -9.623   6.023  72.970  1.00  0.00    -0.155 C  
BRANCH  18  19
HETATM   19  C   UNL     1      -9.562   4.498  72.821  1.00  0.00    -0.134 C  
HETATM   20  S   UNL     1      -7.864   3.830  72.685  1.00  0.00    -0.078 SA 
HETATM   21  C   UNL     1      -8.148   2.615  73.896  1.00  0.00    -0.063 C  
HETATM   22  N   UNL     1      -9.305   2.870  74.548  1.00  0.00    -0.081 N  
HETATM   23  O   UNL     1      -7.418   1.661  74.092  1.00  0.00    -0.028 OA 
HETATM   24  C   UNL     1     -10.158   3.791  74.019  1.00  0.00    -0.144 C  
HETATM   25  H   UNL     1      -9.534   2.385  75.416  1.00  0.00     0.000 HD 
HETATM   26  O   UNL     1     -11.297   3.961  74.434  1.00  0.00     0.112 OA 
ENDBRANCH  18  19
ENDBRANCH  15  18
ENDBRANCH  11  12
ENDBRANCH  10  11
ENDBRANCH   9  10
ENDBRANCH   6   9
ENDBRANCH   2   3
TORSDOF 7
ENDMDL
MODEL      327
REMARK 921   NORMALIZED FREE ENERGY PREDICTED BY IDOCK:   -1.68 KCAL/MOL
REMARK 922        TOTAL FREE ENERGY PREDICTED BY IDOCK:   -3.51 KCAL/MOL
REMARK 923 INTER-LIGAND FREE ENERGY PREDICTED BY IDOCK:   -2.84 KCAL/MOL
REMARK 924 INTRA-LIGAND FREE ENERGY PREDICTED BY IDOCK:   -0.67 KCAL/MOL
REMARK 927      BINDING AFFINITY PREDICTED BY RF-SCORE:    0.00 PKD
ROOT
HETATM    1  C   UNL     1      -5.205  15.289  68.112  1.00  0.00    -0.125 C  
HETATM    2  C   UNL     1      -6.395  15.047  69.030  1.00  0.00    -0.100 C  
ENDROOT
BRANCH   2   3
HETATM    3  C   UNL     1      -6.768  13.594  69.085  1.00  0.00    -0.109 A  
HETATM    4  C   UNL     1      -7.875  13.118  68.401  1.00  0.00    -0.135 A  
HETATM    5  N   UNL     1      -8.286  11.834  68.435  1.00  0.00    -0.154 NA 
HETATM    6  C   UNL     1      -7.573  10.945  69.174  1.00  0.00    -0.133 A  
HETATM    7  C   UNL     1      -6.454  11.335  69.901  1.00  0.00    -0.132 A  
HETATM    8  C   UNL     1      -6.052  12.673  69.852  1.00  0.00    -0.125 A  
BRANCH   6   9
HETATM    9  C   UNL     1      -8.072   9.513  69.203  1.00  0.00    -0.103 C  
BRANCH   9  10
HETATM   10  C   UNL     1      -7.004   8.616  69.825  1.00  0.00    -0.046 C  
BRANCH  10  11
HETATM   11  O   UNL     1      -7.438   7.273  70.071  1.00  0.00    -0.081 OA 
BRANCH  11  12
HETATM   12  C   UNL     1      -7.625   6.547  68.907  1.00  0.00    -0.100 A  
HETATM   13  C   UNL     1      -8.762   5.789  68.617  1.00  0.00    -0.108 A  
HETATM   14  C   UNL     1      -8.904   5.141  67.393  1.00  0.00    -0.105 A  
HETATM   15  C   UNL     1      -7.914   5.254  66.415  1.00  0.00    -0.104 A  
HETATM   16  C   UNL     1      -6.744   5.963  66.719  1.00  0.00    -0.058 A  
HETATM   17  C   UNL     1      -6.604   6.610  67.959  1.00  0.00    -0.062 A  
BRANCH  15  18
HETATM   18  C   UNL     1      -8.163   4.681  65.038  1.00  0.00    -0.115 C  
BRANCH  18  19
HETATM   19  C   UNL     1      -9.213   3.563  65.057  1.00  0.00    -0.149 C  
HETATM   20  S   UNL     1     -10.674   3.894  64.006  1.00  0.00    -0.099 SA 
HETATM   21  C   UNL     1     -10.597   2.330  63.250  1.00  0.00    -0.202 C  
HETATM   22  N   UNL     1      -9.422   1.729  63.542  1.00  0.00    -0.098 N  
HETATM   23  O   UNL     1     -11.496   1.847  62.585  1.00  0.00    -0.240 OA 
HETATM   24  C   UNL     1      -8.653   2.257  64.536  1.00  0.00    -0.092 C  
HETATM   25  H   UNL     1      -9.117   0.901  63.031  1.00  0.00     0.000 HD 
HETATM   26  O   UNL     1      -7.668   1.690  64.989  1.00  0.00    -0.065 OA 
ENDBRANCH  18  19
ENDBRANCH  15  18
ENDBRANCH  11  12
ENDBRANCH  10  11
ENDBRANCH   9  10
ENDBRANCH   6   9
ENDBRANCH   2   3
TORSDOF 7
ENDMDL
MODEL      328
REMARK 921   NORMALIZED FREE ENERGY PREDICTED BY IDOCK:   -1.48 KCAL/MOL
REMARK 922        TOTAL FREE ENERGY PREDICTED BY IDOCK:   -3.23 KCAL/MOL
REMARK 923 INTER-LIGAND FREE ENERGY PREDICTED BY IDOCK:   -3.61 KCAL/MOL
REMARK 924 INTRA-LIGAND FREE ENERGY PREDICTED BY IDOCK:    0.38 KCAL/MOL
REMARK 927      BINDING AFFINITY PREDICTED BY RF-SCORE:    0.00 PKD
ROOT
HETATM    1  C   UNL     1     -12.933  13.724  64.740  1.00  0.00    -0.002 C  
HETATM    2  C   UNL     1     -12.246  12.926  65.839  1.00  0.00    -0.469 C  
ENDROOT
BRANCH   2   3
HETATM    3  C   UNL     1     -11.063  13.660  66.402  1.00  0.00    -0.307 A  
HETATM    4  C   UNL     1     -10.300  13.105  67.417  1.00  0.00    -0.239 A  
HETATM    5  N   UNL     1      -9.247  13.722  67.991  1.00  0.00    -0.189 NA 
HETATM    6  C   UNL     1      -8.902  14.958  67.548  1.00  0.00    -0.188 A  
HETATM    7  C   UNL     1      -9.616  15.596  66.541  1.00  0.00    -0.293 A  
HETATM    8  C   UNL     1     -10.705  14.937  65.966  1.00  0.00    -0.326 A  
BRANCH   6   9
HETATM    9  C   UNL     1      -7.723  15.630  68.227  1.00  0.00    -0.130 C  
BRANCH   9  10
HETATM   10  C   UNL     1      -6.596  14.615  68.406  1.00  0.00    -0.102 C  
BRANCH  10  11
HETATM   11  O   UNL     1      -6.996  13.405  69.061  1.00  0.00    -0.110 OA 
BRANCH  11  12
HETATM   12  C   UNL     1      -6.448  12.274  68.482  1.00  0.00    -0.064 A  
HETATM   13  C   UNL     1      -5.873  11.217  69.193  1.00  0.00    -0.042 A  
HETATM   14  C   UNL     1      -5.404  10.080  68.539  1.00  0.00    -0.039 A  
HETATM   15  C   UNL     1      -5.518   9.964  67.153  1.00  0.00    -0.042 A  
HETATM   16  C   UNL     1      -6.040  11.044  66.426  1.00  0.00    -0.141 A  
HETATM   17  C   UNL     1      -6.506  12.191  67.092  1.00  0.00    -0.135 A  
BRANCH  15  18
HETATM   18  C   UNL     1      -5.154   8.657  66.485  1.00  0.00    -0.034 C  
BRANCH  18  19
HETATM   19  C   UNL     1      -6.374   7.750  66.284  1.00  0.00    -0.046 C  
HETATM   20  S   UNL     1      -7.386   7.515  67.790  1.00  0.00    -0.105 SA 
HETATM   21  C   UNL     1      -8.871   7.873  66.958  1.00  0.00    -0.130 C  
HETATM   22  N   UNL     1      -8.607   8.401  65.742  1.00  0.00    -0.151 N  
HETATM   23  O   UNL     1      -9.979   7.642  67.406  1.00  0.00    -0.159 OA 
HETATM   24  C   UNL     1      -7.335   8.317  65.261  1.00  0.00    -0.081 C  
HETATM   25  H   UNL     1      -9.342   8.853  65.197  1.00  0.00     0.000 HD 
HETATM   26  O   UNL     1      -7.037   8.604  64.109  1.00  0.00    -0.087 OA 
ENDBRANCH  18  19
ENDBRANCH  15  18
ENDBRANCH  11  12
ENDBRANCH  10  11
ENDBRANCH   9  10
ENDBRANCH   6   9
ENDBRANCH   2   3
TORSDOF 7
ENDMDL
MODEL      329
REMARK 921   NORMALIZED FREE ENERGY PREDICTED BY IDOCK:   -1.45 KCAL/MOL
REMARK 922        TOTAL FREE ENERGY PREDICTED BY IDOCK:   -3.19 KCAL/MOL
REMARK 923 INTER-LIGAND FREE ENERGY PREDICTED BY IDOCK:   -2.18 KCAL/MOL
REMARK 924 INTRA-LIGAND FREE ENERGY PREDICTED BY IDOCK:   -1.01 KCAL/MOL
REMARK 927      BINDING AFFINITY PREDICTED BY RF-SCORE:    0.00 PKD
ROOT
HETATM    1  C   UNL     1      -7.303   9.801  70.422  1.00  0.00    -0.151 C  
HETATM    2  C   UNL     1      -7.436   8.756  69.324  1.00  0.00    -0.078 C  
ENDROOT
BRANCH   2   3
HETATM    3  C   UNL     1      -7.008   7.396  69.794  1.00  0.00    -0.056 A  
HETATM    4  C   UNL     1      -7.368   6.933  71.049  1.00  0.00    -0.078 A  
HETATM    5  N   UNL     1      -6.990   5.738  71.548  1.00  0.00    -0.067 NA 
HETATM    6  C   UNL     1      -6.217   4.931  70.776  1.00  0.00    -0.019 A  
HETATM    7  C   UNL     1      -5.800   5.317  69.508  1.00  0.00    -0.016 A  
HETATM    8  C   UNL     1      -6.202   6.562  69.017  1.00  0.00    -0.030 A  
BRANCH   6   9
HETATM    9  C   UNL     1      -5.796   3.601  71.373  1.00  0.00    -0.013 C  
BRANCH   9  10
HETATM   10  C   UNL     1      -5.823   2.527  70.288  1.00  0.00    -0.018 C  
BRANCH  10  11
HETATM   11  O   UNL     1      -7.064   1.814  70.200  1.00  0.00    -0.033 OA 
BRANCH  11  12
HETATM   12  C   UNL     1      -7.626   1.870  68.936  1.00  0.00    -0.043 A  
HETATM   13  C   UNL     1      -8.935   1.486  68.632  1.00  0.00    -0.151 A  
HETATM   14  C   UNL     1      -9.450   1.636  67.346  1.00  0.00     0.003 A  
HETATM   15  C   UNL     1      -8.669   2.196  66.333  1.00  0.00    -0.122 A  
HETATM   16  C   UNL     1      -7.337   2.528  66.615  1.00  0.00    -0.069 A  
HETATM   17  C   UNL     1      -6.821   2.369  67.913  1.00  0.00    -0.040 A  
BRANCH  15  18
HETATM   18  C   UNL     1      -9.300   2.500  64.993  1.00  0.00    -0.100 C  
BRANCH  18  19
HETATM   19  C   UNL     1      -9.707   3.973  64.865  1.00  0.00    -0.193 C  
HETATM   20  S   UNL     1     -10.077   4.786  66.463  1.00  0.00    -0.260 SA 
HETATM   21  C   UNL     1      -9.069   6.156  66.102  1.00  0.00    -0.145 C  
HETATM   22  N   UNL     1      -8.301   5.897  65.020  1.00  0.00    -0.148 N  
HETATM   23  O   UNL     1      -9.090   7.203  66.723  1.00  0.00    -0.135 OA 
HETATM   24  C   UNL     1      -8.604   4.811  64.255  1.00  0.00    -0.141 C  
HETATM   25  H   UNL     1      -7.512   6.499  64.782  1.00  0.00     0.000 HD 
HETATM   26  O   UNL     1      -8.084   4.595  63.168  1.00  0.00    -0.077 OA 
ENDBRANCH  18  19
ENDBRANCH  15  18
ENDBRANCH  11  12
ENDBRANCH  10  11
ENDBRANCH   9  10
ENDBRANCH   6   9
ENDBRANCH   2   3
TORSDOF 7
ENDMDL
MODEL      330
REMARK 921   NORMALIZED FREE ENERGY PREDICTED BY IDOCK:   -1.17 KCAL/MOL
REMARK 922        TOTAL FREE ENERGY PREDICTED BY IDOCK:   -2.80 KCAL/MOL
REMARK 923 INTER-LIGAND FREE ENERGY PREDICTED BY IDOCK:   -3.58 KCAL/MOL
REMARK 924 INTRA-LIGAND FREE ENERGY PREDICTED BY IDOCK:    0.79 KCAL/MOL
REMARK 927      BINDING AFFINITY PREDICTED BY RF-SCORE:    0.00 PKD
ROOT
HETATM    1  C   UNL     1     -12.867  13.667  64.715  1.00  0.00    -0.176 C  
HETATM    2  C   UNL     1     -12.118  12.804  65.720  1.00  0.00    -0.505 C  
ENDROOT
BRANCH   2   3
HETATM    3  C   UNL     1     -10.820  13.435  66.137  1.00  0.00    -0.287 A  
HETATM    4  C   UNL     1     -10.027  12.851  67.111  1.00  0.00    -0.240 A  
HETATM    5  N   UNL     1      -8.869  13.380  67.557  1.00  0.00    -0.197 NA 
HETATM    6  C   UNL     1      -8.444  14.551  67.017  1.00  0.00    -0.196 A  
HETATM    7  C   UNL     1      -9.179  15.212  66.041  1.00  0.00    -0.273 A  
HETATM    8  C   UNL     1     -10.377  14.645  65.600  1.00  0.00    -0.370 A  
BRANCH   6   9
HETATM    9  C   UNL     1      -7.146  15.126  67.552  1.00  0.00    -0.225 C  
BRANCH   9  10
HETATM   10  C   UNL     1      -6.206  13.985  67.937  1.00  0.00    -0.156 C  
BRANCH  10  11
HETATM   11  O   UNL     1      -6.837  12.932  68.678  1.00  0.00    -0.087 OA 
BRANCH  11  12
HETATM   12  C   UNL     1      -6.356  11.678  68.344  1.00  0.00    -0.051 A  
HETATM   13  C   UNL     1      -5.943  10.714  69.268  1.00  0.00    -0.042 A  
HETATM   14  C   UNL     1      -5.536   9.448  68.855  1.00  0.00    -0.037 A  
HETATM   15  C   UNL     1      -5.550   9.108  67.501  1.00  0.00    -0.042 A  
HETATM   16  C   UNL     1      -5.905  10.087  66.563  1.00  0.00    -0.059 A  
HETATM   17  C   UNL     1      -6.310  11.365  66.986  1.00  0.00    -0.122 A  
BRANCH  15  18
HETATM   18  C   UNL     1      -5.261   7.681  67.092  1.00  0.00    -0.030 C  
BRANCH  18  19
HETATM   19  C   UNL     1      -6.541   6.846  66.961  1.00  0.00    -0.047 C  
HETATM   20  S   UNL     1      -7.600   7.321  65.545  1.00  0.00    -0.104 SA 
HETATM   21  C   UNL     1      -7.764   5.677  65.001  1.00  0.00    -0.094 C  
HETATM   22  N   UNL     1      -6.877   4.884  65.642  1.00  0.00    -0.060 N  
HETATM   23  O   UNL     1      -8.588   5.307  64.185  1.00  0.00    -0.134 OA 
HETATM   24  C   UNL     1      -6.236   5.381  66.737  1.00  0.00    -0.035 C  
HETATM   25  H   UNL     1      -6.691   3.936  65.314  1.00  0.00     0.000 HD 
HETATM   26  O   UNL     1      -5.555   4.688  67.482  1.00  0.00    -0.015 OA 
ENDBRANCH  18  19
ENDBRANCH  15  18
ENDBRANCH  11  12
ENDBRANCH  10  11
ENDBRANCH   9  10
ENDBRANCH   6   9
ENDBRANCH   2   3
TORSDOF 7
ENDMDL
MODEL      331
REMARK 921   NORMALIZED FREE ENERGY PREDICTED BY IDOCK:   -1.05 KCAL/MOL
REMARK 922        TOTAL FREE ENERGY PREDICTED BY IDOCK:   -2.62 KCAL/MOL
REMARK 923 INTER-LIGAND FREE ENERGY PREDICTED BY IDOCK:   -2.58 KCAL/MOL
REMARK 924 INTRA-LIGAND FREE ENERGY PREDICTED BY IDOCK:   -0.04 KCAL/MOL
REMARK 927      BINDING AFFINITY PREDICTED BY RF-SCORE:    0.00 PKD
ROOT
HETATM    1  C   UNL     1     -11.117  11.416  67.425  1.00  0.00    -0.349 C  
HETATM    2  C   UNL     1      -9.870  11.225  68.276  1.00  0.00    -0.201 C  
ENDROOT
BRANCH   2   3
HETATM    3  C   UNL     1      -8.860  12.310  68.035  1.00  0.00    -0.182 A  
HETATM    4  C   UNL     1      -8.863  13.034  66.853  1.00  0.00    -0.180 A  
HETATM    5  N   UNL     1      -7.966  13.997  66.557  1.00  0.00     0.658 NA 
HETATM    6  C   UNL     1      -7.004  14.287  67.471  1.00  0.00    -0.155 A  
HETATM    7  C   UNL     1      -6.918  13.606  68.679  1.00  0.00    -0.103 A  
HETATM    8  C   UNL     1      -7.857  12.609  68.959  1.00  0.00     0.250 A  
BRANCH   6   9
HETATM    9  C   UNL     1      -6.002  15.364  67.100  1.00  0.00     0.379 C  
BRANCH   9  10
HETATM   10  C   UNL     1      -6.618  16.738  67.355  1.00  0.00    -0.160 C  
BRANCH  10  11
HETATM   11  O   UNL     1      -7.660  17.093  66.436  1.00  0.00    -0.256 OA 
BRANCH  11  12
HETATM   12  C   UNL     1      -8.926  16.896  66.959  1.00  0.00    -0.215 A  
HETATM   13  C   UNL     1     -10.029  16.449  66.225  1.00  0.00    -0.341 A  
HETATM   14  C   UNL     1     -11.255  16.210  66.840  1.00  0.00     0.128 A  
HETATM   15  C   UNL     1     -11.404  16.397  68.215  1.00  0.00    -0.241 A  
HETATM   16  C   UNL     1     -10.322  16.903  68.949  1.00  0.00    -0.333 A  
HETATM   17  C   UNL     1      -9.088  17.146  68.321  1.00  0.00    -0.259 A  
BRANCH  15  18
HETATM   18  C   UNL     1     -12.693  15.977  68.885  1.00  0.00     1.238 C  
BRANCH  18  19
HETATM   19  C   UNL     1     -12.479  15.569  70.348  1.00  0.00    -0.402 C  
HETATM   20  S   UNL     1     -14.023  15.464  71.326  1.00  0.00    -0.259 SA 
HETATM   21  C   UNL     1     -13.620  13.895  71.960  1.00  0.00    -0.477 C  
HETATM   22  N   UNL     1     -12.575  13.373  71.281  1.00  0.00    -0.350 N  
HETATM   23  O   UNL     1     -14.187  13.373  72.903  1.00  0.00    -0.529 OA 
HETATM   24  C   UNL     1     -11.857  14.194  70.464  1.00  0.00    -0.282 C  
HETATM   25  H   UNL     1     -12.328  12.388  71.378  1.00  0.00     0.000 HD 
HETATM   26  O   UNL     1     -10.798  13.862  69.949  1.00  0.00     0.045 OA 
ENDBRANCH  18  19
ENDBRANCH  15  18
ENDBRANCH  11  12
ENDBRANCH  10  11
ENDBRANCH   9  10
ENDBRANCH   6   9
ENDBRANCH   2   3
TORSDOF 7
ENDMDL
MODEL      332
REMARK 921   NORMALIZED FREE ENERGY PREDICTED BY IDOCK:   -0.89 KCAL/MOL
REMARK 922        TOTAL FREE ENERGY PREDICTED BY IDOCK:   -2.39 KCAL/MOL
REMARK 923 INTER-LIGAND FREE ENERGY PREDICTED BY IDOCK:   -4.75 KCAL/MOL
REMARK 924 INTRA-LIGAND FREE ENERGY PREDICTED BY IDOCK:    2.35 KCAL/MOL
REMARK 927      BINDING AFFINITY PREDICTED BY RF-SCORE:    0.00 PKD
ROOT
HETATM    1  C   UNL     1      -6.427  10.744  65.040  1.00  0.00     0.145 C  
HETATM    2  C   UNL     1      -6.001  10.254  66.416  1.00  0.00    -0.069 C  
ENDROOT
BRANCH   2   3
HETATM    3  C   UNL     1      -5.916  11.380  67.406  1.00  0.00    -0.073 A  
HETATM    4  C   UNL     1      -6.454  12.623  67.116  1.00  0.00     0.004 A  
HETATM    5  N   UNL     1      -6.384  13.686  67.944  1.00  0.00    -0.142 NA 
HETATM    6  C   UNL     1      -5.757  13.534  69.139  1.00  0.00    -0.078 A  
HETATM    7  C   UNL     1      -5.179  12.327  69.510  1.00  0.00    -0.068 A  
HETATM    8  C   UNL     1      -5.262  11.242  68.632  1.00  0.00    -0.043 A  
BRANCH   6   9
HETATM    9  C   UNL     1      -5.682  14.754  70.038  1.00  0.00    -0.122 C  
BRANCH   9  10
HETATM   10  C   UNL     1      -5.730  16.018  69.182  1.00  0.00    -0.114 C  
BRANCH  10  11
HETATM   11  O   UNL     1      -6.851  16.868  69.457  1.00  0.00    -0.230 OA 
BRANCH  11  12
HETATM   12  C   UNL     1      -8.007  16.456  68.818  1.00  0.00    -0.233 A  
HETATM   13  C   UNL     1      -8.459  16.955  67.593  1.00  0.00    -0.206 A  
HETATM   14  C   UNL     1      -9.599  16.438  66.981  1.00  0.00    -0.244 A  
HETATM   15  C   UNL     1     -10.307  15.391  67.573  1.00  0.00    -0.264 A  
HETATM   16  C   UNL     1      -9.895  14.926  68.830  1.00  0.00    -0.230 A  
HETATM   17  C   UNL     1      -8.747  15.455  69.445  1.00  0.00    -0.252 A  
BRANCH  15  18
HETATM   18  C   UNL     1     -11.440  14.739  66.815  1.00  0.00    -0.343 C  
BRANCH  18  19
HETATM   19  C   UNL     1     -12.017  13.531  67.562  1.00  0.00    -0.346 C  
HETATM   20  S   UNL     1     -11.083  11.978  67.303  1.00  0.00    -0.305 SA 
HETATM   21  C   UNL     1     -11.016  11.629  69.005  1.00  0.00    -0.233 C  
HETATM   22  N   UNL     1     -11.399  12.712  69.718  1.00  0.00    -0.496 N  
HETATM   23  O   UNL     1     -10.701  10.549  69.469  1.00  0.00    -0.225 OA 
HETATM   24  C   UNL     1     -12.009  13.738  69.060  1.00  0.00    -0.360 C  
HETATM   25  H   UNL     1     -11.235  12.761  70.723  1.00  0.00     0.000 HD 
HETATM   26  O   UNL     1     -12.545  14.674  69.638  1.00  0.00    -0.220 OA 
ENDBRANCH  18  19
ENDBRANCH  15  18
ENDBRANCH  11  12
ENDBRANCH  10  11
ENDBRANCH   9  10
ENDBRANCH   6   9
ENDBRANCH   2   3
TORSDOF 7
ENDMDL
MODEL      333
REMARK 921   NORMALIZED FREE ENERGY PREDICTED BY IDOCK:   -0.64 KCAL/MOL
REMARK 922        TOTAL FREE ENERGY PREDICTED BY IDOCK:   -2.04 KCAL/MOL
REMARK 923 INTER-LIGAND FREE ENERGY PREDICTED BY IDOCK:   -3.65 KCAL/MOL
REMARK 924 INTRA-LIGAND FREE ENERGY PREDICTED BY IDOCK:    1.61 KCAL/MOL
REMARK 927      BINDING AFFINITY PREDICTED BY RF-SCORE:    0.00 PKD
ROOT
HETATM    1  C   UNL     1     -11.521  12.124  66.679  1.00  0.00    -0.426 C  
HETATM    2  C   UNL     1     -10.417  11.981  67.717  1.00  0.00    -0.223 C  
ENDROOT
BRANCH   2   3
HETATM    3  C   UNL     1      -9.955  10.558  67.845  1.00  0.00    -0.193 A  
HETATM    4  C   UNL     1      -8.619  10.228  67.683  1.00  0.00    -0.118 A  
HETATM    5  N   UNL     1      -8.141   8.968  67.751  1.00  0.00    -0.109 NA 
HETATM    6  C   UNL     1      -9.014   7.958  68.001  1.00  0.00    -0.127 A  
HETATM    7  C   UNL     1     -10.373   8.194  68.166  1.00  0.00    -0.251 A  
HETATM    8  C   UNL     1     -10.843   9.508  68.087  1.00  0.00    -0.208 A  
BRANCH   6   9
HETATM    9  C   UNL     1      -8.445   6.552  68.054  1.00  0.00    -0.119 C  
BRANCH   9  10
HETATM   10  C   UNL     1      -6.942   6.604  67.789  1.00  0.00    -0.083 C  
BRANCH  10  11
HETATM   11  O   UNL     1      -6.189   5.608  68.494  1.00  0.00    -0.030 OA 
BRANCH  11  12
HETATM   12  C   UNL     1      -6.792   5.216  69.676  1.00  0.00    -0.053 A  
HETATM   13  C   UNL     1      -6.417   4.098  70.427  1.00  0.00    -0.031 A  
HETATM   14  C   UNL     1      -7.029   3.809  71.644  1.00  0.00    -0.031 A  
HETATM   15  C   UNL     1      -8.024   4.646  72.151  1.00  0.00    -0.101 A  
HETATM   16  C   UNL     1      -8.449   5.735  71.377  1.00  0.00    -0.128 A  
HETATM   17  C   UNL     1      -7.830   6.019  70.147  1.00  0.00    -0.101 A  
BRANCH  15  18
HETATM   18  C   UNL     1      -8.557   4.404  73.545  1.00  0.00    -0.096 C  
BRANCH  18  19
HETATM   19  C   UNL     1      -8.163   5.522  74.518  1.00  0.00    -0.106 C  
HETATM   20  S   UNL     1      -6.470   6.170  74.263  1.00  0.00    -0.071 SA 
HETATM   21  C   UNL     1      -7.004   7.825  74.279  1.00  0.00    -0.116 C  
HETATM   22  N   UNL     1      -8.352   7.880  74.191  1.00  0.00    -0.241 N  
HETATM   23  O   UNL     1      -6.260   8.782  74.389  1.00  0.00    -0.131 OA 
HETATM   24  C   UNL     1      -9.061   6.732  74.381  1.00  0.00    -0.203 C  
HETATM   25  H   UNL     1      -8.827   8.759  73.987  1.00  0.00     0.000 HD 
HETATM   26  O   UNL     1     -10.279   6.712  74.495  1.00  0.00    -0.356 OA 
ENDBRANCH  18  19
ENDBRANCH  15  18
ENDBRANCH  11  12
ENDBRANCH  10  11
ENDBRANCH   9  10
ENDBRANCH   6   9
ENDBRANCH   2   3
TORSDOF 7
ENDMDL
MODEL      334
REMARK 921   NORMALIZED FREE ENERGY PREDICTED BY IDOCK:    0.15 KCAL/MOL
REMARK 922        TOTAL FREE ENERGY PREDICTED BY IDOCK:   -0.93 KCAL/MOL
REMARK 923 INTER-LIGAND FREE ENERGY PREDICTED BY IDOCK:   -3.00 KCAL/MOL
REMARK 924 INTRA-LIGAND FREE ENERGY PREDICTED BY IDOCK:    2.07 KCAL/MOL
REMARK 927      BINDING AFFINITY PREDICTED BY RF-SCORE:    0.00 PKD
ROOT
HETATM    1  C   UNL     1     -11.294  11.216  67.312  1.00  0.00    -0.302 C  
HETATM    2  C   UNL     1     -10.123  10.539  68.009  1.00  0.00    -0.190 C  
ENDROOT
BRANCH   2   3
HETATM    3  C   UNL     1      -9.959   9.114  67.564  1.00  0.00    -0.258 A  
HETATM    4  C   UNL     1      -8.763   8.673  67.020  1.00  0.00    -0.127 A  
HETATM    5  N   UNL     1      -8.558   7.418  66.569  1.00  0.00    -0.126 NA 
HETATM    6  C   UNL     1      -9.577   6.525  66.658  1.00  0.00    -0.160 A  
HETATM    7  C   UNL     1     -10.814   6.881  67.181  1.00  0.00    -0.447 A  
HETATM    8  C   UNL     1     -11.002   8.189  67.637  1.00  0.00     0.066 A  
BRANCH   6   9
HETATM    9  C   UNL     1      -9.318   5.127  66.127  1.00  0.00    -0.160 C  
BRANCH   9  10
HETATM   10  C   UNL     1      -7.949   5.088  65.452  1.00  0.00    -0.108 C  
BRANCH  10  11
HETATM   11  O   UNL     1      -7.207   3.887  65.702  1.00  0.00    -0.068 OA 
BRANCH  11  12
HETATM   12  C   UNL     1      -7.572   3.267  66.884  1.00  0.00    -0.076 A  
HETATM   13  C   UNL     1      -7.108   2.016  67.301  1.00  0.00    -0.047 A  
HETATM   14  C   UNL     1      -7.470   1.489  68.538  1.00  0.00    -0.042 A  
HETATM   15  C   UNL     1      -8.295   2.213  69.401  1.00  0.00    -0.076 A  
HETATM   16  C   UNL     1      -8.814   3.441  68.966  1.00  0.00    -0.161 A  
HETATM   17  C   UNL     1      -8.448   3.965  67.714  1.00  0.00    -0.104 A  
BRANCH  15  18
HETATM   18  C   UNL     1      -8.541   1.696  70.800  1.00  0.00    -0.088 C  
BRANCH  18  19
HETATM   19  C   UNL     1      -7.962   2.627  71.872  1.00  0.00    -0.053 C  
HETATM   20  S   UNL     1      -6.347   3.364  71.426  1.00  0.00    -0.015 SA 
HETATM   21  C   UNL     1      -6.861   4.970  71.852  1.00  0.00    -0.053 C  
HETATM   22  N   UNL     1      -8.200   4.998  72.033  1.00  0.00    -0.114 N  
HETATM   23  O   UNL     1      -6.105   5.914  71.996  1.00  0.00    -0.037 OA 
HETATM   24  C   UNL     1      -8.865   3.813  72.136  1.00  0.00    -0.097 C  
HETATM   25  H   UNL     1      -8.702   5.884  72.090  1.00  0.00     0.000 HD 
HETATM   26  O   UNL     1     -10.039   3.734  72.473  1.00  0.00    -0.156 OA 
ENDBRANCH  18  19
ENDBRANCH  15  18
ENDBRANCH  11  12
ENDBRANCH  10  11
ENDBRANCH   9  10
ENDBRANCH   6   9
ENDBRANCH   2   3
TORSDOF 7
ENDMDL
MODEL      335
REMARK 921   NORMALIZED FREE ENERGY PREDICTED BY IDOCK:    0.23 KCAL/MOL
REMARK 922        TOTAL FREE ENERGY PREDICTED BY IDOCK:   -0.82 KCAL/MOL
REMARK 923 INTER-LIGAND FREE ENERGY PREDICTED BY IDOCK:   -1.48 KCAL/MOL
REMARK 924 INTRA-LIGAND FREE ENERGY PREDICTED BY IDOCK:    0.66 KCAL/MOL
REMARK 927      BINDING AFFINITY PREDICTED BY RF-SCORE:    0.00 PKD
ROOT
HETATM    1  C   UNL     1      -7.885  18.888  67.590  1.00  0.00    -0.265 C  
HETATM    2  C   UNL     1      -7.281  18.080  66.450  1.00  0.00    -0.289 C  
ENDROOT
BRANCH   2   3
HETATM    3  C   UNL     1      -7.200  16.619  66.787  1.00  0.00    -0.272 A  
HETATM    4  C   UNL     1      -5.976  15.971  66.846  1.00  0.00     0.317 A  
HETATM    5  N   UNL     1      -5.833  14.655  67.108  1.00  0.00    -0.006 NA 
HETATM    6  C   UNL     1      -6.949  13.917  67.339  1.00  0.00    -0.043 A  
HETATM    7  C   UNL     1      -8.218  14.480  67.291  1.00  0.00    -0.230 A  
HETATM    8  C   UNL     1      -8.339  15.845  67.013  1.00  0.00    -0.255 A  
BRANCH   6   9
HETATM    9  C   UNL     1      -6.753  12.438  67.615  1.00  0.00    -0.132 C  
BRANCH   9  10
HETATM   10  C   UNL     1      -6.516  11.704  66.297  1.00  0.00     0.236 C  
BRANCH  10  11
HETATM   11  O   UNL     1      -7.550  10.773  65.951  1.00  0.00    -0.149 OA 
BRANCH  11  12
HETATM   12  C   UNL     1      -8.618  10.806  66.831  1.00  0.00    -0.132 A  
HETATM   13  C   UNL     1      -9.923  11.165  66.484  1.00  0.00    -0.252 A  
HETATM   14  C   UNL     1     -10.958  11.106  67.413  1.00  0.00    -0.347 A  
HETATM   15  C   UNL     1     -10.715  10.665  68.715  1.00  0.00    -0.249 A  
HETATM   16  C   UNL     1      -9.398  10.360  69.089  1.00  0.00    -0.211 A  
HETATM   17  C   UNL     1      -8.357  10.427  68.147  1.00  0.00    -0.117 A  
BRANCH  15  18
HETATM   18  C   UNL     1     -11.879  10.454  69.656  1.00  0.00    -0.252 C  
BRANCH  18  19
HETATM   19  C   UNL     1     -12.706  11.730  69.850  1.00  0.00     0.260 C  
HETATM   20  S   UNL     1     -14.003  11.590  71.135  1.00  0.00     2.471 SA 
HETATM   21  C   UNL     1     -13.529  13.077  71.903  1.00  0.00    -0.408 C  
HETATM   22  N   UNL     1     -12.334  13.489  71.422  1.00  0.00    -0.313 N  
HETATM   23  O   UNL     1     -14.204  13.666  72.727  1.00  0.00    -0.676 OA 
HETATM   24  C   UNL     1     -11.849  12.895  70.296  1.00  0.00    -0.213 C  
HETATM   25  H   UNL     1     -11.808  14.226  71.891  1.00  0.00     0.000 HD 
HETATM   26  O   UNL     1     -10.872  13.314  69.689  1.00  0.00     0.048 OA 
ENDBRANCH  18  19
ENDBRANCH  15  18
ENDBRANCH  11  12
ENDBRANCH  10  11
ENDBRANCH   9  10
ENDBRANCH   6   9
ENDBRANCH   2   3
TORSDOF 7
ENDMDL
MODEL      336
REMARK 921   NORMALIZED FREE ENERGY PREDICTED BY IDOCK:    3.27 KCAL/MOL
REMARK 922        TOTAL FREE ENERGY PREDICTED BY IDOCK:    3.46 KCAL/MOL
REMARK 923 INTER-LIGAND FREE ENERGY PREDICTED BY IDOCK:    0.62 KCAL/MOL
REMARK 924 INTRA-LIGAND FREE ENERGY PREDICTED BY IDOCK:    2.84 KCAL/MOL
REMARK 927      BINDING AFFINITY PREDICTED BY RF-SCORE:    0.00 PKD
ROOT
HETATM    1  C   UNL     1     -12.089  16.417  70.290  1.00  0.00     0.478 C  
HETATM    2  C   UNL     1     -10.692  15.840  70.117  1.00  0.00    -0.354 C  
ENDROOT
BRANCH   2   3
HETATM    3  C   UNL     1     -10.731  14.376  69.786  1.00  0.00    -0.022 A  
HETATM    4  C   UNL     1     -11.932  13.684  69.767  1.00  0.00    -0.341 A  
HETATM    5  N   UNL     1     -12.036  12.364  69.511  1.00  0.00    -0.288 NA 
HETATM    6  C   UNL     1     -10.902  11.666  69.246  1.00  0.00    -0.152 A  
HETATM    7  C   UNL     1      -9.653  12.274  69.252  1.00  0.00     0.699 A  
HETATM    8  C   UNL     1      -9.572  13.643  69.525  1.00  0.00     0.956 A  
BRANCH   6   9
HETATM    9  C   UNL     1     -11.053  10.180  68.978  1.00  0.00    -0.249 C  
BRANCH   9  10
HETATM   10  C   UNL     1      -9.736   9.472  69.289  1.00  0.00    -0.176 C  
BRANCH  10  11
HETATM   11  O   UNL     1      -8.823   9.424  68.185  1.00  0.00    -0.124 OA 
BRANCH  11  12
HETATM   12  C   UNL     1      -9.208  10.238  67.134  1.00  0.00    -0.145 A  
HETATM   13  C   UNL     1     -10.280   9.975  66.276  1.00  0.00    -0.285 A  
HETATM   14  C   UNL     1     -10.646  10.880  65.283  1.00  0.00    -0.259 A  
HETATM   15  C   UNL     1      -9.958  12.085  65.135  1.00  0.00    -0.265 A  
HETATM   16  C   UNL     1      -8.844  12.330  65.951  1.00  0.00     0.238 A  
HETATM   17  C   UNL     1      -8.476  11.411  66.949  1.00  0.00    -0.157 A  
BRANCH  15  18
HETATM   18  C   UNL     1     -10.474  13.120  64.162  1.00  0.00    -0.348 C  
BRANCH  18  19
HETATM   19  C   UNL     1     -11.105  14.322  64.875  1.00  0.00    -0.390 C  
HETATM   20  S   UNL     1     -10.229  14.827  66.401  1.00  0.00    -0.304 SA 
HETATM   21  C   UNL     1     -10.190  16.501  65.932  1.00  0.00    -0.349 C  
HETATM   22  N   UNL     1     -10.536  16.629  64.632  1.00  0.00     0.078 N  
HETATM   23  O   UNL     1      -9.921  17.417  66.689  1.00  0.00    -0.281 OA 
HETATM   24  C   UNL     1     -11.101  15.560  64.004  1.00  0.00     0.567 C  
HETATM   25  H   UNL     1     -10.379  17.504  64.132  1.00  0.00     0.000 HD 
HETATM   26  O   UNL     1     -11.605  15.630  62.891  1.00  0.00     2.094 OA 
ENDBRANCH  18  19
ENDBRANCH  15  18
ENDBRANCH  11  12
ENDBRANCH  10  11
ENDBRANCH   9  10
ENDBRANCH   6   9
ENDBRANCH   2   3
TORSDOF 7
ENDMDL
MODEL      337
REMARK 921   NORMALIZED FREE ENERGY PREDICTED BY IDOCK:    5.25 KCAL/MOL
REMARK 922        TOTAL FREE ENERGY PREDICTED BY IDOCK:    6.26 KCAL/MOL
REMARK 923 INTER-LIGAND FREE ENERGY PREDICTED BY IDOCK:    6.96 KCAL/MOL
REMARK 924 INTRA-LIGAND FREE ENERGY PREDICTED BY IDOCK:   -0.70 KCAL/MOL
REMARK 927      BINDING AFFINITY PREDICTED BY RF-SCORE:    0.00 PKD
ROOT
HETATM    1  C   UNL     1      -6.880  11.316  72.596  1.00  0.00     6.657 C  
HETATM    2  C   UNL     1      -7.126  10.410  71.399  1.00  0.00     1.779 C  
ENDROOT
BRANCH   2   3
HETATM    3  C   UNL     1      -6.691   8.999  71.670  1.00  0.00    -0.033 A  
HETATM    4  C   UNL     1      -6.463   8.562  72.965  1.00  0.00    -0.076 A  
HETATM    5  N   UNL     1      -6.039   7.321  73.278  1.00  0.00    -0.056 NA 
HETATM    6  C   UNL     1      -5.830   6.436  72.269  1.00  0.00    -0.038 A  
HETATM    7  C   UNL     1      -6.024   6.788  70.939  1.00  0.00    -0.028 A  
HETATM    8  C   UNL     1      -6.459   8.083  70.642  1.00  0.00    -0.037 A  
BRANCH   6   9
HETATM    9  C   UNL     1      -5.338   5.053  72.654  1.00  0.00    -0.009 C  
BRANCH   9  10
HETATM   10  C   UNL     1      -5.665   4.068  71.533  1.00  0.00    -0.008 C  
BRANCH  10  11
HETATM   11  O   UNL     1      -7.046   3.687  71.473  1.00  0.00    -0.031 OA 
BRANCH  11  12
HETATM   12  C   UNL     1      -7.551   3.702  70.185  1.00  0.00    -0.047 A  
HETATM   13  C   UNL     1      -8.848   4.097  69.845  1.00  0.00    -0.134 A  
HETATM   14  C   UNL     1      -9.261   4.149  68.516  1.00  0.00    -0.200 A  
HETATM   15  C   UNL     1      -8.374   3.824  67.488  1.00  0.00    -0.097 A  
HETATM   16  C   UNL     1      -7.090   3.369  67.822  1.00  0.00    -0.051 A  
HETATM   17  C   UNL     1      -6.682   3.314  69.166  1.00  0.00    -0.037 A  
BRANCH  15  18
HETATM   18  C   UNL     1      -8.791   4.044  66.051  1.00  0.00    -0.120 C  
BRANCH  18  19
HETATM   19  C   UNL     1      -8.208   5.339  65.471  1.00  0.00    -0.124 C  
HETATM   20  S   UNL     1      -8.562   6.830  66.472  1.00  0.00    -0.134 SA 
HETATM   21  C   UNL     1      -6.903   7.350  66.447  1.00  0.00    -0.061 C  
HETATM   22  N   UNL     1      -6.111   6.357  65.985  1.00  0.00    -0.032 N  
HETATM   23  O   UNL     1      -6.531   8.463  66.770  1.00  0.00    -0.055 OA 
HETATM   24  C   UNL     1      -6.699   5.286  65.381  1.00  0.00    -0.045 C  
HETATM   25  H   UNL     1      -5.097   6.407  66.086  1.00  0.00     0.000 HD 
HETATM   26  O   UNL     1      -6.065   4.429  64.779  1.00  0.00    -0.024 OA 
ENDBRANCH  18  19
ENDBRANCH  15  18
ENDBRANCH  11  12
ENDBRANCH  10  11
ENDBRANCH   9  10
ENDBRANCH   6   9
ENDBRANCH   2   3
TORSDOF 7
ENDMDL
MODEL      338
REMARK 921   NORMALIZED FREE ENERGY PREDICTED BY IDOCK:    9.43 KCAL/MOL
REMARK 922        TOTAL FREE ENERGY PREDICTED BY IDOCK:   12.15 KCAL/MOL
REMARK 923 INTER-LIGAND FREE ENERGY PREDICTED BY IDOCK:    2.35 KCAL/MOL
REMARK 924 INTRA-LIGAND FREE ENERGY PREDICTED BY IDOCK:    9.80 KCAL/MOL
REMARK 927      BINDING AFFINITY PREDICTED BY RF-SCORE:    0.00 PKD
ROOT
HETATM    1  C   UNL     1      -6.718  11.393  64.384  1.00  0.00     1.914 C  
HETATM    2  C   UNL     1      -6.250  10.920  65.753  1.00  0.00    -0.059 C  
ENDROOT
BRANCH   2   3
HETATM    3  C   UNL     1      -6.397  11.993  66.792  1.00  0.00     0.025 A  
HETATM    4  C   UNL     1      -7.184  13.109  66.556  1.00  0.00     1.557 A  
HETATM    5  N   UNL     1      -7.333  14.125  67.430  1.00  0.00    -0.168 NA 
HETATM    6  C   UNL     1      -6.683  14.054  68.620  1.00  0.00    -0.096 A  
HETATM    7  C   UNL     1      -5.864  12.978  68.940  1.00  0.00    -0.076 A  
HETATM    8  C   UNL     1      -5.723  11.940  68.014  1.00  0.00    -0.048 A  
BRANCH   6   9
HETATM    9  C   UNL     1      -6.859  15.221  69.573  1.00  0.00    -0.180 C  
BRANCH   9  10
HETATM   10  C   UNL     1      -7.025  16.510  68.771  1.00  0.00    -0.180 C  
BRANCH  10  11
HETATM   11  O   UNL     1      -8.381  16.960  68.659  1.00  0.00    -0.243 OA 
BRANCH  11  12
HETATM   12  C   UNL     1      -9.242  15.968  68.223  1.00  0.00    -0.191 A  
HETATM   13  C   UNL     1     -10.112  16.091  67.136  1.00  0.00    -0.270 A  
HETATM   14  C   UNL     1     -10.899  15.021  66.717  1.00  0.00    -0.318 A  
HETATM   15  C   UNL     1     -10.820  13.789  67.368  1.00  0.00    -0.285 A  
HETATM   16  C   UNL     1      -9.995  13.673  68.496  1.00  0.00    -0.208 A  
HETATM   17  C   UNL     1      -9.207  14.759  68.917  1.00  0.00    -0.177 A  
BRANCH  15  18
HETATM   18  C   UNL     1     -11.558  12.600  66.796  1.00  0.00    -0.438 C  
BRANCH  18  19
HETATM   19  C   UNL     1     -11.328  11.325  67.618  1.00  0.00    -0.282 C  
HETATM   20  S   UNL     1     -11.624   9.776  66.689  1.00  0.00     2.895 SA 
HETATM   21  C   UNL     1     -10.115   9.077  67.197  1.00  0.00    -0.243 C  
HETATM   22  N   UNL     1      -9.333  10.022  67.767  1.00  0.00    -0.140 N  
HETATM   23  O   UNL     1      -9.833   7.898  67.080  1.00  0.00    -0.170 OA 
HETATM   24  C   UNL     1      -9.898  11.216  68.100  1.00  0.00    -0.180 C  
HETATM   25  H   UNL     1      -8.344   9.845  67.943  1.00  0.00     0.000 HD 
HETATM   26  O   UNL     1      -9.323  12.061  68.774  1.00  0.00    -0.091 OA 
ENDBRANCH  18  19
ENDBRANCH  15  18
ENDBRANCH  11  12
ENDBRANCH  10  11
ENDBRANCH   9  10
ENDBRANCH   6   9
ENDBRANCH   2   3
TORSDOF 7
ENDMDL
MODEL      339
REMARK 921   NORMALIZED FREE ENERGY PREDICTED BY IDOCK:   16.43 KCAL/MOL
REMARK 922        TOTAL FREE ENERGY PREDICTED BY IDOCK:   22.01 KCAL/MOL
REMARK 923 INTER-LIGAND FREE ENERGY PREDICTED BY IDOCK:   13.79 KCAL/MOL
REMARK 924 INTRA-LIGAND FREE ENERGY PREDICTED BY IDOCK:    8.22 KCAL/MOL
REMARK 927      BINDING AFFINITY PREDICTED BY RF-SCORE:    0.00 PKD
ROOT
HETATM    1  C   UNL     1     -11.225  17.503  70.919  1.00  0.00     1.919 C  
HETATM    2  C   UNL     1     -10.064  16.519  70.882  1.00  0.00     1.936 C  
ENDROOT
BRANCH   2   3
HETATM    3  C   UNL     1     -10.539  15.105  70.712  1.00  0.00    -0.010 A  
HETATM    4  C   UNL     1     -11.884  14.824  70.530  1.00  0.00    -0.302 A  
HETATM    5  N   UNL     1     -12.382  13.577  70.404  1.00  0.00    -0.341 NA 
HETATM    6  C   UNL     1     -11.520  12.529  70.449  1.00  0.00     0.384 A  
HETATM    7  C   UNL     1     -10.156  12.715  70.638  1.00  0.00     5.258 A  
HETATM    8  C   UNL     1      -9.666  14.017  70.770  1.00  0.00     3.661 A  
BRANCH   6   9
HETATM    9  C   UNL     1     -12.116  11.139  70.321  1.00  0.00    -0.462 C  
BRANCH   9  10
HETATM   10  C   UNL     1     -11.129  10.112  70.872  1.00  0.00    -0.253 C  
BRANCH  10  11
HETATM   11  O   UNL     1      -9.891  10.045  70.152  1.00  0.00    -0.241 OA 
BRANCH  11  12
HETATM   12  C   UNL     1      -9.952  10.673  68.920  1.00  0.00    -0.204 A  
HETATM   13  C   UNL     1      -8.867  10.829  68.053  1.00  0.00    -0.132 A  
HETATM   14  C   UNL     1      -9.024  11.413  66.799  1.00  0.00    -0.177 A  
HETATM   15  C   UNL     1     -10.283  11.841  66.371  1.00  0.00    -0.248 A  
HETATM   16  C   UNL     1     -11.365  11.743  67.257  1.00  0.00    -0.379 A  
HETATM   17  C   UNL     1     -11.198  11.157  68.524  1.00  0.00    -0.318 A  
BRANCH  15  18
HETATM   18  C   UNL     1     -10.459  12.320  64.949  1.00  0.00    -0.321 C  
BRANCH  18  19
HETATM   19  C   UNL     1     -11.911  12.711  64.645  1.00  0.00    -0.380 C  
HETATM   20  S   UNL     1     -12.789  13.472  66.059  1.00  0.00     0.105 SA 
HETATM   21  C   UNL     1     -13.369  14.801  65.099  1.00  0.00     0.952 C  
HETATM   22  N   UNL     1     -12.730  14.830  63.909  1.00  0.00    -0.835 N  
HETATM   23  O   UNL     1     -14.250  15.565  65.451  1.00  0.00     2.167 OA 
HETATM   24  C   UNL     1     -11.997  13.742  63.540  1.00  0.00    -0.149 C  
HETATM   25  H   UNL     1     -12.793  15.647  63.300  1.00  0.00     0.000 HD 
HETATM   26  O   UNL     1     -11.530  13.602  62.418  1.00  0.00     2.161 OA 
ENDBRANCH  18  19
ENDBRANCH  15  18
ENDBRANCH  11  12
ENDBRANCH  10  11
ENDBRANCH   9  10
ENDBRANCH   6   9
ENDBRANCH   2   3
TORSDOF 7
ENDMDL
