MODEL        1
REMARK 921   NORMALIZED FREE ENERGY PREDICTED BY IDOCK:   -5.72 KCAL/MOL
REMARK 922        TOTAL FREE ENERGY PREDICTED BY IDOCK:   -9.45 KCAL/MOL
REMARK 923 INTER-LIGAND FREE ENERGY PREDICTED BY IDOCK:   -7.72 KCAL/MOL
REMARK 924 INTRA-LIGAND FREE ENERGY PREDICTED BY IDOCK:   -1.73 KCAL/MOL
REMARK 927      BINDING AFFINITY PREDICTED BY RF-SCORE:    0.00 PKD
ROOT
HETATM    1  C   UNL     1      -8.325  12.479  67.808  1.00  0.00    -0.170 C  
HETATM    2  C   UNL     1      -7.938  11.828  66.605  1.00  0.00    -0.070 C  
HETATM    3  C   UNL     1      -9.428  11.558  66.766  1.00  0.00    -0.189 C  
HETATM    4  C   UNL     1     -10.192  12.747  68.273  1.00  0.00    -0.244 C  
HETATM    5  C   UNL     1     -10.616   9.218  71.223  1.00  0.00    -0.417 C  
HETATM    6  C   UNL     1      -9.911  13.041  66.976  1.00  0.00    -0.242 C  
HETATM    7  C   UNL     1      -9.729   8.754  70.041  1.00  0.00    -0.182 C  
HETATM    8  C   UNL     1     -10.406   7.319  69.390  1.00  0.00    -0.212 C  
HETATM    9  C   UNL     1      -9.821  14.316  66.160  1.00  0.00    -0.335 C  
HETATM   10  C   UNL     1     -11.500  12.010  67.231  1.00  0.00    -0.403 C  
HETATM   11  C   UNL     1      -9.338   6.169  68.950  1.00  0.00    -0.124 C  
HETATM   12  C   UNL     1      -8.570   6.043  70.287  1.00  0.00    -0.143 C  
HETATM   13  C   UNL     1      -7.523   7.174  70.225  1.00  0.00    -0.085 C  
HETATM   14  C   UNL     1     -11.278  10.701  68.519  1.00  0.00    -0.342 C  
HETATM   15  C   UNL     1      -8.264   8.474  70.677  1.00  0.00    -0.129 C  
HETATM   16  C   UNL     1      -7.330   9.693  70.768  1.00  0.00    -0.060 C  
HETATM   17  C   UNL     1      -7.191  10.514  69.488  1.00  0.00    -0.137 C  
HETATM   18  C   UNL     1      -8.529  11.164  69.129  1.00  0.00     0.029 C  
HETATM   19  C   UNL     1      -9.745   9.980  68.959  1.00  0.00    -0.204 C  
ENDROOT
BRANCH   3  20
HETATM   20  N   UNL     1     -10.061  10.939  65.421  1.00  0.00    -0.262 NA 
HETATM   21  C   UNL     1      -6.599  10.146  63.441  1.00  0.00    -0.132 C  
HETATM   22  C   UNL     1      -9.994  11.505  64.069  1.00  0.00    -0.303 C  
HETATM   23  C   UNL     1      -8.246   8.494  62.603  1.00  0.00    -0.185 C  
HETATM   24  C   UNL     1      -9.857   9.492  65.277  1.00  0.00    -0.109 C  
HETATM   25  C   UNL     1      -8.935  10.961  63.039  1.00  0.00    -0.256 C  
HETATM   26  N   UNL     1      -8.072   9.719  63.495  1.00  0.00    -0.139 N  
HETATM   27  C   UNL     1      -8.404   9.243  64.906  1.00  0.00    -0.158 C  
ENDBRANCH   3  20
BRANCH   4  28
HETATM   28  O   UNL     1     -10.951  14.086  68.338  1.00  0.00    -0.237 OA 
BRANCH  28  29
HETATM   29  C   UNL     1     -11.190  14.687  69.529  1.00  0.00    -0.269 C  
HETATM   30  C   UNL     1     -12.211  13.955  70.355  1.00  0.00    -0.438 C  
HETATM   31  O   UNL     1     -10.586  15.685  69.938  1.00  0.00    -0.278 OA 
ENDBRANCH  28  29
ENDBRANCH   4  28
BRANCH  12  32
HETATM   32  O   UNL     1      -8.220   4.700  70.624  1.00  0.00    -0.080 OA 
BRANCH  32  33
HETATM   33  C   UNL     1      -8.669   4.339  71.859  1.00  0.00    -0.111 C  
HETATM   34  O   UNL     1      -8.219   3.355  72.418  1.00  0.00    -0.076 OA 
HETATM   35  C   UNL     1      -9.823   5.126  72.439  1.00  0.00    -0.208 C  
ENDBRANCH  32  33
ENDBRANCH  12  32
BRANCH  11  36
HETATM   36  N   UNL     1      -9.612   4.898  68.156  1.00  0.00    -0.137 NA 
HETATM   37  C   UNL     1      -7.843   3.959  66.365  1.00  0.00    -0.090 C  
HETATM   38  C   UNL     1      -8.552   3.934  67.782  1.00  0.00    -0.098 C  
HETATM   39  N   UNL     1      -8.714   4.377  65.154  1.00  0.00    -0.125 N  
HETATM   40  C   UNL     1      -9.315   3.148  64.470  1.00  0.00    -0.144 C  
HETATM   41  C   UNL     1      -9.781   5.399  65.587  1.00  0.00     0.049 C  
HETATM   42  C   UNL     1      -7.821   5.052  64.081  1.00  0.00    -0.095 C  
HETATM   43  C   UNL     1     -10.470   5.049  66.938  1.00  0.00    -0.186 C  
ENDBRANCH  11  36
TORSDOF 6
ENDMDL
MODEL        2
REMARK 921   NORMALIZED FREE ENERGY PREDICTED BY IDOCK:   -5.23 KCAL/MOL
REMARK 922        TOTAL FREE ENERGY PREDICTED BY IDOCK:   -8.80 KCAL/MOL
REMARK 923 INTER-LIGAND FREE ENERGY PREDICTED BY IDOCK:   -8.12 KCAL/MOL
REMARK 924 INTRA-LIGAND FREE ENERGY PREDICTED BY IDOCK:   -0.68 KCAL/MOL
REMARK 927      BINDING AFFINITY PREDICTED BY RF-SCORE:    0.00 PKD
ROOT
HETATM    1  C   UNL     1      -7.304   7.390  68.738  1.00  0.00    -0.095 C  
HETATM    2  C   UNL     1      -8.124   7.571  69.885  1.00  0.00    -0.129 C  
HETATM    3  C   UNL     1      -9.079   7.406  68.711  1.00  0.00    -0.131 C  
HETATM    4  C   UNL     1      -8.032   6.774  67.046  1.00  0.00    -0.109 C  
HETATM    5  C   UNL     1      -8.326  10.883  64.956  1.00  0.00     0.034 C  
HETATM    6  C   UNL     1      -8.489   6.073  68.117  1.00  0.00    -0.115 C  
HETATM    7  C   UNL     1      -8.731  11.067  66.440  1.00  0.00    -0.174 C  
HETATM    8  C   UNL     1     -10.272  11.816  66.489  1.00  0.00    -0.240 C  
HETATM    9  C   UNL     1      -8.271   4.672  68.655  1.00  0.00    -0.082 C  
HETATM   10  C   UNL     1      -9.838   6.568  66.858  1.00  0.00    -0.211 C  
HETATM   11  C   UNL     1     -10.471  12.951  67.643  1.00  0.00    -0.224 C  
HETATM   12  C   UNL     1      -9.262  13.849  67.296  1.00  0.00    -0.235 C  
HETATM   13  C   UNL     1      -8.077  13.180  68.024  1.00  0.00    -0.157 C  
HETATM   14  C   UNL     1      -9.598   8.291  66.225  1.00  0.00    -0.266 C  
HETATM   15  C   UNL     1      -7.593  12.024  67.088  1.00  0.00    -0.146 C  
HETATM   16  C   UNL     1      -6.342  11.308  67.624  1.00  0.00    -0.059 C  
HETATM   17  C   UNL     1      -6.606  10.119  68.545  1.00  0.00    -0.053 C  
HETATM   18  C   UNL     1      -7.309   8.999  67.775  1.00  0.00    -0.084 C  
HETATM   19  C   UNL     1      -8.763   9.565  67.086  1.00  0.00    -0.137 C  
ENDROOT
BRANCH   3  20
HETATM   20  N   UNL     1     -10.593   7.184  69.213  1.00  0.00    -0.218 NA 
HETATM   21  C   UNL     1     -10.025   7.919  73.171  1.00  0.00    -0.290 C  
HETATM   22  C   UNL     1     -11.085   6.125  70.101  1.00  0.00    -0.378 C  
HETATM   23  C   UNL     1     -12.380   8.538  72.703  1.00  0.00    -0.222 C  
HETATM   24  C   UNL     1     -11.273   8.420  69.621  1.00  0.00     0.100 C  
HETATM   25  C   UNL     1     -11.318   6.424  71.629  1.00  0.00    -0.289 C  
HETATM   26  N   UNL     1     -11.123   7.920  72.099  1.00  0.00    -0.272 N  
HETATM   27  C   UNL     1     -10.715   8.856  70.966  1.00  0.00    -0.247 C  
ENDBRANCH   3  20
BRANCH   4  28
HETATM   28  O   UNL     1      -7.772   5.419  66.360  1.00  0.00    -0.097 OA 
BRANCH  28  29
HETATM   29  C   UNL     1      -6.828   5.304  65.395  1.00  0.00    -0.060 C  
HETATM   30  C   UNL     1      -6.227   6.627  65.008  1.00  0.00    -0.038 C  
HETATM   31  O   UNL     1      -6.438   4.228  64.928  1.00  0.00    -0.034 OA 
ENDBRANCH  28  29
ENDBRANCH   4  28
BRANCH  12  32
HETATM   32  O   UNL     1      -9.532  15.247  67.409  1.00  0.00    -0.197 OA 
BRANCH  32  33
HETATM   33  C   UNL     1      -9.128  15.947  66.312  1.00  0.00    -0.344 C  
HETATM   34  O   UNL     1      -9.796  15.945  65.295  1.00  0.00    -0.408 OA 
HETATM   35  C   UNL     1      -7.769  16.611  66.371  1.00  0.00    -0.328 C  
ENDBRANCH  32  33
ENDBRANCH  12  32
BRANCH  11  36
HETATM   36  N   UNL     1     -11.769  13.626  68.073  1.00  0.00    -0.333 NA 
HETATM   37  C   UNL     1     -11.763  15.748  69.720  1.00  0.00    -0.348 C  
HETATM   38  C   UNL     1     -11.888  15.086  68.285  1.00  0.00    -0.268 C  
HETATM   39  N   UNL     1     -12.307  14.930  70.918  1.00  0.00    -0.303 N  
HETATM   40  C   UNL     1     -13.756  15.318  71.223  1.00  0.00    -0.490 C  
HETATM   41  C   UNL     1     -12.136  13.422  70.662  1.00  0.00    -0.295 C  
HETATM   42  C   UNL     1     -11.506  15.287  72.196  1.00  0.00    -0.407 C  
HETATM   43  C   UNL     1     -12.502  12.988  69.212  1.00  0.00     0.261 C  
ENDBRANCH  11  36
TORSDOF 6
ENDMDL
MODEL        3
REMARK 921   NORMALIZED FREE ENERGY PREDICTED BY IDOCK:   -4.99 KCAL/MOL
REMARK 922        TOTAL FREE ENERGY PREDICTED BY IDOCK:   -8.48 KCAL/MOL
REMARK 923 INTER-LIGAND FREE ENERGY PREDICTED BY IDOCK:   -6.48 KCAL/MOL
REMARK 924 INTRA-LIGAND FREE ENERGY PREDICTED BY IDOCK:   -2.00 KCAL/MOL
REMARK 927      BINDING AFFINITY PREDICTED BY RF-SCORE:    0.00 PKD
ROOT
HETATM    1  C   UNL     1      -9.708   4.122  69.744  1.00  0.00    -0.278 C  
HETATM    2  C   UNL     1      -9.775   3.979  68.331  1.00  0.00    -0.135 C  
HETATM    3  C   UNL     1      -8.352   4.426  68.639  1.00  0.00    -0.084 C  
HETATM    4  C   UNL     1      -8.013   4.317  70.674  1.00  0.00    -0.063 C  
HETATM    5  C   UNL     1      -8.122   8.903  71.218  1.00  0.00    -0.185 C  
HETATM    6  C   UNL     1      -7.999   3.344  69.726  1.00  0.00    -0.057 C  
HETATM    7  C   UNL     1      -8.689   8.571  69.815  1.00  0.00    -0.132 C  
HETATM    8  C   UNL     1      -7.814   9.477  68.652  1.00  0.00    -0.084 C  
HETATM    9  C   UNL     1      -7.957   1.828  69.745  1.00  0.00    -0.052 C  
HETATM   10  C   UNL     1      -6.467   4.485  69.714  1.00  0.00    -0.032 C  
HETATM   11  C   UNL     1      -8.697  10.105  67.434  1.00  0.00    -0.125 C  
HETATM   12  C   UNL     1      -9.747  10.866  68.276  1.00  0.00    -0.165 C  
HETATM   13  C   UNL     1     -10.803   9.793  68.617  1.00  0.00    -0.223 C  
HETATM   14  C   UNL     1      -6.921   6.258  69.990  1.00  0.00    -0.066 C  
HETATM   15  C   UNL     1     -10.247   9.018  69.856  1.00  0.00    -0.214 C  
HETATM   16  C   UNL     1     -11.232   7.965  70.392  1.00  0.00    -0.240 C  
HETATM   17  C   UNL     1     -11.108   6.573  69.777  1.00  0.00    -0.430 C  
HETATM   18  C   UNL     1      -9.754   5.955  70.135  1.00  0.00    -0.211 C  
HETATM   19  C   UNL     1      -8.479   6.961  69.616  1.00  0.00    -0.133 C  
ENDROOT
BRANCH   3  20
HETATM   20  N   UNL     1      -7.397   4.271  67.351  1.00  0.00    -0.068 NA 
HETATM   21  C   UNL     1     -10.280   3.959  64.502  1.00  0.00    -0.223 C  
HETATM   22  C   UNL     1      -7.265   3.095  66.483  1.00  0.00    -0.062 C  
HETATM   23  C   UNL     1      -8.313   4.947  63.362  1.00  0.00    -0.115 C  
HETATM   24  C   UNL     1      -7.392   5.443  66.467  1.00  0.00    -0.086 C  
HETATM   25  C   UNL     1      -8.027   3.043  65.106  1.00  0.00    -0.082 C  
HETATM   26  N   UNL     1      -8.806   4.348  64.675  1.00  0.00    -0.141 N  
HETATM   27  C   UNL     1      -8.703   5.474  65.699  1.00  0.00    -0.153 C  
ENDBRANCH   3  20
BRANCH   4  28
HETATM   28  O   UNL     1      -7.353   3.302  71.625  1.00  0.00    -0.041 OA 
BRANCH  28  29
HETATM   29  C   UNL     1      -7.451   3.449  72.969  1.00  0.00    -0.059 C  
HETATM   30  C   UNL     1      -7.822   4.849  73.374  1.00  0.00    -0.096 C  
HETATM   31  O   UNL     1      -7.329   2.525  73.781  1.00  0.00    -0.038 OA 
ENDBRANCH  28  29
ENDBRANCH   4  28
BRANCH  12  32
HETATM   32  O   UNL     1     -10.104  12.139  67.737  1.00  0.00    -0.192 OA 
BRANCH  32  33
HETATM   33  C   UNL     1     -11.446  12.368  67.785  1.00  0.00    -0.324 C  
HETATM   34  O   UNL     1     -12.158  12.081  66.840  1.00  0.00    -0.608 OA 
HETATM   35  C   UNL     1     -11.985  13.102  68.993  1.00  0.00    -0.329 C  
ENDBRANCH  32  33
ENDBRANCH  12  32
BRANCH  11  36
HETATM   36  N   UNL     1      -8.188  10.761  66.156  1.00  0.00    -0.160 NA 
HETATM   37  C   UNL     1      -8.058   9.402  63.841  1.00  0.00    -0.154 C  
HETATM   38  C   UNL     1      -8.737  10.452  64.815  1.00  0.00    -0.186 C  
HETATM   39  N   UNL     1      -6.513   9.305  63.884  1.00  0.00    -0.089 N  
HETATM   40  C   UNL     1      -5.885  10.208  62.820  1.00  0.00    -0.121 C  
HETATM   41  C   UNL     1      -5.994   9.605  65.302  1.00  0.00    -0.069 C  
HETATM   42  C   UNL     1      -6.073   7.864  63.515  1.00  0.00    -0.063 C  
HETATM   43  C   UNL     1      -6.702  10.812  65.984  1.00  0.00    -0.109 C  
ENDBRANCH  11  36
TORSDOF 6
ENDMDL
MODEL        4
REMARK 921   NORMALIZED FREE ENERGY PREDICTED BY IDOCK:   -4.95 KCAL/MOL
REMARK 922        TOTAL FREE ENERGY PREDICTED BY IDOCK:   -8.42 KCAL/MOL
REMARK 923 INTER-LIGAND FREE ENERGY PREDICTED BY IDOCK:   -8.08 KCAL/MOL
REMARK 924 INTRA-LIGAND FREE ENERGY PREDICTED BY IDOCK:   -0.34 KCAL/MOL
REMARK 927      BINDING AFFINITY PREDICTED BY RF-SCORE:    0.00 PKD
ROOT
HETATM    1  C   UNL     1      -9.661   3.959  70.104  1.00  0.00    -0.267 C  
HETATM    2  C   UNL     1      -9.599   4.072  68.688  1.00  0.00    -0.190 C  
HETATM    3  C   UNL     1      -8.304   4.678  69.212  1.00  0.00    -0.079 C  
HETATM    4  C   UNL     1      -8.099   4.250  71.223  1.00  0.00    -0.081 C  
HETATM    5  C   UNL     1      -9.059   8.577  72.525  1.00  0.00    -0.284 C  
HETATM    6  C   UNL     1      -7.845   3.484  70.130  1.00  0.00    -0.048 C  
HETATM    7  C   UNL     1      -9.455   8.424  71.035  1.00  0.00    -0.212 C  
HETATM    8  C   UNL     1      -8.673   9.659  70.140  1.00  0.00    -0.263 C  
HETATM    9  C   UNL     1      -7.536   2.018  69.895  1.00  0.00    -0.043 C  
HETATM   10  C   UNL     1      -6.543   4.840  70.470  1.00  0.00    -0.035 C  
HETATM   11  C   UNL     1      -9.563  10.350  68.962  1.00  0.00    -0.204 C  
HETATM   12  C   UNL     1     -10.789  10.762  69.809  1.00  0.00    -0.226 C  
HETATM   13  C   UNL     1     -11.660   9.488  69.851  1.00  0.00    -0.026 C  
HETATM   14  C   UNL     1      -7.322   6.435  70.995  1.00  0.00    -0.083 C  
HETATM   15  C   UNL     1     -11.067   8.597  70.991  1.00  0.00    -0.316 C  
HETATM   16  C   UNL     1     -11.885   7.319  71.236  1.00  0.00    -0.340 C  
HETATM   17  C   UNL     1     -11.472   6.103  70.410  1.00  0.00    -0.342 C  
HETATM   18  C   UNL     1     -10.060   5.656  70.794  1.00  0.00    -0.270 C  
HETATM   19  C   UNL     1      -8.949   6.934  70.588  1.00  0.00    -0.151 C  
ENDROOT
BRANCH   3  20
HETATM   20  N   UNL     1      -7.247   4.920  68.022  1.00  0.00    -0.065 NA 
HETATM   21  C   UNL     1      -9.771   4.444  64.871  1.00  0.00    -0.145 C  
HETATM   22  C   UNL     1      -6.794   3.941  67.027  1.00  0.00    -0.051 C  
HETATM   23  C   UNL     1      -7.993   5.980  64.081  1.00  0.00    -0.119 C  
HETATM   24  C   UNL     1      -7.436   6.187  67.304  1.00  0.00    -0.081 C  
HETATM   25  C   UNL     1      -7.422   3.939  65.583  1.00  0.00    -0.081 C  
HETATM   26  N   UNL     1      -8.437   5.101  65.246  1.00  0.00    -0.138 N  
HETATM   27  C   UNL     1      -8.661   6.058  66.413  1.00  0.00    -0.133 C  
ENDBRANCH   3  20
BRANCH   4  28
HETATM   28  O   UNL     1      -7.340   3.196  72.050  1.00  0.00    -0.048 OA 
BRANCH  28  29
HETATM   29  C   UNL     1      -7.570   3.064  73.379  1.00  0.00    -0.052 C  
HETATM   30  C   UNL     1      -8.153   4.307  73.994  1.00  0.00    -0.092 C  
HETATM   31  O   UNL     1      -7.398   2.019  74.015  1.00  0.00    -0.031 OA 
ENDBRANCH  28  29
ENDBRANCH   4  28
BRANCH  12  32
HETATM   32  O   UNL     1     -11.327  12.039  69.461  1.00  0.00    -0.267 OA 
BRANCH  32  33
HETATM   33  C   UNL     1     -12.108  12.562  70.447  1.00  0.00    -0.297 C  
HETATM   34  O   UNL     1     -12.668  11.834  71.246  1.00  0.00    -0.387 OA 
HETATM   35  C   UNL     1     -12.347  14.056  70.427  1.00  0.00    -0.429 C  
ENDBRANCH  32  33
ENDBRANCH  12  32
BRANCH  11  36
HETATM   36  N   UNL     1      -9.088  11.305  67.873  1.00  0.00    -0.146 NA 
HETATM   37  C   UNL     1     -10.152  13.756  67.600  1.00  0.00    -0.242 C  
HETATM   38  C   UNL     1      -9.001  12.771  68.065  1.00  0.00    -0.196 C  
HETATM   39  N   UNL     1     -10.924  13.374  66.313  1.00  0.00    -0.287 N  
HETATM   40  C   UNL     1     -10.300  14.046  65.088  1.00  0.00    -0.400 C  
HETATM   41  C   UNL     1     -11.011  11.843  66.173  1.00  0.00    -0.308 C  
HETATM   42  C   UNL     1     -12.371  13.924  66.393  1.00  0.00    -0.426 C  
HETATM   43  C   UNL     1      -9.682  11.108  66.513  1.00  0.00    -0.198 C  
ENDBRANCH  11  36
TORSDOF 6
ENDMDL
MODEL        5
REMARK 921   NORMALIZED FREE ENERGY PREDICTED BY IDOCK:   -4.94 KCAL/MOL
REMARK 922        TOTAL FREE ENERGY PREDICTED BY IDOCK:   -8.41 KCAL/MOL
REMARK 923 INTER-LIGAND FREE ENERGY PREDICTED BY IDOCK:   -6.94 KCAL/MOL
REMARK 924 INTRA-LIGAND FREE ENERGY PREDICTED BY IDOCK:   -1.47 KCAL/MOL
REMARK 927      BINDING AFFINITY PREDICTED BY RF-SCORE:    0.00 PKD
ROOT
HETATM    1  C   UNL     1      -7.219   8.006  69.830  1.00  0.00    -0.061 C  
HETATM    2  C   UNL     1      -8.313   8.172  70.723  1.00  0.00    -0.120 C  
HETATM    3  C   UNL     1      -8.889   8.328  69.322  1.00  0.00    -0.143 C  
HETATM    4  C   UNL     1      -7.484   7.750  67.923  1.00  0.00    -0.104 C  
HETATM    5  C   UNL     1      -6.626  12.086  66.583  1.00  0.00     0.160 C  
HETATM    6  C   UNL     1      -8.322   7.004  68.689  1.00  0.00    -0.122 C  
HETATM    7  C   UNL     1      -7.426  12.141  67.908  1.00  0.00    -0.117 C  
HETATM    8  C   UNL     1      -8.806  13.130  67.664  1.00  0.00    -0.191 C  
HETATM    9  C   UNL     1      -8.452   5.528  69.013  1.00  0.00    -0.101 C  
HETATM   10  C   UNL     1      -9.164   7.882  67.216  1.00  0.00    -0.167 C  
HETATM   11  C   UNL     1      -9.193  14.120  68.900  1.00  0.00    -0.001 C  
HETATM   12  C   UNL     1      -7.832  14.837  69.058  1.00  0.00    -0.150 C  
HETATM   13  C   UNL     1      -7.010  13.885  69.953  1.00  0.00     0.204 C  
HETATM   14  C   UNL     1      -8.533   9.606  66.983  1.00  0.00    -0.124 C  
HETATM   15  C   UNL     1      -6.421  12.796  68.999  1.00  0.00    -0.096 C  
HETATM   16  C   UNL     1      -5.485  11.813  69.722  1.00  0.00    -0.082 C  
HETATM   17  C   UNL     1      -6.157  10.576  70.313  1.00  0.00    -0.115 C  
HETATM   18  C   UNL     1      -6.736   9.704  69.198  1.00  0.00    -0.049 C  
HETATM   19  C   UNL     1      -7.837  10.595  68.249  1.00  0.00    -0.113 C  
ENDROOT
BRANCH   3  20
HETATM   20  N   UNL     1     -10.499   8.304  69.345  1.00  0.00    -0.223 NA 
HETATM   21  C   UNL     1     -11.033   7.660  73.324  1.00  0.00    -0.274 C  
HETATM   22  C   UNL     1     -11.363   7.161  69.662  1.00  0.00    -0.072 C  
HETATM   23  C   UNL     1     -13.044   8.895  72.567  1.00  0.00    -0.364 C  
HETATM   24  C   UNL     1     -11.104   9.476  69.991  1.00  0.00    -0.237 C  
HETATM   25  C   UNL     1     -11.995   7.027  71.098  1.00  0.00    -0.356 C  
HETATM   26  N   UNL     1     -11.756   8.228  72.096  1.00  0.00    -0.340 N  
HETATM   27  C   UNL     1     -10.915   9.350  71.494  1.00  0.00    -0.359 C  
ENDBRANCH   3  20
BRANCH   4  28
HETATM   28  O   UNL     1      -7.205   6.472  67.109  1.00  0.00    -0.077 OA 
BRANCH  28  29
HETATM   29  C   UNL     1      -6.026   6.309  66.461  1.00  0.00    -0.028 C  
HETATM   30  C   UNL     1      -5.481   7.599  65.914  1.00  0.00    -0.029 C  
HETATM   31  O   UNL     1      -5.414   5.238  66.388  1.00  0.00    -0.012 OA 
ENDBRANCH  28  29
ENDBRANCH   4  28
BRANCH  12  32
HETATM   32  O   UNL     1      -7.946  16.233  69.336  1.00  0.00    -0.216 OA 
BRANCH  32  33
HETATM   33  C   UNL     1      -7.401  17.006  68.354  1.00  0.00    -0.213 C  
HETATM   34  O   UNL     1      -7.646  18.197  68.297  1.00  0.00    -0.255 OA 
HETATM   35  C   UNL     1      -6.597  16.305  67.281  1.00  0.00    -0.228 C  
ENDBRANCH  32  33
ENDBRANCH  12  32
BRANCH  11  36
HETATM   36  N   UNL     1     -10.464  14.945  69.070  1.00  0.00    -0.241 NA 
HETATM   37  C   UNL     1     -11.678  15.168  71.456  1.00  0.00    -0.390 C  
HETATM   38  C   UNL     1     -10.761  15.729  70.290  1.00  0.00    -0.329 C  
HETATM   39  N   UNL     1     -12.855  14.251  71.042  1.00  0.00    -0.342 N  
HETATM   40  C   UNL     1     -14.138  15.065  70.864  1.00  0.00    -0.085 C  
HETATM   41  C   UNL     1     -12.487  13.438  69.787  1.00  0.00    -0.054 C  
HETATM   42  C   UNL     1     -13.157  13.247  72.184  1.00  0.00    -0.385 C  
HETATM   43  C   UNL     1     -11.747  14.269  68.699  1.00  0.00    -0.345 C  
ENDBRANCH  11  36
TORSDOF 6
ENDMDL
MODEL        6
REMARK 921   NORMALIZED FREE ENERGY PREDICTED BY IDOCK:   -4.88 KCAL/MOL
REMARK 922        TOTAL FREE ENERGY PREDICTED BY IDOCK:   -8.32 KCAL/MOL
REMARK 923 INTER-LIGAND FREE ENERGY PREDICTED BY IDOCK:   -7.60 KCAL/MOL
REMARK 924 INTRA-LIGAND FREE ENERGY PREDICTED BY IDOCK:   -0.72 KCAL/MOL
REMARK 927      BINDING AFFINITY PREDICTED BY RF-SCORE:    0.00 PKD
ROOT
HETATM    1  C   UNL     1      -6.852   6.409  68.400  1.00  0.00    -0.071 C  
HETATM    2  C   UNL     1      -7.509   6.632  69.641  1.00  0.00    -0.096 C  
HETATM    3  C   UNL     1      -8.604   6.265  68.648  1.00  0.00    -0.121 C  
HETATM    4  C   UNL     1      -7.753   5.561  66.902  1.00  0.00    -0.100 C  
HETATM    5  C   UNL     1      -8.771   9.394  64.533  1.00  0.00    -0.233 C  
HETATM    6  C   UNL     1      -7.973   4.936  68.088  1.00  0.00    -0.086 C  
HETATM    7  C   UNL     1      -8.971   9.692  66.040  1.00  0.00    -0.195 C  
HETATM    8  C   UNL     1     -10.557  10.303  66.263  1.00  0.00    -0.150 C  
HETATM    9  C   UNL     1      -7.536   3.622  68.707  1.00  0.00    -0.053 C  
HETATM   10  C   UNL     1      -9.536   5.179  67.017  1.00  0.00    -0.155 C  
HETATM   11  C   UNL     1     -10.700  11.528  67.330  1.00  0.00    -0.244 C  
HETATM   12  C   UNL     1      -9.653  12.489  66.721  1.00  0.00    -0.231 C  
HETATM   13  C   UNL     1      -8.312  12.005  67.311  1.00  0.00    -0.176 C  
HETATM   14  C   UNL     1      -9.570   6.843  66.206  1.00  0.00    -0.089 C  
HETATM   15  C   UNL     1      -7.854  10.806  66.417  1.00  0.00    -0.148 C  
HETATM   16  C   UNL     1      -6.471  10.262  66.811  1.00  0.00    -0.073 C  
HETATM   17  C   UNL     1      -6.473   9.154  67.862  1.00  0.00    -0.056 C  
HETATM   18  C   UNL     1      -7.163   7.904  67.312  1.00  0.00    -0.090 C  
HETATM   19  C   UNL     1      -8.753   8.267  66.812  1.00  0.00    -0.143 C  
ENDROOT
BRANCH   3  20
HETATM   20  N   UNL     1      -9.997   5.963  69.397  1.00  0.00    -0.166 NA 
HETATM   21  C   UNL     1      -9.485   8.394  72.616  1.00  0.00    -0.265 C  
HETATM   22  C   UNL     1     -10.179   5.298  70.693  1.00  0.00    -0.257 C  
HETATM   23  C   UNL     1     -11.935   8.251  72.264  1.00  0.00    -0.386 C  
HETATM   24  C   UNL     1     -10.946   7.083  69.367  1.00  0.00    -0.201 C  
HETATM   25  C   UNL     1     -10.424   6.156  71.990  1.00  0.00    -0.211 C  
HETATM   26  N   UNL     1     -10.587   7.715  71.792  1.00  0.00    -0.212 N  
HETATM   27  C   UNL     1     -10.465   8.151  70.336  1.00  0.00    -0.215 C  
ENDBRANCH   3  20
BRANCH   4  28
HETATM   28  O   UNL     1      -7.459   4.172  66.305  1.00  0.00    -0.082 OA 
BRANCH  28  29
HETATM   29  C   UNL     1      -6.760   4.050  65.151  1.00  0.00    -0.048 C  
HETATM   30  C   UNL     1      -6.848   5.277  64.286  1.00  0.00    -0.048 C  
HETATM   31  O   UNL     1      -6.059   3.074  64.861  1.00  0.00    -0.018 OA 
ENDBRANCH  28  29
ENDBRANCH   4  28
BRANCH  12  32
HETATM   32  O   UNL     1     -10.046  13.862  66.753  1.00  0.00    -0.255 OA 
BRANCH  32  33
HETATM   33  C   UNL     1     -10.056  14.430  65.514  1.00  0.00    -0.356 C  
HETATM   34  O   UNL     1      -9.849  15.622  65.378  1.00  0.00    -0.310 OA 
HETATM   35  C   UNL     1     -10.458  13.553  64.349  1.00  0.00    -0.366 C  
ENDBRANCH  32  33
ENDBRANCH  12  32
BRANCH  11  36
HETATM   36  N   UNL     1     -11.982  12.126  67.896  1.00  0.00    -0.512 NA 
HETATM   37  C   UNL     1     -12.074  14.664  68.772  1.00  0.00    -0.202 C  
HETATM   38  C   UNL     1     -12.372  13.540  67.694  1.00  0.00    -0.003 C  
HETATM   39  N   UNL     1     -12.136  14.241  70.260  1.00  0.00    -0.314 N  
HETATM   40  C   UNL     1     -13.527  14.509  70.841  1.00  0.00    -0.214 C  
HETATM   41  C   UNL     1     -11.697  12.775  70.421  1.00  0.00    -0.012 C  
HETATM   42  C   UNL     1     -11.166  15.120  71.090  1.00  0.00    -0.281 C  
HETATM   43  C   UNL     1     -12.276  11.825  69.332  1.00  0.00    -0.157 C  
ENDBRANCH  11  36
TORSDOF 6
ENDMDL
MODEL        7
REMARK 921   NORMALIZED FREE ENERGY PREDICTED BY IDOCK:   -4.73 KCAL/MOL
REMARK 922        TOTAL FREE ENERGY PREDICTED BY IDOCK:   -8.12 KCAL/MOL
REMARK 923 INTER-LIGAND FREE ENERGY PREDICTED BY IDOCK:   -7.73 KCAL/MOL
REMARK 924 INTRA-LIGAND FREE ENERGY PREDICTED BY IDOCK:   -0.38 KCAL/MOL
REMARK 927      BINDING AFFINITY PREDICTED BY RF-SCORE:    0.00 PKD
ROOT
HETATM    1  C   UNL     1      -7.416   8.738  68.833  1.00  0.00    -0.083 C  
HETATM    2  C   UNL     1      -7.737   9.005  70.192  1.00  0.00    -0.089 C  
HETATM    3  C   UNL     1      -9.067   8.952  69.451  1.00  0.00    -0.145 C  
HETATM    4  C   UNL     1      -8.773   8.212  67.545  1.00  0.00    -0.129 C  
HETATM    5  C   UNL     1      -9.376  12.334  65.551  1.00  0.00     0.057 C  
HETATM    6  C   UNL     1      -8.878   7.563  68.735  1.00  0.00    -0.131 C  
HETATM    7  C   UNL     1      -9.189  12.558  67.072  1.00  0.00    -0.214 C  
HETATM    8  C   UNL     1     -10.519  13.475  67.650  1.00  0.00    -0.239 C  
HETATM    9  C   UNL     1      -8.627   6.145  69.210  1.00  0.00    -0.119 C  
HETATM   10  C   UNL     1     -10.533   8.210  68.034  1.00  0.00    -0.242 C  
HETATM   11  C   UNL     1     -10.162  14.620  68.753  1.00  0.00    -0.242 C  
HETATM   12  C   UNL     1      -9.076  15.379  67.956  1.00  0.00    -0.175 C  
HETATM   13  C   UNL     1      -7.784  14.580  68.229  1.00  0.00    -0.126 C  
HETATM   14  C   UNL     1     -10.362   9.897  67.292  1.00  0.00    -0.303 C  
HETATM   15  C   UNL     1      -7.800  13.380  67.227  1.00  0.00    -0.107 C  
HETATM   16  C   UNL     1      -6.522  12.527  67.297  1.00  0.00    -0.124 C  
HETATM   17  C   UNL     1      -6.555  11.372  68.296  1.00  0.00    -0.058 C  
HETATM   18  C   UNL     1      -7.604  10.340  67.877  1.00  0.00    -0.089 C  
HETATM   19  C   UNL     1      -9.141  11.067  67.742  1.00  0.00    -0.147 C  
ENDROOT
BRANCH   3  20
HETATM   20  N   UNL     1     -10.307   8.899  70.477  1.00  0.00    -0.193 NA 
HETATM   21  C   UNL     1      -9.348   5.447  72.400  1.00  0.00    -0.143 C  
HETATM   22  C   UNL     1     -11.386   7.905  70.510  1.00  0.00    -0.234 C  
HETATM   23  C   UNL     1     -10.623   6.799  74.041  1.00  0.00    -0.155 C  
HETATM   24  C   UNL     1      -9.938   9.160  71.874  1.00  0.00    -0.094 C  
HETATM   25  C   UNL     1     -11.331   6.718  71.543  1.00  0.00    -0.275 C  
HETATM   26  N   UNL     1     -10.150   6.741  72.592  1.00  0.00    -0.171 N  
HETATM   27  C   UNL     1      -9.219   7.938  72.420  1.00  0.00    -0.181 C  
ENDBRANCH   3  20
BRANCH   4  28
HETATM   28  O   UNL     1      -8.925   6.839  66.864  1.00  0.00    -0.121 OA 
BRANCH  28  29
HETATM   29  C   UNL     1      -8.528   6.656  65.581  1.00  0.00    -0.144 C  
HETATM   30  C   UNL     1      -8.120   7.939  64.911  1.00  0.00    -0.144 C  
HETATM   31  O   UNL     1      -8.431   5.553  65.033  1.00  0.00    -0.145 OA 
ENDBRANCH  28  29
ENDBRANCH   4  28
BRANCH  12  32
HETATM   32  O   UNL     1      -9.137  16.798  68.107  1.00  0.00    -0.216 OA 
BRANCH  32  33
HETATM   33  C   UNL     1      -9.560  17.425  66.974  1.00  0.00    -0.273 C  
HETATM   34  O   UNL     1      -9.123  17.098  65.885  1.00  0.00    -0.513 OA 
HETATM   35  C   UNL     1     -10.484  18.613  67.137  1.00  0.00    -0.461 C  
ENDBRANCH  32  33
ENDBRANCH  12  32
BRANCH  11  36
HETATM   36  N   UNL     1     -11.134  15.435  69.598  1.00  0.00    -0.255 NA 
HETATM   37  C   UNL     1     -11.738  14.718  72.117  1.00  0.00    -0.154 C  
HETATM   38  C   UNL     1     -10.976  15.620  71.059  1.00  0.00    -0.237 C  
HETATM   39  N   UNL     1     -13.160  14.239  71.733  1.00  0.00    -0.339 N  
HETATM   40  C   UNL     1     -14.219  15.201  72.276  1.00  0.00    -0.517 C  
HETATM   41  C   UNL     1     -13.266  14.034  70.211  1.00  0.00     0.333 C  
HETATM   42  C   UNL     1     -13.450  12.878  72.415  1.00  0.00    -0.471 C  
HETATM   43  C   UNL     1     -12.591  15.164  69.379  1.00  0.00     0.075 C  
ENDBRANCH  11  36
TORSDOF 6
ENDMDL
MODEL        8
REMARK 921   NORMALIZED FREE ENERGY PREDICTED BY IDOCK:   -4.69 KCAL/MOL
REMARK 922        TOTAL FREE ENERGY PREDICTED BY IDOCK:   -8.07 KCAL/MOL
REMARK 923 INTER-LIGAND FREE ENERGY PREDICTED BY IDOCK:   -8.89 KCAL/MOL
REMARK 924 INTRA-LIGAND FREE ENERGY PREDICTED BY IDOCK:    0.81 KCAL/MOL
REMARK 927      BINDING AFFINITY PREDICTED BY RF-SCORE:    0.00 PKD
ROOT
HETATM    1  C   UNL     1     -11.243  14.609  68.433  1.00  0.00    -0.290 C  
HETATM    2  C   UNL     1     -10.235  15.017  69.348  1.00  0.00    -0.229 C  
HETATM    3  C   UNL     1      -9.503  14.355  68.188  1.00  0.00    -0.204 C  
HETATM    4  C   UNL     1     -10.816  14.043  66.624  1.00  0.00    -0.297 C  
HETATM    5  C   UNL     1     -11.012   9.483  67.330  1.00  0.00    -0.103 C  
HETATM    6  C   UNL     1     -10.155  15.167  67.008  1.00  0.00    -0.244 C  
HETATM    7  C   UNL     1     -10.351  10.134  68.571  1.00  0.00    -0.203 C  
HETATM    8  C   UNL     1      -8.847   9.360  68.849  1.00  0.00    -0.136 C  
HETATM    9  C   UNL     1     -10.235  16.637  66.644  1.00  0.00    -0.304 C  
HETATM   10  C   UNL     1      -9.068  13.872  66.117  1.00  0.00     0.066 C  
HETATM   11  C   UNL     1      -8.474   9.080  70.411  1.00  0.00    -0.182 C  
HETATM   12  C   UNL     1      -9.749   8.307  70.819  1.00  0.00    -0.172 C  
HETATM   13  C   UNL     1     -10.766   9.417  71.162  1.00  0.00    -0.417 C  
HETATM   14  C   UNL     1      -9.464  12.146  66.655  1.00  0.00    -0.226 C  
HETATM   15  C   UNL     1     -11.379   9.877  69.799  1.00  0.00    -0.241 C  
HETATM   16  C   UNL     1     -12.494  10.922  69.969  1.00  0.00    -0.332 C  
HETATM   17  C   UNL     1     -12.037  12.379  69.971  1.00  0.00    -0.335 C  
HETATM   18  C   UNL     1     -11.454  12.754  68.607  1.00  0.00    -0.341 C  
HETATM   19  C   UNL     1     -10.164  11.716  68.200  1.00  0.00    -0.206 C  
ENDROOT
BRANCH   3  20
HETATM   20  N   UNL     1      -7.918  14.630  68.262  1.00  0.00    -0.126 NA 
HETATM   21  C   UNL     1      -8.004  18.689  68.045  1.00  0.00    -0.273 C  
HETATM   22  C   UNL     1      -7.069  15.198  67.208  1.00  0.00    -0.126 C  
HETATM   23  C   UNL     1      -5.951  18.127  69.316  1.00  0.00    -0.235 C  
HETATM   24  C   UNL     1      -7.475  15.234  69.525  1.00  0.00    -0.214 C  
HETATM   25  C   UNL     1      -6.671  16.720  67.253  1.00  0.00    -0.175 C  
HETATM   26  N   UNL     1      -7.117  17.535  68.531  1.00  0.00    -0.216 N  
HETATM   27  C   UNL     1      -7.897  16.693  69.537  1.00  0.00     0.220 C  
ENDBRANCH   3  20
BRANCH   4  28
HETATM   28  O   UNL     1     -11.159  14.778  65.315  1.00  0.00    -0.332 OA 
BRANCH  28  29
HETATM   29  C   UNL     1     -12.135  14.315  64.497  1.00  0.00    -0.480 C  
HETATM   30  C   UNL     1     -12.433  12.857  64.717  1.00  0.00    -0.517 C  
HETATM   31  O   UNL     1     -12.774  15.018  63.707  1.00  0.00    -0.741 OA 
ENDBRANCH  28  29
ENDBRANCH   4  28
BRANCH  12  32
HETATM   32  O   UNL     1      -9.500   7.208  71.696  1.00  0.00    -0.153 OA 
BRANCH  32  33
HETATM   33  C   UNL     1     -10.457   6.242  71.605  1.00  0.00    -0.217 C  
HETATM   34  O   UNL     1     -10.757   5.574  72.578  1.00  0.00    -0.217 OA 
HETATM   35  C   UNL     1     -11.028   5.953  70.234  1.00  0.00    -0.390 C  
ENDBRANCH  32  33
ENDBRANCH  12  32
BRANCH  11  36
HETATM   36  N   UNL     1      -7.139   8.616  70.981  1.00  0.00    -0.067 NA 
HETATM   37  C   UNL     1      -6.819   6.129  71.948  1.00  0.00    -0.065 C  
HETATM   38  C   UNL     1      -6.631   7.233  70.826  1.00  0.00    -0.044 C  
HETATM   39  N   UNL     1      -6.779   6.612  73.419  1.00  0.00    -0.075 N  
HETATM   40  C   UNL     1      -5.365   6.486  73.991  1.00  0.00    -0.045 C  
HETATM   41  C   UNL     1      -7.342   8.040  73.532  1.00  0.00    -0.143 C  
HETATM   42  C   UNL     1      -7.662   5.684  74.293  1.00  0.00    -0.095 C  
HETATM   43  C   UNL     1      -6.857   8.995  72.402  1.00  0.00     0.239 C  
ENDBRANCH  11  36
TORSDOF 6
ENDMDL
MODEL        9
REMARK 921   NORMALIZED FREE ENERGY PREDICTED BY IDOCK:   -4.51 KCAL/MOL
REMARK 922        TOTAL FREE ENERGY PREDICTED BY IDOCK:   -7.82 KCAL/MOL
REMARK 923 INTER-LIGAND FREE ENERGY PREDICTED BY IDOCK:   -5.56 KCAL/MOL
REMARK 924 INTRA-LIGAND FREE ENERGY PREDICTED BY IDOCK:   -2.26 KCAL/MOL
REMARK 927      BINDING AFFINITY PREDICTED BY RF-SCORE:    0.00 PKD
ROOT
HETATM    1  C   UNL     1      -9.893   5.375  70.793  1.00  0.00    -0.252 C  
HETATM    2  C   UNL     1     -10.150   4.860  69.493  1.00  0.00    -0.286 C  
HETATM    3  C   UNL     1      -8.643   5.061  69.571  1.00  0.00    -0.091 C  
HETATM    4  C   UNL     1      -8.094   5.457  71.523  1.00  0.00    -0.117 C  
HETATM    5  C   UNL     1      -7.279   9.925  70.681  1.00  0.00    -0.035 C  
HETATM    6  C   UNL     1      -8.374   4.278  70.910  1.00  0.00    -0.091 C  
HETATM    7  C   UNL     1      -8.058   9.342  69.475  1.00  0.00    -0.114 C  
HETATM    8  C   UNL     1      -7.172   9.679  68.047  1.00  0.00    -0.081 C  
HETATM    9  C   UNL     1      -8.614   2.855  71.377  1.00  0.00    -0.101 C  
HETATM   10  C   UNL     1      -6.668   5.016  70.470  1.00  0.00    -0.040 C  
HETATM   11  C   UNL     1      -8.059  10.112  66.750  1.00  0.00    -0.119 C  
HETATM   12  C   UNL     1      -8.841  11.285  67.386  1.00  0.00    -0.145 C  
HETATM   13  C   UNL     1     -10.032  10.601  68.091  1.00  0.00    -0.176 C  
HETATM   14  C   UNL     1      -6.746   6.850  70.230  1.00  0.00    -0.052 C  
HETATM   15  C   UNL     1      -9.489  10.104  69.471  1.00  0.00    -0.235 C  
HETATM   16  C   UNL     1     -10.584   9.479  70.352  1.00  0.00    -0.333 C  
HETATM   17  C   UNL     1     -10.795   7.977  70.174  1.00  0.00    -0.242 C  
HETATM   18  C   UNL     1      -9.549   7.211  70.622  1.00  0.00    -0.165 C  
HETATM   19  C   UNL     1      -8.178   7.735  69.754  1.00  0.00    -0.129 C  
ENDROOT
BRANCH   3  20
HETATM   20  N   UNL     1      -7.892   4.352  68.336  1.00  0.00    -0.078 NA 
HETATM   21  C   UNL     1     -10.847   4.691  65.564  1.00  0.00    -0.063 C  
HETATM   22  C   UNL     1      -8.258   3.089  67.685  1.00  0.00    -0.080 C  
HETATM   23  C   UNL     1      -8.724   4.667  64.284  1.00  0.00    -0.148 C  
HETATM   24  C   UNL     1      -7.503   5.276  67.263  1.00  0.00    -0.084 C  
HETATM   25  C   UNL     1      -9.064   3.105  66.332  1.00  0.00    -0.154 C  
HETATM   26  N   UNL     1      -9.326   4.519  65.678  1.00  0.00    -0.154 N  
HETATM   27  C   UNL     1      -8.752   5.673  66.493  1.00  0.00    -0.121 C  
ENDBRANCH   3  20
BRANCH   4  28
HETATM   28  O   UNL     1      -7.528   4.632  72.695  1.00  0.00    -0.081 OA 
BRANCH  28  29
HETATM   29  C   UNL     1      -7.101   5.243  73.826  1.00  0.00    -0.082 C  
HETATM   30  C   UNL     1      -8.059   6.293  74.317  1.00  0.00    -0.115 C  
HETATM   31  O   UNL     1      -6.077   4.929  74.443  1.00  0.00    -0.050 OA 
ENDBRANCH  28  29
ENDBRANCH   4  28
BRANCH  12  32
HETATM   32  O   UNL     1      -9.014  12.402  66.513  1.00  0.00    -0.207 OA 
BRANCH  32  33
HETATM   33  C   UNL     1      -8.673  13.582  67.103  1.00  0.00    -0.215 C  
HETATM   34  O   UNL     1      -9.168  14.629  66.725  1.00  0.00    -0.238 OA 
HETATM   35  C   UNL     1      -7.575  13.550  68.142  1.00  0.00    -0.138 C  
ENDBRANCH  32  33
ENDBRANCH  12  32
BRANCH  11  36
HETATM   36  N   UNL     1      -7.589  10.260  65.307  1.00  0.00    -0.145 NA 
HETATM   37  C   UNL     1      -7.502   8.153  63.642  1.00  0.00    -0.120 C  
HETATM   38  C   UNL     1      -8.168   9.485  64.186  1.00  0.00    -0.159 C  
HETATM   39  N   UNL     1      -5.955   8.081  63.674  1.00  0.00    -0.062 N  
HETATM   40  C   UNL     1      -5.365   8.536  62.338  1.00  0.00    -0.071 C  
HETATM   41  C   UNL     1      -5.404   8.876  64.871  1.00  0.00    -0.038 C  
HETATM   42  C   UNL     1      -5.509   6.605  63.841  1.00  0.00    -0.027 C  
HETATM   43  C   UNL     1      -6.108  10.248  65.087  1.00  0.00    -0.130 C  
ENDBRANCH  11  36
TORSDOF 6
ENDMDL
MODEL       10
REMARK 921   NORMALIZED FREE ENERGY PREDICTED BY IDOCK:   -4.32 KCAL/MOL
REMARK 922        TOTAL FREE ENERGY PREDICTED BY IDOCK:   -7.57 KCAL/MOL
REMARK 923 INTER-LIGAND FREE ENERGY PREDICTED BY IDOCK:   -5.80 KCAL/MOL
REMARK 924 INTRA-LIGAND FREE ENERGY PREDICTED BY IDOCK:   -1.77 KCAL/MOL
REMARK 927      BINDING AFFINITY PREDICTED BY RF-SCORE:    0.00 PKD
ROOT
HETATM    1  C   UNL     1      -8.068   3.312  71.209  1.00  0.00    -0.066 C  
HETATM    2  C   UNL     1      -8.358   3.214  69.820  1.00  0.00    -0.082 C  
HETATM    3  C   UNL     1      -7.329   4.328  69.954  1.00  0.00    -0.049 C  
HETATM    4  C   UNL     1      -6.549   4.330  71.867  1.00  0.00    -0.022 C  
HETATM    5  C   UNL     1      -8.840   8.148  73.096  1.00  0.00    -0.325 C  
HETATM    6  C   UNL     1      -6.252   3.549  70.796  1.00  0.00    -0.019 C  
HETATM    7  C   UNL     1      -9.451   7.626  71.771  1.00  0.00    -0.178 C  
HETATM    8  C   UNL     1      -9.431   8.904  70.628  1.00  0.00    -0.259 C  
HETATM    9  C   UNL     1      -5.446   2.282  70.583  1.00  0.00    -0.012 C  
HETATM   10  C   UNL     1      -5.552   5.324  70.703  1.00  0.00    -0.008 C  
HETATM   11  C   UNL     1     -10.750   9.023  69.678  1.00  0.00    -0.219 C  
HETATM   12  C   UNL     1     -11.828   9.084  70.784  1.00  0.00    -0.206 C  
HETATM   13  C   UNL     1     -12.094   7.603  71.130  1.00  0.00    -0.322 C  
HETATM   14  C   UNL     1      -6.767   6.582  71.309  1.00  0.00    -0.058 C  
HETATM   15  C   UNL     1     -10.969   7.186  72.133  1.00  0.00    -0.274 C  
HETATM   16  C   UNL     1     -11.143   5.752  72.661  1.00  0.00    -0.325 C  
HETATM   17  C   UNL     1     -10.469   4.659  71.834  1.00  0.00    -0.172 C  
HETATM   18  C   UNL     1      -8.948   4.830  71.870  1.00  0.00    -0.148 C  
HETATM   19  C   UNL     1      -8.505   6.376  71.304  1.00  0.00    -0.123 C  
ENDROOT
BRANCH   3  20
HETATM   20  N   UNL     1      -6.733   4.751  68.519  1.00  0.00    -0.049 NA 
HETATM   21  C   UNL     1     -10.094   4.218  66.294  1.00  0.00    -0.172 C  
HETATM   22  C   UNL     1      -6.552   3.887  67.347  1.00  0.00    -0.046 C  
HETATM   23  C   UNL     1      -8.788   5.973  65.129  1.00  0.00     0.058 C  
HETATM   24  C   UNL     1      -7.240   6.034  68.017  1.00  0.00    -0.080 C  
HETATM   25  C   UNL     1      -7.609   3.911  66.180  1.00  0.00    -0.089 C  
HETATM   26  N   UNL     1      -8.764   4.983  66.289  1.00  0.00    -0.115 N  
HETATM   27  C   UNL     1      -8.673   5.837  67.550  1.00  0.00    -0.107 C  
ENDBRANCH   3  20
BRANCH   4  28
HETATM   28  O   UNL     1      -5.278   3.775  72.536  1.00  0.00     0.000 OA 
BRANCH  28  29
HETATM   29  C   UNL     1      -5.190   3.687  73.885  1.00  0.00     0.000 C  
HETATM   30  C   UNL     1      -5.256   5.029  74.560  1.00  0.00    -0.021 C  
HETATM   31  O   UNL     1      -5.138   2.623  74.512  1.00  0.00     0.000 OA 
ENDBRANCH  28  29
ENDBRANCH   4  28
BRANCH  12  32
HETATM   32  O   UNL     1     -12.887  10.001  70.506  1.00  0.00    -0.233 OA 
BRANCH  32  33
HETATM   33  C   UNL     1     -13.210  10.767  71.586  1.00  0.00    -0.383 C  
HETATM   34  O   UNL     1     -13.744  10.270  72.561  1.00  0.00    -0.117 OA 
HETATM   35  C   UNL     1     -12.999  12.260  71.469  1.00  0.00    -0.390 C  
ENDBRANCH  32  33
ENDBRANCH  12  32
BRANCH  11  36
HETATM   36  N   UNL     1     -10.934   9.901  68.445  1.00  0.00    -0.217 NA 
HETATM   37  C   UNL     1      -8.982  10.176  66.620  1.00  0.00    -0.140 C  
HETATM   38  C   UNL     1     -10.357   9.568  67.123  1.00  0.00    -0.253 C  
HETATM   39  N   UNL     1      -8.655  11.625  67.060  1.00  0.00    -0.163 N  
HETATM   40  C   UNL     1      -9.113  12.629  66.000  1.00  0.00     0.111 C  
HETATM   41  C   UNL     1      -9.251  11.912  68.450  1.00  0.00    -0.173 C  
HETATM   42  C   UNL     1      -7.118  11.802  67.159  1.00  0.00    -0.146 C  
HETATM   43  C   UNL     1     -10.697  11.367  68.635  1.00  0.00    -0.206 C  
ENDBRANCH  11  36
TORSDOF 6
ENDMDL
MODEL       11
REMARK 921   NORMALIZED FREE ENERGY PREDICTED BY IDOCK:   -4.23 KCAL/MOL
REMARK 922        TOTAL FREE ENERGY PREDICTED BY IDOCK:   -7.45 KCAL/MOL
REMARK 923 INTER-LIGAND FREE ENERGY PREDICTED BY IDOCK:   -5.54 KCAL/MOL
REMARK 924 INTRA-LIGAND FREE ENERGY PREDICTED BY IDOCK:   -1.90 KCAL/MOL
REMARK 927      BINDING AFFINITY PREDICTED BY RF-SCORE:    0.00 PKD
ROOT
HETATM    1  C   UNL     1      -8.563  10.549  69.674  1.00  0.00     0.022 C  
HETATM    2  C   UNL     1      -7.698  10.083  68.646  1.00  0.00    -0.086 C  
HETATM    3  C   UNL     1      -9.077   9.525  68.317  1.00  0.00    -0.127 C  
HETATM    4  C   UNL     1     -10.496  10.421  69.522  1.00  0.00    -0.247 C  
HETATM    5  C   UNL     1     -11.080   6.644  72.117  1.00  0.00    -0.288 C  
HETATM    6  C   UNL     1      -9.894  10.868  68.389  1.00  0.00    -0.183 C  
HETATM    7  C   UNL     1      -9.795   6.454  71.272  1.00  0.00    -0.200 C  
HETATM    8  C   UNL     1      -9.929   4.976  70.413  1.00  0.00    -0.317 C  
HETATM    9  C   UNL     1      -9.818  12.200  67.668  1.00  0.00    -0.194 C  
HETATM   10  C   UNL     1     -11.237   9.539  68.103  1.00  0.00     0.067 C  
HETATM   11  C   UNL     1      -8.566   4.088  70.317  1.00  0.00    -0.069 C  
HETATM   12  C   UNL     1      -8.240   3.999  71.826  1.00  0.00    -0.090 C  
HETATM   13  C   UNL     1      -7.480   5.309  72.123  1.00  0.00    -0.094 C  
HETATM   14  C   UNL     1     -11.162   8.193  69.371  1.00  0.00     0.213 C  
HETATM   15  C   UNL     1      -8.574   6.404  72.338  1.00  0.00    -0.120 C  
HETATM   16  C   UNL     1      -7.984   7.765  72.745  1.00  0.00    -0.153 C  
HETATM   17  C   UNL     1      -7.628   8.700  71.592  1.00  0.00    -0.139 C  
HETATM   18  C   UNL     1      -8.892   9.114  70.835  1.00  0.00    -0.292 C  
HETATM   19  C   UNL     1      -9.726   7.741  70.265  1.00  0.00    -0.179 C  
ENDROOT
BRANCH   3  20
HETATM   20  N   UNL     1      -9.121   8.911  66.829  1.00  0.00    -0.138 NA 
HETATM   21  C   UNL     1      -5.125   8.867  66.080  1.00  0.00    -0.033 C  
HETATM   22  C   UNL     1      -8.732   9.580  65.583  1.00  0.00    -0.149 C  
HETATM   23  C   UNL     1      -6.084   7.028  64.722  1.00  0.00    -0.037 C  
HETATM   24  C   UNL     1      -8.618   7.534  66.737  1.00  0.00    -0.127 C  
HETATM   25  C   UNL     1      -7.318   9.302  64.947  1.00  0.00    -0.103 C  
HETATM   26  N   UNL     1      -6.432   8.194  65.641  1.00  0.00    -0.048 N  
HETATM   27  C   UNL     1      -7.103   7.564  66.858  1.00  0.00    -0.084 C  
ENDBRANCH   3  20
BRANCH   4  28
HETATM   28  O   UNL     1     -11.494  11.583  69.366  1.00  0.00    -0.259 OA 
BRANCH  28  29
HETATM   29  C   UNL     1     -12.131  12.096  70.446  1.00  0.00    -0.309 C  
HETATM   30  C   UNL     1     -12.759  11.036  71.308  1.00  0.00    -0.537 C  
HETATM   31  O   UNL     1     -12.138  13.295  70.745  1.00  0.00    -0.341 OA 
ENDBRANCH  28  29
ENDBRANCH   4  28
BRANCH  12  32
HETATM   32  O   UNL     1      -7.744   2.723  72.233  1.00  0.00    -0.051 OA 
BRANCH  32  33
HETATM   33  C   UNL     1      -7.321   2.717  73.529  1.00  0.00    -0.045 C  
HETATM   34  O   UNL     1      -8.079   3.032  74.429  1.00  0.00    -0.067 OA 
HETATM   35  C   UNL     1      -5.857   2.433  73.783  1.00  0.00     0.000 C  
ENDBRANCH  32  33
ENDBRANCH  12  32
BRANCH  11  36
HETATM   36  N   UNL     1      -8.314   2.857  69.453  1.00  0.00    -0.057 NA 
HETATM   37  C   UNL     1      -6.818   2.994  67.226  1.00  0.00    -0.045 C  
HETATM   38  C   UNL     1      -7.035   2.613  68.749  1.00  0.00    -0.044 C  
HETATM   39  N   UNL     1      -8.044   2.858  66.289  1.00  0.00    -0.082 N  
HETATM   40  C   UNL     1      -8.054   1.488  65.607  1.00  0.00    -0.075 C  
HETATM   41  C   UNL     1      -9.344   3.149  67.059  1.00  0.00    -0.150 C  
HETATM   42  C   UNL     1      -7.934   3.891  65.138  1.00  0.00    -0.093 C  
HETATM   43  C   UNL     1      -9.390   2.504  68.475  1.00  0.00    -0.193 C  
ENDBRANCH  11  36
TORSDOF 6
ENDMDL
MODEL       12
REMARK 921   NORMALIZED FREE ENERGY PREDICTED BY IDOCK:   -4.16 KCAL/MOL
REMARK 922        TOTAL FREE ENERGY PREDICTED BY IDOCK:   -7.35 KCAL/MOL
REMARK 923 INTER-LIGAND FREE ENERGY PREDICTED BY IDOCK:   -6.43 KCAL/MOL
REMARK 924 INTRA-LIGAND FREE ENERGY PREDICTED BY IDOCK:   -0.92 KCAL/MOL
REMARK 927      BINDING AFFINITY PREDICTED BY RF-SCORE:    0.00 PKD
ROOT
HETATM    1  C   UNL     1      -8.319   4.637  68.181  1.00  0.00    -0.094 C  
HETATM    2  C   UNL     1      -8.499   5.223  66.899  1.00  0.00    -0.106 C  
HETATM    3  C   UNL     1      -7.411   6.040  67.583  1.00  0.00    -0.077 C  
HETATM    4  C   UNL     1      -6.796   5.077  69.304  1.00  0.00    -0.054 C  
HETATM    5  C   UNL     1      -8.918   8.096  72.083  1.00  0.00    -0.246 C  
HETATM    6  C   UNL     1      -6.463   4.857  68.005  1.00  0.00    -0.045 C  
HETATM    7  C   UNL     1      -9.449   8.311  70.644  1.00  0.00    -0.181 C  
HETATM    8  C   UNL     1      -9.248   9.964  70.236  1.00  0.00    -0.123 C  
HETATM    9  C   UNL     1      -5.730   3.761  67.256  1.00  0.00    -0.022 C  
HETATM   10  C   UNL     1      -5.639   6.394  68.786  1.00  0.00    -0.016 C  
HETATM   11  C   UNL     1     -10.472  10.640  69.398  1.00  0.00    -0.225 C  
HETATM   12  C   UNL     1     -11.632  10.287  70.357  1.00  0.00    -0.328 C  
HETATM   13  C   UNL     1     -12.025   8.849  69.956  1.00  0.00     0.450 C  
HETATM   14  C   UNL     1      -6.813   7.340  69.860  1.00  0.00    -0.056 C  
HETATM   15  C   UNL     1     -11.018   7.906  70.692  1.00  0.00    -0.248 C  
HETATM   16  C   UNL     1     -11.333   6.416  70.477  1.00  0.00    -0.438 C  
HETATM   17  C   UNL     1     -10.667   5.770  69.264  1.00  0.00    -0.386 C  
HETATM   18  C   UNL     1      -9.147   5.753  69.440  1.00  0.00    -0.138 C  
HETATM   19  C   UNL     1      -8.554   7.333  69.685  1.00  0.00    -0.137 C  
ENDROOT
BRANCH   3  20
HETATM   20  N   UNL     1      -6.670   7.019  66.541  1.00  0.00    -0.051 NA 
HETATM   21  C   UNL     1      -8.774   6.041  63.201  1.00  0.00     0.343 C  
HETATM   22  C   UNL     1      -5.840   6.628  65.396  1.00  0.00    -0.030 C  
HETATM   23  C   UNL     1      -8.029   8.382  62.866  1.00  0.00    -0.160 C  
HETATM   24  C   UNL     1      -7.496   8.147  66.090  1.00  0.00    -0.078 C  
HETATM   25  C   UNL     1      -6.452   6.622  63.945  1.00  0.00    -0.037 C  
HETATM   26  N   UNL     1      -7.924   7.175  63.791  1.00  0.00    -0.109 N  
HETATM   27  C   UNL     1      -8.537   7.623  65.115  1.00  0.00     0.023 C  
ENDBRANCH   3  20
BRANCH   4  28
HETATM   28  O   UNL     1      -5.625   4.153  69.687  1.00  0.00    -0.015 OA 
BRANCH  28  29
HETATM   29  C   UNL     1      -5.568   3.584  70.916  1.00  0.00    -0.012 C  
HETATM   30  C   UNL     1      -5.720   2.089  70.871  1.00  0.00    -0.013 C  
HETATM   31  O   UNL     1      -5.337   4.204  71.960  1.00  0.00     0.000 OA 
ENDBRANCH  28  29
ENDBRANCH   4  28
BRANCH  12  32
HETATM   32  O   UNL     1     -12.600  11.328  70.497  1.00  0.00    -0.291 OA 
BRANCH  32  33
HETATM   33  C   UNL     1     -13.131  11.381  71.751  1.00  0.00    -0.418 C  
HETATM   34  O   UNL     1     -13.309  10.361  72.392  1.00  0.00    -0.304 OA 
HETATM   35  C   UNL     1     -13.601  12.729  72.253  1.00  0.00    -0.563 C  
ENDBRANCH  32  33
ENDBRANCH  12  32
BRANCH  11  36
HETATM   36  N   UNL     1     -10.492  12.003  68.715  1.00  0.00    -0.211 NA 
HETATM   37  C   UNL     1     -11.659  12.349  66.320  1.00  0.00    -0.393 C  
HETATM   38  C   UNL     1     -11.632  12.480  67.899  1.00  0.00    -0.347 C  
HETATM   39  N   UNL     1     -10.304  12.491  65.583  1.00  0.00    -0.266 N  
HETATM   40  C   UNL     1     -10.082  13.937  65.134  1.00  0.00    -0.303 C  
HETATM   41  C   UNL     1      -9.157  11.956  66.458  1.00  0.00    -0.211 C  
HETATM   42  C   UNL     1     -10.333  11.653  64.278  1.00  0.00    -0.322 C  
HETATM   43  C   UNL     1      -9.261  12.380  67.952  1.00  0.00    -0.192 C  
ENDBRANCH  11  36
TORSDOF 6
ENDMDL
MODEL       13
REMARK 921   NORMALIZED FREE ENERGY PREDICTED BY IDOCK:   -4.12 KCAL/MOL
REMARK 922        TOTAL FREE ENERGY PREDICTED BY IDOCK:   -7.30 KCAL/MOL
REMARK 923 INTER-LIGAND FREE ENERGY PREDICTED BY IDOCK:   -7.46 KCAL/MOL
REMARK 924 INTRA-LIGAND FREE ENERGY PREDICTED BY IDOCK:    0.16 KCAL/MOL
REMARK 927      BINDING AFFINITY PREDICTED BY RF-SCORE:    0.00 PKD
ROOT
HETATM    1  C   UNL     1      -9.350   4.210  69.435  1.00  0.00    -0.238 C  
HETATM    2  C   UNL     1      -9.727   4.507  68.096  1.00  0.00    -0.188 C  
HETATM    3  C   UNL     1      -8.434   5.271  68.346  1.00  0.00    -0.096 C  
HETATM    4  C   UNL     1      -7.585   4.643  70.121  1.00  0.00    -0.054 C  
HETATM    5  C   UNL     1      -8.717   8.522  72.358  1.00  0.00    -0.242 C  
HETATM    6  C   UNL     1      -7.560   4.079  68.886  1.00  0.00    -0.054 C  
HETATM    7  C   UNL     1      -9.511   8.485  71.028  1.00  0.00    -0.234 C  
HETATM    8  C   UNL     1      -9.212   9.944  70.180  1.00  0.00    -0.184 C  
HETATM    9  C   UNL     1      -7.130   2.736  68.327  1.00  0.00    -0.049 C  
HETATM   10  C   UNL     1      -6.420   5.599  69.088  1.00  0.00    -0.042 C  
HETATM   11  C   UNL     1     -10.499  10.600  69.424  1.00  0.00    -0.225 C  
HETATM   12  C   UNL     1     -11.465  10.670  70.630  1.00  0.00    -0.281 C  
HETATM   13  C   UNL     1     -12.095   9.262  70.687  1.00  0.00    -0.154 C  
HETATM   14  C   UNL     1      -7.227   6.945  70.070  1.00  0.00    -0.080 C  
HETATM   15  C   UNL     1     -11.071   8.362  71.453  1.00  0.00    -0.312 C  
HETATM   16  C   UNL     1     -11.591   6.934  71.687  1.00  0.00    -0.325 C  
HETATM   17  C   UNL     1     -11.274   5.927  70.584  1.00  0.00    -0.284 C  
HETATM   18  C   UNL     1      -9.763   5.705  70.489  1.00  0.00    -0.233 C  
HETATM   19  C   UNL     1      -8.955   7.181  70.212  1.00  0.00    -0.152 C  
ENDROOT
BRANCH   3  20
HETATM   20  N   UNL     1      -7.821   5.850  66.974  1.00  0.00    -0.101 NA 
HETATM   21  C   UNL     1      -8.814   2.762  64.523  1.00  0.00    -0.111 C  
HETATM   22  C   UNL     1      -6.698   5.303  66.205  1.00  0.00    -0.057 C  
HETATM   23  C   UNL     1      -8.746   4.773  63.076  1.00  0.00    -0.124 C  
HETATM   24  C   UNL     1      -8.835   6.261  65.994  1.00  0.00    -0.151 C  
HETATM   25  C   UNL     1      -6.972   4.410  64.938  1.00  0.00    -0.057 C  
HETATM   26  N   UNL     1      -8.478   4.258  64.486  1.00  0.00    -0.107 N  
HETATM   27  C   UNL     1      -9.452   5.013  65.386  1.00  0.00    -0.085 C  
ENDBRANCH   3  20
BRANCH   4  28
HETATM   28  O   UNL     1      -6.474   3.653  70.518  1.00  0.00    -0.029 OA 
BRANCH  28  29
HETATM   29  C   UNL     1      -6.271   3.327  71.818  1.00  0.00    -0.014 C  
HETATM   30  C   UNL     1      -6.810   4.361  72.767  1.00  0.00    -0.056 C  
HETATM   31  O   UNL     1      -5.770   2.264  72.199  1.00  0.00    -0.007 OA 
ENDBRANCH  28  29
ENDBRANCH   4  28
BRANCH  12  32
HETATM   32  O   UNL     1     -12.256  11.859  70.665  1.00  0.00    -0.371 OA 
BRANCH  32  33
HETATM   33  C   UNL     1     -13.064  11.915  71.761  1.00  0.00    -0.360 C  
HETATM   34  O   UNL     1     -13.464  10.893  72.289  1.00  0.00    -0.324 OA 
HETATM   35  C   UNL     1     -13.539  13.280  72.206  1.00  0.00    -0.703 C  
ENDBRANCH  32  33
ENDBRANCH  12  32
BRANCH  11  36
HETATM   36  N   UNL     1     -10.507  11.754  68.428  1.00  0.00    -0.208 NA 
HETATM   37  C   UNL     1     -11.443  11.438  65.930  1.00  0.00     0.102 C  
HETATM   38  C   UNL     1     -11.578  11.947  67.425  1.00  0.00    -0.297 C  
HETATM   39  N   UNL     1     -10.029  11.484  65.300  1.00  0.00    -0.250 N  
HETATM   40  C   UNL     1      -9.821  12.791  64.531  1.00  0.00    -0.026 C  
HETATM   41  C   UNL     1      -8.953  11.250  66.376  1.00  0.00    -0.188 C  
HETATM   42  C   UNL     1      -9.895  10.357  64.244  1.00  0.00    -0.322 C  
HETATM   43  C   UNL     1      -9.222  12.014  67.706  1.00  0.00    -0.190 C  
ENDBRANCH  11  36
TORSDOF 6
ENDMDL
MODEL       14
REMARK 921   NORMALIZED FREE ENERGY PREDICTED BY IDOCK:   -4.09 KCAL/MOL
REMARK 922        TOTAL FREE ENERGY PREDICTED BY IDOCK:   -7.26 KCAL/MOL
REMARK 923 INTER-LIGAND FREE ENERGY PREDICTED BY IDOCK:   -8.95 KCAL/MOL
REMARK 924 INTRA-LIGAND FREE ENERGY PREDICTED BY IDOCK:    1.69 KCAL/MOL
REMARK 927      BINDING AFFINITY PREDICTED BY RF-SCORE:    0.00 PKD
ROOT
HETATM    1  C   UNL     1     -11.647  14.050  68.502  1.00  0.00    -0.357 C  
HETATM    2  C   UNL     1     -10.683  14.636  69.369  1.00  0.00    -0.237 C  
HETATM    3  C   UNL     1      -9.889  13.909  68.292  1.00  0.00    -0.231 C  
HETATM    4  C   UNL     1     -11.156  13.323  66.768  1.00  0.00    -0.292 C  
HETATM    5  C   UNL     1     -11.003   8.868  67.978  1.00  0.00     0.040 C  
HETATM    6  C   UNL     1     -10.590  14.531  67.027  1.00  0.00    -0.278 C  
HETATM    7  C   UNL     1     -10.409   9.703  69.140  1.00  0.00    -0.219 C  
HETATM    8  C   UNL     1      -8.851   9.086  69.506  1.00  0.00    -0.146 C  
HETATM    9  C   UNL     1     -10.781  15.941  66.501  1.00  0.00    -0.258 C  
HETATM   10  C   UNL     1      -9.395  13.236  66.288  1.00  0.00    -0.134 C  
HETATM   11  C   UNL     1      -8.475   9.011  71.090  1.00  0.00    -0.177 C  
HETATM   12  C   UNL     1      -9.691   8.190  71.579  1.00  0.00    -0.176 C  
HETATM   13  C   UNL     1     -10.794   9.247  71.793  1.00  0.00    -0.358 C  
HETATM   14  C   UNL     1      -9.660  11.554  67.014  1.00  0.00    -0.199 C  
HETATM   15  C   UNL     1     -11.427   9.503  70.386  1.00  0.00    -0.297 C  
HETATM   16  C   UNL     1     -12.622  10.470  70.437  1.00  0.00    -0.364 C  
HETATM   17  C   UNL     1     -12.280  11.949  70.278  1.00  0.00    -0.353 C  
HETATM   18  C   UNL     1     -11.714  12.215  68.882  1.00  0.00    -0.381 C  
HETATM   19  C   UNL     1     -10.342  11.244  68.596  1.00  0.00    -0.217 C  
ENDROOT
BRANCH   3  20
HETATM   20  N   UNL     1      -8.332  14.315  68.337  1.00  0.00    -0.159 NA 
HETATM   21  C   UNL     1      -8.715  18.262  67.439  1.00  0.00    -0.256 C  
HETATM   22  C   UNL     1      -7.500  14.763  67.214  1.00  0.00    -0.141 C  
HETATM   23  C   UNL     1      -6.658  18.081  68.811  1.00  0.00    -0.233 C  
HETATM   24  C   UNL     1      -7.967  15.154  69.486  1.00  0.00    -0.175 C  
HETATM   25  C   UNL     1      -7.218  16.298  67.007  1.00  0.00    -0.227 C  
HETATM   26  N   UNL     1      -7.757  17.278  68.123  1.00  0.00    -0.210 N  
HETATM   27  C   UNL     1      -8.497  16.558  69.246  1.00  0.00    -0.056 C  
ENDBRANCH   3  20
BRANCH   4  28
HETATM   28  O   UNL     1     -11.541  13.879  65.385  1.00  0.00    -0.312 OA 
BRANCH  28  29
HETATM   29  C   UNL     1     -12.349  13.173  64.557  1.00  0.00    -0.385 C  
HETATM   30  C   UNL     1     -11.728  12.931  63.208  1.00  0.00    -0.408 C  
HETATM   31  O   UNL     1     -13.445  12.706  64.885  1.00  0.00    -0.599 OA 
ENDBRANCH  28  29
ENDBRANCH   4  28
BRANCH  12  32
HETATM   32  O   UNL     1      -9.366   7.217  72.573  1.00  0.00    -0.139 OA 
BRANCH  32  33
HETATM   33  C   UNL     1      -9.935   6.005  72.322  1.00  0.00    -0.167 C  
HETATM   34  O   UNL     1      -9.773   5.455  71.247  1.00  0.00    -0.152 OA 
HETATM   35  C   UNL     1     -10.868   5.442  73.371  1.00  0.00    -0.347 C  
ENDBRANCH  32  33
ENDBRANCH  12  32
BRANCH  11  36
HETATM   36  N   UNL     1      -7.114   8.720  71.712  1.00  0.00    -0.213 NA 
HETATM   37  C   UNL     1      -6.379   6.218  72.361  1.00  0.00    -0.054 C  
HETATM   38  C   UNL     1      -6.338   7.493  71.419  1.00  0.00    -0.035 C  
HETATM   39  N   UNL     1      -6.527   6.476  73.881  1.00  0.00    -0.069 N  
HETATM   40  C   UNL     1      -5.155   6.528  74.556  1.00  0.00    -0.041 C  
HETATM   41  C   UNL     1      -7.363   7.743  74.133  1.00  0.00    -0.141 C  
HETATM   42  C   UNL     1      -7.266   5.283  74.539  1.00  0.00    -0.082 C  
HETATM   43  C   UNL     1      -7.002   8.928  73.190  1.00  0.00     0.286 C  
ENDBRANCH  11  36
TORSDOF 6
ENDMDL
MODEL       15
REMARK 921   NORMALIZED FREE ENERGY PREDICTED BY IDOCK:   -4.09 KCAL/MOL
REMARK 922        TOTAL FREE ENERGY PREDICTED BY IDOCK:   -7.26 KCAL/MOL
REMARK 923 INTER-LIGAND FREE ENERGY PREDICTED BY IDOCK:   -8.11 KCAL/MOL
REMARK 924 INTRA-LIGAND FREE ENERGY PREDICTED BY IDOCK:    0.86 KCAL/MOL
REMARK 927      BINDING AFFINITY PREDICTED BY RF-SCORE:    0.00 PKD
ROOT
HETATM    1  C   UNL     1     -11.095   9.986  66.671  1.00  0.00     0.191 C  
HETATM    2  C   UNL     1     -10.006   9.988  65.756  1.00  0.00    -0.346 C  
HETATM    3  C   UNL     1      -9.390  10.145  67.140  1.00  0.00    -0.153 C  
HETATM    4  C   UNL     1     -10.824   9.792  68.585  1.00  0.00    -0.188 C  
HETATM    5  C   UNL     1     -11.176  14.255  69.722  1.00  0.00    -0.230 C  
HETATM    6  C   UNL     1     -10.087   8.922  67.845  1.00  0.00    -0.255 C  
HETATM    7  C   UNL     1     -10.399  14.159  68.386  1.00  0.00    -0.249 C  
HETATM    8  C   UNL     1      -8.915  14.999  68.562  1.00  0.00    -0.186 C  
HETATM    9  C   UNL     1     -10.127   7.428  67.591  1.00  0.00    -0.240 C  
HETATM   10  C   UNL     1      -9.127   9.771  69.262  1.00  0.00    -0.189 C  
HETATM   11  C   UNL     1      -8.444  15.881  67.275  1.00  0.00    -0.184 C  
HETATM   12  C   UNL     1      -9.721  16.736  67.100  1.00  0.00    -0.251 C  
HETATM   13  C   UNL     1     -10.659  15.840  66.263  1.00  0.00    -0.313 C  
HETATM   14  C   UNL     1      -9.560  11.563  69.418  1.00  0.00     0.487 C  
HETATM   15  C   UNL     1     -11.347  14.869  67.277  1.00  0.00    -0.355 C  
HETATM   16  C   UNL     1     -12.398  13.962  66.616  1.00  0.00    -0.411 C  
HETATM   17  C   UNL     1     -11.877  12.632  66.076  1.00  0.00    -0.492 C  
HETATM   18  C   UNL     1     -11.377  11.754  67.226  1.00  0.00    -0.379 C  
HETATM   19  C   UNL     1     -10.167  12.562  68.116  1.00  0.00    -0.231 C  
ENDROOT
BRANCH   3  20
HETATM   20  N   UNL     1      -7.793   9.942  67.097  1.00  0.00    -0.099 NA 
HETATM   21  C   UNL     1      -7.356   9.477  63.082  1.00  0.00    -0.110 C  
HETATM   22  C   UNL     1      -7.065   8.730  66.705  1.00  0.00    -0.081 C  
HETATM   23  C   UNL     1      -5.214  10.432  63.885  1.00  0.00    -0.149 C  
HETATM   24  C   UNL     1      -7.063  11.074  66.513  1.00  0.00    -0.136 C  
HETATM   25  C   UNL     1      -6.459   8.610  65.256  1.00  0.00    -0.063 C  
HETATM   26  N   UNL     1      -6.567   9.887  64.332  1.00  0.00    -0.120 N  
HETATM   27  C   UNL     1      -7.273  11.059  65.008  1.00  0.00     0.507 C  
ENDBRANCH   3  20
BRANCH   4  28
HETATM   28  O   UNL     1     -11.226   8.593  69.464  1.00  0.00    -0.048 OA 
BRANCH  28  29
HETATM   29  C   UNL     1     -11.933   8.779  70.605  1.00  0.00    -0.054 C  
HETATM   30  C   UNL     1     -12.516  10.162  70.708  1.00  0.00    -0.417 C  
HETATM   31  O   UNL     1     -12.149   7.896  71.442  1.00  0.00    -0.296 OA 
ENDBRANCH  28  29
ENDBRANCH   4  28
BRANCH  12  32
HETATM   32  O   UNL     1      -9.460  18.096  66.753  1.00  0.00    -0.275 OA 
BRANCH  32  33
HETATM   33  C   UNL     1     -10.266  18.969  67.420  1.00  0.00    -0.394 C  
HETATM   34  O   UNL     1     -11.095  19.629  66.821  1.00  0.00    -0.377 OA 
HETATM   35  C   UNL     1     -10.002  19.172  68.896  1.00  0.00    -0.481 C  
ENDBRANCH  32  33
ENDBRANCH  12  32
BRANCH  11  36
HETATM   36  N   UNL     1      -7.094  16.552  67.048  1.00  0.00    -0.192 NA 
HETATM   37  C   UNL     1      -6.417  18.807  68.342  1.00  0.00    -0.226 C  
HETATM   38  C   UNL     1      -6.342  17.239  68.123  1.00  0.00    -0.155 C  
HETATM   39  N   UNL     1      -6.570  19.684  67.074  1.00  0.00    -0.193 N  
HETATM   40  C   UNL     1      -5.202  20.147  66.569  1.00  0.00    -0.163 C  
HETATM   41  C   UNL     1      -7.381  18.938  65.999  1.00  0.00    -0.259 C  
HETATM   42  C   UNL     1      -7.339  20.982  67.432  1.00  0.00    -0.253 C  
HETATM   43  C   UNL     1      -6.988  17.439  65.847  1.00  0.00    -0.106 C  
ENDBRANCH  11  36
TORSDOF 6
ENDMDL
MODEL       16
REMARK 921   NORMALIZED FREE ENERGY PREDICTED BY IDOCK:   -4.07 KCAL/MOL
REMARK 922        TOTAL FREE ENERGY PREDICTED BY IDOCK:   -7.23 KCAL/MOL
REMARK 923 INTER-LIGAND FREE ENERGY PREDICTED BY IDOCK:   -9.04 KCAL/MOL
REMARK 924 INTRA-LIGAND FREE ENERGY PREDICTED BY IDOCK:    1.81 KCAL/MOL
REMARK 927      BINDING AFFINITY PREDICTED BY RF-SCORE:    0.00 PKD
ROOT
HETATM    1  C   UNL     1     -11.158  10.186  66.652  1.00  0.00     0.139 C  
HETATM    2  C   UNL     1     -10.005  10.120  65.823  1.00  0.00    -0.339 C  
HETATM    3  C   UNL     1      -9.511  10.572  67.191  1.00  0.00    -0.159 C  
HETATM    4  C   UNL     1     -11.022  10.358  68.583  1.00  0.00    -0.243 C  
HETATM    5  C   UNL     1     -11.786  14.905  68.863  1.00  0.00    -0.334 C  
HETATM    6  C   UNL     1     -10.169   9.438  68.061  1.00  0.00    -0.248 C  
HETATM    7  C   UNL     1     -10.904  14.641  67.618  1.00  0.00    -0.284 C  
HETATM    8  C   UNL     1      -9.504  15.623  67.731  1.00  0.00    -0.208 C  
HETATM    9  C   UNL     1     -10.079   7.924  68.083  1.00  0.00    -0.228 C  
HETATM   10  C   UNL     1      -9.385  10.603  69.357  1.00  0.00    -0.082 C  
HETATM   11  C   UNL     1      -9.001  16.302  66.336  1.00  0.00    -0.308 C  
HETATM   12  C   UNL     1     -10.320  16.999  65.929  1.00  0.00    -0.298 C  
HETATM   13  C   UNL     1     -11.122  15.892  65.212  1.00  0.00    -0.255 C  
HETATM   14  C   UNL     1      -9.960  12.351  69.157  1.00  0.00     0.339 C  
HETATM   15  C   UNL     1     -11.813  15.060  66.342  1.00  0.00    -0.039 C  
HETATM   16  C   UNL     1     -12.741  13.964  65.792  1.00  0.00    -0.503 C  
HETATM   17  C   UNL     1     -12.084  12.609  65.538  1.00  0.00    -0.515 C  
HETATM   18  C   UNL     1     -11.611  11.994  66.857  1.00  0.00    -0.389 C  
HETATM   19  C   UNL     1     -10.536  13.048  67.658  1.00  0.00    -0.228 C  
ENDROOT
BRANCH   3  20
HETATM   20  N   UNL     1      -7.905  10.503  67.285  1.00  0.00    -0.106 NA 
HETATM   21  C   UNL     1      -7.265   7.595  64.517  1.00  0.00    -0.076 C  
HETATM   22  C   UNL     1      -7.094   9.378  67.766  1.00  0.00    -0.082 C  
HETATM   23  C   UNL     1      -5.217   8.991  64.510  1.00  0.00    -0.050 C  
HETATM   24  C   UNL     1      -7.214  11.041  66.107  1.00  0.00    -0.054 C  
HETATM   25  C   UNL     1      -6.419   8.397  66.735  1.00  0.00    -0.056 C  
HETATM   26  N   UNL     1      -6.556   8.768  65.206  1.00  0.00    -0.067 N  
HETATM   27  C   UNL     1      -7.355  10.046  64.968  1.00  0.00    -0.140 C  
ENDBRANCH   3  20
BRANCH   4  28
HETATM   28  O   UNL     1     -11.402   9.303  69.639  1.00  0.00    -0.112 OA 
BRANCH  28  29
HETATM   29  C   UNL     1     -12.179   9.635  70.698  1.00  0.00    -0.161 C  
HETATM   30  C   UNL     1     -12.092   8.634  71.818  1.00  0.00    -0.403 C  
HETATM   31  O   UNL     1     -12.832  10.680  70.782  1.00  0.00    -0.360 OA 
ENDBRANCH  28  29
ENDBRANCH   4  28
BRANCH  12  32
HETATM   32  O   UNL     1     -10.133  18.294  65.356  1.00  0.00    -0.325 OA 
BRANCH  32  33
HETATM   33  C   UNL     1     -10.731  19.277  66.086  1.00  0.00    -0.386 C  
HETATM   34  O   UNL     1     -11.031  20.338  65.568  1.00  0.00    -0.155 OA 
HETATM   35  C   UNL     1     -10.885  19.046  67.573  1.00  0.00    -0.478 C  
ENDBRANCH  32  33
ENDBRANCH  12  32
BRANCH  11  36
HETATM   36  N   UNL     1      -7.690  17.035  66.076  1.00  0.00    -0.403 NA 
HETATM   37  C   UNL     1      -6.032  17.692  68.086  1.00  0.00    -0.163 C  
HETATM   38  C   UNL     1      -6.456  16.785  66.856  1.00  0.00    -0.208 C  
HETATM   39  N   UNL     1      -6.382  19.198  67.998  1.00  0.00    -0.214 N  
HETATM   40  C   UNL     1      -5.207  19.993  67.424  1.00  0.00    -0.165 C  
HETATM   41  C   UNL     1      -7.684  19.403  67.204  1.00  0.00    -0.247 C  
HETATM   42  C   UNL     1      -6.605  19.762  69.425  1.00  0.00    -0.355 C  
HETATM   43  C   UNL     1      -7.781  18.521  65.924  1.00  0.00    -0.095 C  
ENDBRANCH  11  36
TORSDOF 6
ENDMDL
MODEL       17
REMARK 921   NORMALIZED FREE ENERGY PREDICTED BY IDOCK:   -4.06 KCAL/MOL
REMARK 922        TOTAL FREE ENERGY PREDICTED BY IDOCK:   -7.22 KCAL/MOL
REMARK 923 INTER-LIGAND FREE ENERGY PREDICTED BY IDOCK:   -5.18 KCAL/MOL
REMARK 924 INTRA-LIGAND FREE ENERGY PREDICTED BY IDOCK:   -2.04 KCAL/MOL
REMARK 927      BINDING AFFINITY PREDICTED BY RF-SCORE:    0.00 PKD
ROOT
HETATM    1  C   UNL     1      -9.162   6.243  71.738  1.00  0.00    -0.145 C  
HETATM    2  C   UNL     1      -9.205   5.086  70.912  1.00  0.00    -0.192 C  
HETATM    3  C   UNL     1      -7.807   5.668  70.744  1.00  0.00    -0.093 C  
HETATM    4  C   UNL     1      -7.489   7.136  72.162  1.00  0.00    -0.085 C  
HETATM    5  C   UNL     1      -7.814  10.567  69.086  1.00  0.00    -0.138 C  
HETATM    6  C   UNL     1      -7.419   5.783  72.264  1.00  0.00    -0.099 C  
HETATM    7  C   UNL     1      -8.348   9.273  68.422  1.00  0.00    -0.119 C  
HETATM    8  C   UNL     1      -7.501   9.033  66.950  1.00  0.00    -0.090 C  
HETATM    9  C   UNL     1      -7.308   4.798  73.412  1.00  0.00    -0.082 C  
HETATM   10  C   UNL     1      -5.941   6.588  71.360  1.00  0.00    -0.036 C  
HETATM   11  C   UNL     1      -8.398   8.498  65.698  1.00  0.00    -0.148 C  
HETATM   12  C   UNL     1      -9.491   9.591  65.712  1.00  0.00    -0.250 C  
HETATM   13  C   UNL     1     -10.501   9.097  66.769  1.00  0.00    -0.266 C  
HETATM   14  C   UNL     1      -6.478   7.947  70.225  1.00  0.00    -0.037 C  
HETATM   15  C   UNL     1      -9.925   9.537  68.155  1.00  0.00    -0.191 C  
HETATM   16  C   UNL     1     -10.868   9.206  69.324  1.00  0.00    -0.150 C  
HETATM   17  C   UNL     1     -10.672   7.831  69.959  1.00  0.00    -0.245 C  
HETATM   18  C   UNL     1      -9.297   7.745  70.623  1.00  0.00    -0.162 C  
HETATM   19  C   UNL     1      -8.063   8.069  69.492  1.00  0.00    -0.120 C  
ENDROOT
BRANCH   3  20
HETATM   20  N   UNL     1      -6.831   4.637  69.983  1.00  0.00    -0.043 NA 
HETATM   21  C   UNL     1      -9.654   2.506  67.978  1.00  0.00    -0.024 C  
HETATM   22  C   UNL     1      -6.748   3.186  70.183  1.00  0.00    -0.033 C  
HETATM   23  C   UNL     1      -7.602   2.374  66.594  1.00  0.00    -0.070 C  
HETATM   24  C   UNL     1      -6.733   4.865  68.536  1.00  0.00    -0.050 C  
HETATM   25  C   UNL     1      -7.476   2.211  69.183  1.00  0.00    -0.043 C  
HETATM   26  N   UNL     1      -8.164   2.869  67.922  1.00  0.00    -0.077 N  
HETATM   27  C   UNL     1      -8.019   4.387  67.883  1.00  0.00    -0.087 C  
ENDBRANCH   3  20
BRANCH   4  28
HETATM   28  O   UNL     1      -6.795   7.206  73.534  1.00  0.00    -0.069 OA 
BRANCH  28  29
HETATM   29  C   UNL     1      -6.701   8.381  74.202  1.00  0.00    -0.132 C  
HETATM   30  C   UNL     1      -5.277   8.821  74.407  1.00  0.00    -0.101 C  
HETATM   31  O   UNL     1      -7.671   9.067  74.544  1.00  0.00    -0.367 OA 
ENDBRANCH  28  29
ENDBRANCH   4  28
BRANCH  12  32
HETATM   32  O   UNL     1      -9.899  10.014  64.410  1.00  0.00    -0.296 OA 
BRANCH  32  33
HETATM   33  C   UNL     1     -10.174  11.347  64.356  1.00  0.00    -0.308 C  
HETATM   34  O   UNL     1     -10.678  11.837  63.362  1.00  0.00    -0.391 OA 
HETATM   35  C   UNL     1      -9.714  12.201  65.518  1.00  0.00    -0.197 C  
ENDBRANCH  32  33
ENDBRANCH  12  32
BRANCH  11  36
HETATM   36  N   UNL     1      -7.904   7.993  64.347  1.00  0.00    -0.133 NA 
HETATM   37  C   UNL     1      -7.368   5.392  63.938  1.00  0.00    -0.053 C  
HETATM   38  C   UNL     1      -8.286   6.676  63.789  1.00  0.00     0.082 C  
HETATM   39  N   UNL     1      -5.836   5.621  63.918  1.00  0.00    -0.020 N  
HETATM   40  C   UNL     1      -5.283   5.451  62.501  1.00  0.00    -0.013 C  
HETATM   41  C   UNL     1      -5.488   6.988  64.533  1.00  0.00    -0.032 C  
HETATM   42  C   UNL     1      -5.137   4.528  64.768  1.00  0.00    -0.008 C  
HETATM   43  C   UNL     1      -6.437   8.136  64.082  1.00  0.00    -0.066 C  
ENDBRANCH  11  36
TORSDOF 6
ENDMDL
MODEL       18
REMARK 921   NORMALIZED FREE ENERGY PREDICTED BY IDOCK:   -4.04 KCAL/MOL
REMARK 922        TOTAL FREE ENERGY PREDICTED BY IDOCK:   -7.19 KCAL/MOL
REMARK 923 INTER-LIGAND FREE ENERGY PREDICTED BY IDOCK:   -6.60 KCAL/MOL
REMARK 924 INTRA-LIGAND FREE ENERGY PREDICTED BY IDOCK:   -0.60 KCAL/MOL
REMARK 927      BINDING AFFINITY PREDICTED BY RF-SCORE:    0.00 PKD
ROOT
HETATM    1  C   UNL     1     -10.860  15.193  67.043  1.00  0.00    -0.314 C  
HETATM    2  C   UNL     1     -11.773  14.769  68.047  1.00  0.00    -0.360 C  
HETATM    3  C   UNL     1     -10.391  14.700  68.683  1.00  0.00    -0.246 C  
HETATM    4  C   UNL     1      -9.014  15.634  67.458  1.00  0.00    -0.192 C  
HETATM    5  C   UNL     1      -7.101  11.652  66.108  1.00  0.00     0.361 C  
HETATM    6  C   UNL     1      -9.905  16.157  68.340  1.00  0.00    -0.222 C  
HETATM    7  C   UNL     1      -8.444  11.327  66.809  1.00  0.00    -0.161 C  
HETATM    8  C   UNL     1      -8.140  10.189  68.055  1.00  0.00    -0.112 C  
HETATM    9  C   UNL     1     -10.418  17.551  68.647  1.00  0.00    -0.338 C  
HETATM   10  C   UNL     1      -8.372  15.349  69.146  1.00  0.00    -0.242 C  
HETATM   11  C   UNL     1      -9.257   9.014  68.228  1.00  0.00    -0.136 C  
HETATM   12  C   UNL     1      -9.262   8.484  66.776  1.00  0.00    -0.172 C  
HETATM   13  C   UNL     1     -10.232   9.430  66.036  1.00  0.00    -0.204 C  
HETATM   14  C   UNL     1      -7.896  13.772  68.303  1.00  0.00    -0.144 C  
HETATM   15  C   UNL     1      -9.397  10.697  65.659  1.00  0.00    -0.239 C  
HETATM   16  C   UNL     1     -10.195  11.710  64.821  1.00  0.00    -0.321 C  
HETATM   17  C   UNL     1     -10.968  12.760  65.616  1.00  0.00    -0.302 C  
HETATM   18  C   UNL     1      -9.998  13.668  66.376  1.00  0.00    -0.299 C  
HETATM   19  C   UNL     1      -8.994  12.749  67.403  1.00  0.00    -0.195 C  
ENDROOT
BRANCH   3  20
HETATM   20  N   UNL     1     -10.489  14.493  70.277  1.00  0.00     0.290 NA 
HETATM   21  C   UNL     1     -14.389  15.530  70.777  1.00  0.00     0.542 C  
HETATM   22  C   UNL     1     -10.714  15.528  71.292  1.00  0.00     0.141 C  
HETATM   23  C   UNL     1     -13.878  13.934  72.604  1.00  0.00    -0.403 C  
HETATM   24  C   UNL     1     -11.294  13.333  70.680  1.00  0.00     0.863 C  
HETATM   25  C   UNL     1     -12.154  15.743  71.893  1.00  0.00    -0.465 C  
HETATM   26  N   UNL     1     -13.271  14.718  71.446  1.00  0.00    -0.348 N  
HETATM   27  C   UNL     1     -12.762  13.666  70.465  1.00  0.00    -0.190 C  
ENDBRANCH   3  20
BRANCH   4  28
HETATM   28  O   UNL     1      -8.356  17.025  67.406  1.00  0.00    -0.187 OA 
BRANCH  28  29
HETATM   29  C   UNL     1      -7.290  17.255  66.601  1.00  0.00    -0.247 C  
HETATM   30  C   UNL     1      -7.511  18.408  65.660  1.00  0.00    -0.010 C  
HETATM   31  O   UNL     1      -6.218  16.644  66.672  1.00  0.00    -0.269 OA 
ENDBRANCH  28  29
ENDBRANCH   4  28
BRANCH  12  32
HETATM   32  O   UNL     1      -9.367   7.063  66.682  1.00  0.00    -0.154 OA 
BRANCH  32  33
HETATM   33  C   UNL     1      -8.349   6.512  65.962  1.00  0.00    -0.133 C  
HETATM   34  O   UNL     1      -7.765   5.524  66.371  1.00  0.00    -0.097 OA 
HETATM   35  C   UNL     1      -7.900   7.244  64.718  1.00  0.00    -0.126 C  
ENDBRANCH  32  33
ENDBRANCH  12  32
BRANCH  11  36
HETATM   36  N   UNL     1      -9.378   8.004  69.363  1.00  0.00    -0.155 NA 
HETATM   37  C   UNL     1     -11.749   7.463  70.507  1.00  0.00    -0.191 C  
HETATM   38  C   UNL     1     -10.550   7.114  69.530  1.00  0.00    -0.234 C  
HETATM   39  N   UNL     1     -11.392   8.222  71.809  1.00  0.00    -0.270 N  
HETATM   40  C   UNL     1     -11.168   7.241  72.962  1.00  0.00    -0.264 C  
HETATM   41  C   UNL     1     -10.189   9.153  71.577  1.00  0.00    -0.333 C  
HETATM   42  C   UNL     1     -12.594   9.100  72.243  1.00  0.00    -0.355 C  
HETATM   43  C   UNL     1      -9.051   8.506  70.735  1.00  0.00    -0.165 C  
ENDBRANCH  11  36
TORSDOF 6
ENDMDL
MODEL       19
REMARK 921   NORMALIZED FREE ENERGY PREDICTED BY IDOCK:   -3.81 KCAL/MOL
REMARK 922        TOTAL FREE ENERGY PREDICTED BY IDOCK:   -6.88 KCAL/MOL
REMARK 923 INTER-LIGAND FREE ENERGY PREDICTED BY IDOCK:   -6.39 KCAL/MOL
REMARK 924 INTRA-LIGAND FREE ENERGY PREDICTED BY IDOCK:   -0.49 KCAL/MOL
REMARK 927      BINDING AFFINITY PREDICTED BY RF-SCORE:    0.00 PKD
ROOT
HETATM    1  C   UNL     1      -9.584   4.281  69.718  1.00  0.00    -0.279 C  
HETATM    2  C   UNL     1      -9.516   4.476  68.311  1.00  0.00    -0.205 C  
HETATM    3  C   UNL     1      -8.278   5.151  68.886  1.00  0.00    -0.088 C  
HETATM    4  C   UNL     1      -8.062   4.631  70.874  1.00  0.00    -0.082 C  
HETATM    5  C   UNL     1      -9.373   8.792  72.392  1.00  0.00    -0.159 C  
HETATM    6  C   UNL     1      -7.736   3.949  69.745  1.00  0.00    -0.052 C  
HETATM    7  C   UNL     1      -9.740   8.690  70.891  1.00  0.00    -0.254 C  
HETATM    8  C   UNL     1      -9.048  10.030  70.075  1.00  0.00    -0.133 C  
HETATM    9  C   UNL     1      -7.310   2.526  69.436  1.00  0.00    -0.044 C  
HETATM   10  C   UNL     1      -6.548   5.382  70.177  1.00  0.00    -0.039 C  
HETATM   11  C   UNL     1      -9.978  10.713  68.922  1.00  0.00    -0.204 C  
HETATM   12  C   UNL     1     -11.242  10.981  69.772  1.00  0.00    -0.268 C  
HETATM   13  C   UNL     1     -12.009   9.643  69.734  1.00  0.00     0.238 C  
HETATM   14  C   UNL     1      -7.456   6.879  70.775  1.00  0.00    -0.082 C  
HETATM   15  C   UNL     1     -11.359   8.740  70.833  1.00  0.00    -0.322 C  
HETATM   16  C   UNL     1     -12.077   7.390  70.996  1.00  0.00    -0.330 C  
HETATM   17  C   UNL     1     -11.561   6.257  70.112  1.00  0.00    -0.385 C  
HETATM   18  C   UNL     1     -10.122   5.901  70.493  1.00  0.00    -0.254 C  
HETATM   19  C   UNL     1      -9.114   7.271  70.372  1.00  0.00    -0.155 C  
ENDROOT
BRANCH   3  20
HETATM   20  N   UNL     1      -7.231   5.540  67.726  1.00  0.00    -0.071 NA 
HETATM   21  C   UNL     1      -9.464   4.446  64.510  1.00  0.00    -0.129 C  
HETATM   22  C   UNL     1      -6.552   4.624  66.802  1.00  0.00    -0.050 C  
HETATM   23  C   UNL     1      -7.977   6.260  63.710  1.00  0.00    -0.088 C  
HETATM   24  C   UNL     1      -7.625   6.713  66.936  1.00  0.00    -0.095 C  
HETATM   25  C   UNL     1      -7.099   4.436  65.338  1.00  0.00    -0.067 C  
HETATM   26  N   UNL     1      -8.300   5.365  64.901  1.00  0.00    -0.138 N  
HETATM   27  C   UNL     1      -8.758   6.311  66.007  1.00  0.00    -0.151 C  
ENDBRANCH   3  20
BRANCH   4  28
HETATM   28  O   UNL     1      -7.230   3.597  71.654  1.00  0.00    -0.037 OA 
BRANCH  28  29
HETATM   29  C   UNL     1      -7.527   3.302  72.943  1.00  0.00    -0.051 C  
HETATM   30  C   UNL     1      -8.388   4.349  73.595  1.00  0.00    -0.097 C  
HETATM   31  O   UNL     1      -7.199   2.255  73.512  1.00  0.00    -0.031 OA 
ENDBRANCH  28  29
ENDBRANCH   4  28
BRANCH  12  32
HETATM   32  O   UNL     1     -11.874  12.229  69.485  1.00  0.00    -0.305 OA 
BRANCH  32  33
HETATM   33  C   UNL     1     -12.443  12.791  70.589  1.00  0.00    -0.246 C  
HETATM   34  O   UNL     1     -13.011  12.098  71.414  1.00  0.00    -0.368 OA 
HETATM   35  C   UNL     1     -12.452  14.301  70.676  1.00  0.00    -0.428 C  
ENDBRANCH  32  33
ENDBRANCH  12  32
BRANCH  11  36
HETATM   36  N   UNL     1      -9.568  11.760  67.894  1.00  0.00    -0.181 NA 
HETATM   37  C   UNL     1      -7.043  12.668  67.752  1.00  0.00    -0.126 C  
HETATM   38  C   UNL     1      -8.242  11.769  67.234  1.00  0.00    -0.163 C  
HETATM   39  N   UNL     1      -7.411  14.045  68.358  1.00  0.00    -0.110 N  
HETATM   40  C   UNL     1      -7.343  15.140  67.291  1.00  0.00    -0.181 C  
HETATM   41  C   UNL     1      -8.782  13.977  69.055  1.00  0.00     0.169 C  
HETATM   42  C   UNL     1      -6.357  14.441  69.424  1.00  0.00    -0.122 C  
HETATM   43  C   UNL     1      -9.854  13.186  68.250  1.00  0.00    -0.227 C  
ENDBRANCH  11  36
TORSDOF 6
ENDMDL
MODEL       20
REMARK 921   NORMALIZED FREE ENERGY PREDICTED BY IDOCK:   -3.74 KCAL/MOL
REMARK 922        TOTAL FREE ENERGY PREDICTED BY IDOCK:   -6.79 KCAL/MOL
REMARK 923 INTER-LIGAND FREE ENERGY PREDICTED BY IDOCK:   -6.16 KCAL/MOL
REMARK 924 INTRA-LIGAND FREE ENERGY PREDICTED BY IDOCK:   -0.63 KCAL/MOL
REMARK 927      BINDING AFFINITY PREDICTED BY RF-SCORE:    0.00 PKD
ROOT
HETATM    1  C   UNL     1     -10.853  11.799  66.444  1.00  0.00    -0.325 C  
HETATM    2  C   UNL     1     -11.383  10.826  67.333  1.00  0.00    -0.239 C  
HETATM    3  C   UNL     1     -10.101  11.329  67.982  1.00  0.00    -0.177 C  
HETATM    4  C   UNL     1      -9.423  13.002  66.976  1.00  0.00    -0.237 C  
HETATM    5  C   UNL     1      -5.924  10.733  64.990  1.00  0.00     0.033 C  
HETATM    6  C   UNL     1     -10.397  12.873  67.914  1.00  0.00    -0.233 C  
HETATM    7  C   UNL     1      -6.897   9.687  65.589  1.00  0.00    -0.091 C  
HETATM    8  C   UNL     1      -6.004   8.649  66.622  1.00  0.00    -0.053 C  
HETATM    9  C   UNL     1     -11.496  13.771  68.450  1.00  0.00    -0.351 C  
HETATM   10  C   UNL     1      -8.617  12.787  68.602  1.00  0.00     0.054 C  
HETATM   11  C   UNL     1      -6.405   7.071  66.556  1.00  0.00    -0.050 C  
HETATM   12  C   UNL     1      -6.249   6.855  65.033  1.00  0.00    -0.036 C  
HETATM   13  C   UNL     1      -7.599   7.321  64.448  1.00  0.00    -0.111 C  
HETATM   14  C   UNL     1      -7.496  11.803  67.506  1.00  0.00    -0.131 C  
HETATM   15  C   UNL     1      -7.502   8.876  64.322  1.00  0.00    -0.106 C  
HETATM   16  C   UNL     1      -8.740   9.500  63.657  1.00  0.00    -0.239 C  
HETATM   17  C   UNL     1      -9.869   9.895  64.606  1.00  0.00    -0.185 C  
HETATM   18  C   UNL     1      -9.409  11.018  65.538  1.00  0.00    -0.242 C  
HETATM   19  C   UNL     1      -8.023  10.543  66.411  1.00  0.00    -0.137 C  
ENDROOT
BRANCH   3  20
HETATM   20  N   UNL     1      -9.984  10.838  69.510  1.00  0.00    -0.123 NA 
HETATM   21  C   UNL     1     -11.135   6.973  68.987  1.00  0.00    -0.074 C  
HETATM   22  C   UNL     1     -11.079  10.408  70.388  1.00  0.00    -0.296 C  
HETATM   23  C   UNL     1      -9.632   6.966  70.958  1.00  0.00    -0.170 C  
HETATM   24  C   UNL     1      -8.867   9.918  69.759  1.00  0.00    -0.211 C  
HETATM   25  C   UNL     1     -11.359   8.874  70.605  1.00  0.00    -0.259 C  
HETATM   26  N   UNL     1     -10.337   7.865  69.947  1.00  0.00    -0.218 N  
HETATM   27  C   UNL     1      -9.220   8.560  69.174  1.00  0.00    -0.150 C  
ENDBRANCH   3  20
BRANCH   4  28
HETATM   28  O   UNL     1      -9.519  14.525  67.187  1.00  0.00    -0.216 OA 
BRANCH  28  29
HETATM   29  C   UNL     1      -9.327  15.379  66.153  1.00  0.00    -0.332 C  
HETATM   30  C   UNL     1     -10.538  15.504  65.270  1.00  0.00    -0.446 C  
HETATM   31  O   UNL     1      -8.302  16.048  65.984  1.00  0.00    -0.254 OA 
ENDBRANCH  28  29
ENDBRANCH   4  28
BRANCH  12  32
HETATM   32  O   UNL     1      -5.663   5.599  64.686  1.00  0.00    -0.019 OA 
BRANCH  32  33
HETATM   33  C   UNL     1      -5.771   5.322  63.357  1.00  0.00    -0.014 C  
HETATM   34  O   UNL     1      -5.264   6.055  62.528  1.00  0.00    -0.016 OA 
HETATM   35  C   UNL     1      -6.646   4.154  62.957  1.00  0.00    -0.030 C  
ENDBRANCH  32  33
ENDBRANCH  12  32
BRANCH  11  36
HETATM   36  N   UNL     1      -5.953   5.954  67.490  1.00  0.00    -0.017 NA 
HETATM   37  C   UNL     1      -6.633   3.394  67.043  1.00  0.00    -0.038 C  
HETATM   38  C   UNL     1      -5.601   4.597  67.016  1.00  0.00    -0.014 C  
HETATM   39  N   UNL     1      -7.645   3.366  68.214  1.00  0.00    -0.056 N  
HETATM   40  C   UNL     1      -7.116   2.510  69.366  1.00  0.00    -0.044 C  
HETATM   41  C   UNL     1      -8.001   4.798  68.652  1.00  0.00    -0.080 C  
HETATM   42  C   UNL     1      -8.954   2.674  67.753  1.00  0.00    -0.162 C  
HETATM   43  C   UNL     1      -6.773   5.753  68.727  1.00  0.00    -0.064 C  
ENDBRANCH  11  36
TORSDOF 6
ENDMDL
MODEL       21
REMARK 921   NORMALIZED FREE ENERGY PREDICTED BY IDOCK:   -3.52 KCAL/MOL
REMARK 922        TOTAL FREE ENERGY PREDICTED BY IDOCK:   -6.49 KCAL/MOL
REMARK 923 INTER-LIGAND FREE ENERGY PREDICTED BY IDOCK:   -4.81 KCAL/MOL
REMARK 924 INTRA-LIGAND FREE ENERGY PREDICTED BY IDOCK:   -1.68 KCAL/MOL
REMARK 927      BINDING AFFINITY PREDICTED BY RF-SCORE:    0.00 PKD
ROOT
HETATM    1  C   UNL     1      -7.583   6.377  69.469  1.00  0.00    -0.095 C  
HETATM    2  C   UNL     1      -8.697   6.905  70.176  1.00  0.00    -0.141 C  
HETATM    3  C   UNL     1      -9.115   6.861  68.712  1.00  0.00    -0.133 C  
HETATM    4  C   UNL     1      -7.730   5.778  67.626  1.00  0.00    -0.097 C  
HETATM    5  C   UNL     1      -5.965   9.537  65.603  1.00  0.00    -0.060 C  
HETATM    6  C   UNL     1      -8.755   5.358  68.413  1.00  0.00    -0.098 C  
HETATM    7  C   UNL     1      -6.849   9.999  66.788  1.00  0.00    -0.081 C  
HETATM    8  C   UNL     1      -7.993  11.131  66.198  1.00  0.00    -0.090 C  
HETATM    9  C   UNL     1      -9.186   4.025  68.993  1.00  0.00    -0.215 C  
HETATM   10  C   UNL     1      -9.290   6.040  66.711  1.00  0.00    -0.148 C  
HETATM   11  C   UNL     1      -8.291  12.407  67.168  1.00  0.00    -0.181 C  
HETATM   12  C   UNL     1      -6.838  12.903  67.350  1.00  0.00    -0.128 C  
HETATM   13  C   UNL     1      -6.287  12.035  68.501  1.00  0.00    -0.055 C  
HETATM   14  C   UNL     1      -8.330   7.548  66.234  1.00  0.00    -0.134 C  
HETATM   15  C   UNL     1      -5.834  10.688  67.848  1.00  0.00    -0.043 C  
HETATM   16  C   UNL     1      -5.163   9.735  68.851  1.00  0.00    -0.036 C  
HETATM   17  C   UNL     1      -6.103   8.778  69.581  1.00  0.00    -0.032 C  
HETATM   18  C   UNL     1      -6.739   7.802  68.589  1.00  0.00    -0.058 C  
HETATM   19  C   UNL     1      -7.569   8.647  67.363  1.00  0.00    -0.093 C  
ENDROOT
BRANCH   3  20
HETATM   20  N   UNL     1     -10.696   7.111  68.546  1.00  0.00    -0.183 NA 
HETATM   21  C   UNL     1     -11.262   9.531  71.764  1.00  0.00    -0.193 C  
HETATM   22  C   UNL     1     -11.763   6.672  69.453  1.00  0.00    -0.006 C  
HETATM   23  C   UNL     1     -13.005  10.176  70.124  1.00  0.00     0.166 C  
HETATM   24  C   UNL     1     -11.044   8.474  68.124  1.00  0.00     0.368 C  
HETATM   25  C   UNL     1     -12.378   7.682  70.493  1.00  0.00     0.184 C  
HETATM   26  N   UNL     1     -11.885   9.180  70.406  1.00  0.00    -0.103 N  
HETATM   27  C   UNL     1     -10.852   9.409  69.307  1.00  0.00    -0.172 C  
ENDBRANCH   3  20
BRANCH   4  28
HETATM   28  O   UNL     1      -7.629   4.331  67.108  1.00  0.00    -0.076 OA 
BRANCH  28  29
HETATM   29  C   UNL     1      -6.425   3.790  66.802  1.00  0.00    -0.041 C  
HETATM   30  C   UNL     1      -5.513   4.760  66.102  1.00  0.00    -0.017 C  
HETATM   31  O   UNL     1      -6.071   2.651  67.126  1.00  0.00    -0.023 OA 
ENDBRANCH  28  29
ENDBRANCH   4  28
BRANCH  12  32
HETATM   32  O   UNL     1      -6.710  14.326  67.343  1.00  0.00    -0.259 OA 
BRANCH  32  33
HETATM   33  C   UNL     1      -6.308  14.819  68.548  1.00  0.00    -0.086 C  
HETATM   34  O   UNL     1      -5.130  15.038  68.766  1.00  0.00    -0.087 OA 
HETATM   35  C   UNL     1      -7.357  14.959  69.629  1.00  0.00    -0.153 C  
ENDBRANCH  32  33
ENDBRANCH  12  32
BRANCH  11  36
HETATM   36  N   UNL     1      -9.394  13.449  67.025  1.00  0.00    -0.235 NA 
HETATM   37  C   UNL     1     -11.952  12.732  66.628  1.00  0.00    -0.341 C  
HETATM   38  C   UNL     1     -10.766  13.249  67.544  1.00  0.00    -0.250 C  
HETATM   39  N   UNL     1     -11.940  13.183  65.147  1.00  0.00    -0.369 N  
HETATM   40  C   UNL     1     -12.781  14.448  64.960  1.00  0.00    -0.220 C  
HETATM   41  C   UNL     1     -10.494  13.350  64.647  1.00  0.00    -0.411 C  
HETATM   42  C   UNL     1     -12.622  12.101  64.270  1.00  0.00    -0.331 C  
HETATM   43  C   UNL     1      -9.557  14.059  65.668  1.00  0.00    -0.057 C  
ENDBRANCH  11  36
TORSDOF 6
ENDMDL
MODEL       22
REMARK 921   NORMALIZED FREE ENERGY PREDICTED BY IDOCK:   -3.50 KCAL/MOL
REMARK 922        TOTAL FREE ENERGY PREDICTED BY IDOCK:   -6.46 KCAL/MOL
REMARK 923 INTER-LIGAND FREE ENERGY PREDICTED BY IDOCK:   -6.54 KCAL/MOL
REMARK 924 INTRA-LIGAND FREE ENERGY PREDICTED BY IDOCK:    0.09 KCAL/MOL
REMARK 927      BINDING AFFINITY PREDICTED BY RF-SCORE:    0.00 PKD
ROOT
HETATM    1  C   UNL     1      -7.117   6.346  68.779  1.00  0.00    -0.082 C  
HETATM    2  C   UNL     1      -8.092   6.702  69.750  1.00  0.00    -0.126 C  
HETATM    3  C   UNL     1      -8.806   6.744  68.406  1.00  0.00    -0.122 C  
HETATM    4  C   UNL     1      -7.606   5.897  66.953  1.00  0.00    -0.099 C  
HETATM    5  C   UNL     1      -6.600   9.967  65.016  1.00  0.00    -0.124 C  
HETATM    6  C   UNL     1      -8.405   5.314  67.885  1.00  0.00    -0.098 C  
HETATM    7  C   UNL     1      -7.244  10.239  66.398  1.00  0.00    -0.113 C  
HETATM    8  C   UNL     1      -8.570  11.303  66.175  1.00  0.00    -0.156 C  
HETATM    9  C   UNL     1      -8.601   3.900  68.398  1.00  0.00    -0.115 C  
HETATM   10  C   UNL     1      -9.340   6.085  66.408  1.00  0.00    -0.171 C  
HETATM   11  C   UNL     1      -8.750  12.456  67.313  1.00  0.00    -0.191 C  
HETATM   12  C   UNL     1      -7.334  13.072  67.246  1.00  0.00    -0.057 C  
HETATM   13  C   UNL     1      -6.487  12.164  68.163  1.00  0.00    -0.056 C  
HETATM   14  C   UNL     1      -8.619   7.714  65.905  1.00  0.00    -0.164 C  
HETATM   15  C   UNL     1      -6.083  10.928  67.294  1.00  0.00    -0.062 C  
HETATM   16  C   UNL     1      -5.144   9.961  68.034  1.00  0.00    -0.036 C  
HETATM   17  C   UNL     1      -5.832   8.859  68.837  1.00  0.00    -0.040 C  
HETATM   18  C   UNL     1      -6.589   7.915  67.899  1.00  0.00    -0.056 C  
HETATM   19  C   UNL     1      -7.722   8.780  66.964  1.00  0.00    -0.095 C  
ENDROOT
BRANCH   3  20
HETATM   20  N   UNL     1     -10.401   6.855  68.593  1.00  0.00    -0.177 NA 
HETATM   21  C   UNL     1     -10.456   8.472  72.323  1.00  0.00    -0.332 C  
HETATM   22  C   UNL     1     -11.233   6.125  69.557  1.00  0.00    -0.411 C  
HETATM   23  C   UNL     1     -12.531   9.259  71.219  1.00  0.00    -0.316 C  
HETATM   24  C   UNL     1     -10.912   8.232  68.562  1.00  0.00     0.217 C  
HETATM   25  C   UNL     1     -11.688   6.824  70.892  1.00  0.00    -0.372 C  
HETATM   26  N   UNL     1     -11.317   8.350  71.059  1.00  0.00    -0.262 N  
HETATM   27  C   UNL     1     -10.544   8.913  69.870  1.00  0.00    -0.221 C  
ENDBRANCH   3  20
BRANCH   4  28
HETATM   28  O   UNL     1      -7.508   4.516  66.277  1.00  0.00    -0.080 OA 
BRANCH  28  29
HETATM   29  C   UNL     1      -6.456   4.212  65.479  1.00  0.00    -0.036 C  
HETATM   30  C   UNL     1      -6.244   5.224  64.387  1.00  0.00    -0.022 C  
HETATM   31  O   UNL     1      -5.698   3.253  65.662  1.00  0.00    -0.017 OA 
ENDBRANCH  28  29
ENDBRANCH   4  28
BRANCH  12  32
HETATM   32  O   UNL     1      -7.319  14.495  67.361  1.00  0.00    -0.188 OA 
BRANCH  32  33
HETATM   33  C   UNL     1      -6.156  14.963  67.896  1.00  0.00    -0.154 C  
HETATM   34  O   UNL     1      -5.212  15.241  67.178  1.00  0.00    -0.285 OA 
HETATM   35  C   UNL     1      -6.046  14.997  69.404  1.00  0.00    -0.110 C  
ENDBRANCH  32  33
ENDBRANCH  12  32
BRANCH  11  36
HETATM   36  N   UNL     1      -9.934  13.396  67.508  1.00  0.00    -0.227 NA 
HETATM   37  C   UNL     1      -9.851  15.945  66.661  1.00  0.00    -0.254 C  
HETATM   38  C   UNL     1     -10.312  14.434  66.522  1.00  0.00    -0.281 C  
HETATM   39  N   UNL     1      -9.730  16.510  68.098  1.00  0.00    -0.230 N  
HETATM   40  C   UNL     1     -11.027  17.208  68.515  1.00  0.00    -0.204 C  
HETATM   41  C   UNL     1      -9.309  15.401  69.079  1.00  0.00    -0.232 C  
HETATM   42  C   UNL     1      -8.639  17.611  68.131  1.00  0.00    -0.261 C  
HETATM   43  C   UNL     1     -10.047  14.050  68.850  1.00  0.00    -0.126 C  
ENDBRANCH  11  36
TORSDOF 6
ENDMDL
MODEL       23
REMARK 921   NORMALIZED FREE ENERGY PREDICTED BY IDOCK:   -3.35 KCAL/MOL
REMARK 922        TOTAL FREE ENERGY PREDICTED BY IDOCK:   -6.26 KCAL/MOL
REMARK 923 INTER-LIGAND FREE ENERGY PREDICTED BY IDOCK:   -5.59 KCAL/MOL
REMARK 924 INTRA-LIGAND FREE ENERGY PREDICTED BY IDOCK:   -0.67 KCAL/MOL
REMARK 927      BINDING AFFINITY PREDICTED BY RF-SCORE:    0.00 PKD
ROOT
HETATM    1  C   UNL     1      -9.399   3.739  70.026  1.00  0.00    -0.250 C  
HETATM    2  C   UNL     1      -8.739   3.791  68.768  1.00  0.00    -0.138 C  
HETATM    3  C   UNL     1      -7.767   4.391  69.775  1.00  0.00    -0.054 C  
HETATM    4  C   UNL     1      -8.449   4.045  71.694  1.00  0.00    -0.094 C  
HETATM    5  C   UNL     1      -9.711   8.441  72.337  1.00  0.00    -0.376 C  
HETATM    6  C   UNL     1      -7.783   3.228  70.835  1.00  0.00    -0.043 C  
HETATM    7  C   UNL     1      -9.444   8.234  70.825  1.00  0.00    -0.185 C  
HETATM    8  C   UNL     1      -8.312   9.414  70.310  1.00  0.00    -0.217 C  
HETATM    9  C   UNL     1      -7.457   1.748  70.797  1.00  0.00    -0.033 C  
HETATM   10  C   UNL     1      -6.699   4.571  71.656  1.00  0.00    -0.031 C  
HETATM   11  C   UNL     1      -8.593  10.072  68.846  1.00  0.00    -0.138 C  
HETATM   12  C   UNL     1     -10.047  10.545  69.079  1.00  0.00    -0.217 C  
HETATM   13  C   UNL     1     -10.899   9.292  68.786  1.00  0.00    -0.123 C  
HETATM   14  C   UNL     1      -7.569   6.202  71.753  1.00  0.00    -0.096 C  
HETATM   15  C   UNL     1     -10.878   8.438  70.096  1.00  0.00    -0.238 C  
HETATM   16  C   UNL     1     -11.769   7.188  70.007  1.00  0.00    -0.105 C  
HETATM   17  C   UNL     1     -11.089   5.930  69.471  1.00  0.00    -0.403 C  
HETATM   18  C   UNL     1      -9.991   5.472  70.432  1.00  0.00    -0.279 C  
HETATM   19  C   UNL     1      -8.851   6.716  70.679  1.00  0.00    -0.148 C  
ENDROOT
BRANCH   3  20
HETATM   20  N   UNL     1      -6.297   4.562  69.140  1.00  0.00    -0.031 NA 
HETATM   21  C   UNL     1      -7.359   4.795  65.222  1.00  0.00    -0.072 C  
HETATM   22  C   UNL     1      -5.595   3.615  68.265  1.00  0.00    -0.018 C  
HETATM   23  C   UNL     1      -5.250   6.081  65.424  1.00  0.00    -0.013 C  
HETATM   24  C   UNL     1      -6.031   5.902  68.601  1.00  0.00    -0.020 C  
HETATM   25  C   UNL     1      -5.578   3.846  66.708  1.00  0.00    -0.021 C  
HETATM   26  N   UNL     1      -6.227   5.186  66.180  1.00  0.00    -0.030 N  
HETATM   27  C   UNL     1      -6.794   6.058  67.297  1.00  0.00    -0.063 C  
ENDBRANCH   3  20
BRANCH   4  28
HETATM   28  O   UNL     1      -8.150   3.012  72.796  1.00  0.00    -0.065 OA 
BRANCH  28  29
HETATM   29  C   UNL     1      -9.025   2.813  73.812  1.00  0.00    -0.075 C  
HETATM   30  C   UNL     1      -9.392   4.088  74.520  1.00  0.00    -0.126 C  
HETATM   31  O   UNL     1      -9.535   1.722  74.089  1.00  0.00    -0.067 OA 
ENDBRANCH  28  29
ENDBRANCH   4  28
BRANCH  12  32
HETATM   32  O   UNL     1     -10.339  11.817  68.499  1.00  0.00    -0.207 OA 
BRANCH  32  33
HETATM   33  C   UNL     1     -11.623  12.212  68.727  1.00  0.00    -0.327 C  
HETATM   34  O   UNL     1     -12.375  12.441  67.797  1.00  0.00    -0.281 OA 
HETATM   35  C   UNL     1     -12.027  12.473  70.161  1.00  0.00    -0.377 C  
ENDBRANCH  32  33
ENDBRANCH  12  32
BRANCH  11  36
HETATM   36  N   UNL     1      -7.667  10.971  68.035  1.00  0.00    -0.102 NA 
HETATM   37  C   UNL     1      -5.422  11.993  69.101  1.00  0.00    -0.059 C  
HETATM   38  C   UNL     1      -6.193  10.956  68.182  1.00  0.00    -0.049 C  
HETATM   39  N   UNL     1      -6.011  13.422  69.189  1.00  0.00    -0.082 N  
HETATM   40  C   UNL     1      -5.353  14.342  68.157  1.00  0.00    -0.120 C  
HETATM   41  C   UNL     1      -7.544  13.382  69.058  1.00  0.00     0.101 C  
HETATM   42  C   UNL     1      -5.669  14.040  70.569  1.00  0.00    -0.162 C  
HETATM   43  C   UNL     1      -8.052  12.415  67.949  1.00  0.00    -0.161 C  
ENDBRANCH  11  36
TORSDOF 6
ENDMDL
MODEL       24
REMARK 921   NORMALIZED FREE ENERGY PREDICTED BY IDOCK:   -3.30 KCAL/MOL
REMARK 922        TOTAL FREE ENERGY PREDICTED BY IDOCK:   -6.19 KCAL/MOL
REMARK 923 INTER-LIGAND FREE ENERGY PREDICTED BY IDOCK:   -6.07 KCAL/MOL
REMARK 924 INTRA-LIGAND FREE ENERGY PREDICTED BY IDOCK:   -0.12 KCAL/MOL
REMARK 927      BINDING AFFINITY PREDICTED BY RF-SCORE:    0.00 PKD
ROOT
HETATM    1  C   UNL     1      -8.103   5.728  67.114  1.00  0.00    -0.102 C  
HETATM    2  C   UNL     1      -8.190   6.440  65.887  1.00  0.00    -0.130 C  
HETATM    3  C   UNL     1      -7.060   7.094  66.670  1.00  0.00    -0.078 C  
HETATM    4  C   UNL     1      -6.585   5.931  68.310  1.00  0.00    -0.052 C  
HETATM    5  C   UNL     1      -8.532   8.862  71.302  1.00  0.00    -0.239 C  
HETATM    6  C   UNL     1      -6.230   5.799  67.005  1.00  0.00    -0.034 C  
HETATM    7  C   UNL     1      -8.996   9.251  69.877  1.00  0.00    -0.194 C  
HETATM    8  C   UNL     1      -8.641  10.910  69.628  1.00  0.00     0.372 C  
HETATM    9  C   UNL     1      -5.569   4.715  66.176  1.00  0.00    -0.017 C  
HETATM   10  C   UNL     1      -5.304   7.182  67.944  1.00  0.00    -0.023 C  
HETATM   11  C   UNL     1      -9.775  11.763  68.826  1.00  0.00    -0.067 C  
HETATM   12  C   UNL     1     -10.992  11.429  69.719  1.00  0.00    -0.051 C  
HETATM   13  C   UNL     1     -11.492  10.073  69.178  1.00  0.00    -0.090 C  
HETATM   14  C   UNL     1      -6.428   8.127  69.071  1.00  0.00    -0.040 C  
HETATM   15  C   UNL     1     -10.594   8.982  69.848  1.00  0.00    -0.240 C  
HETATM   16  C   UNL     1     -11.027   7.551  69.489  1.00  0.00    -0.127 C  
HETATM   17  C   UNL     1     -10.380   6.961  68.238  1.00  0.00    -0.220 C  
HETATM   18  C   UNL     1      -8.873   6.795  68.449  1.00  0.00    -0.122 C  
HETATM   19  C   UNL     1      -8.157   8.289  68.854  1.00  0.00    -0.115 C  
ENDROOT
BRANCH   3  20
HETATM   20  N   UNL     1      -6.205   8.094  65.741  1.00  0.00    -0.045 NA 
HETATM   21  C   UNL     1      -8.512   7.926  62.398  1.00  0.00    -0.035 C  
HETATM   22  C   UNL     1      -5.471   7.754  64.516  1.00  0.00    -0.033 C  
HETATM   23  C   UNL     1      -7.430  10.156  62.356  1.00  0.00    -0.130 C  
HETATM   24  C   UNL     1      -6.861   9.383  65.489  1.00  0.00    -0.078 C  
HETATM   25  C   UNL     1      -6.112   8.048  63.108  1.00  0.00    -0.072 C  
HETATM   26  N   UNL     1      -7.487   8.825  63.100  1.00  0.00    -0.100 N  
HETATM   27  C   UNL     1      -7.993   9.164  64.499  1.00  0.00    -0.127 C  
ENDBRANCH   3  20
BRANCH   4  28
HETATM   28  O   UNL     1      -5.510   4.876  68.635  1.00  0.00    -0.010 OA 
BRANCH  28  29
HETATM   29  C   UNL     1      -5.676   4.017  69.669  1.00  0.00    -0.017 C  
HETATM   30  C   UNL     1      -6.061   4.713  70.946  1.00  0.00    -0.018 C  
HETATM   31  O   UNL     1      -5.599   2.788  69.573  1.00  0.00    -0.016 OA 
ENDBRANCH  28  29
ENDBRANCH   4  28
BRANCH  12  32
HETATM   32  O   UNL     1     -11.871  12.534  69.931  1.00  0.00    -0.325 OA 
BRANCH  32  33
HETATM   33  C   UNL     1     -12.737  12.321  70.962  1.00  0.00    -0.225 C  
HETATM   34  O   UNL     1     -13.211  11.217  71.155  1.00  0.00    -0.256 OA 
HETATM   35  C   UNL     1     -13.176  13.527  71.764  1.00  0.00    -0.490 C  
ENDBRANCH  32  33
ENDBRANCH  12  32
BRANCH  11  36
HETATM   36  N   UNL     1      -9.658  13.178  68.271  1.00  0.00    -0.225 NA 
HETATM   37  C   UNL     1     -11.791  14.471  67.273  1.00  0.00    -0.392 C  
HETATM   38  C   UNL     1     -10.726  14.193  68.414  1.00  0.00    -0.256 C  
HETATM   39  N   UNL     1     -11.302  14.329  65.810  1.00  0.00    -0.320 N  
HETATM   40  C   UNL     1     -10.842  15.681  65.260  1.00  0.00    -0.406 C  
HETATM   41  C   UNL     1     -10.214  13.245  65.709  1.00  0.00    -0.292 C  
HETATM   42  C   UNL     1     -12.486  13.897  64.907  1.00  0.00    -0.391 C  
HETATM   43  C   UNL     1      -9.169  13.299  66.861  1.00  0.00    -0.241 C  
ENDBRANCH  11  36
TORSDOF 6
ENDMDL
MODEL       25
REMARK 921   NORMALIZED FREE ENERGY PREDICTED BY IDOCK:   -3.21 KCAL/MOL
REMARK 922        TOTAL FREE ENERGY PREDICTED BY IDOCK:   -6.06 KCAL/MOL
REMARK 923 INTER-LIGAND FREE ENERGY PREDICTED BY IDOCK:   -6.58 KCAL/MOL
REMARK 924 INTRA-LIGAND FREE ENERGY PREDICTED BY IDOCK:    0.51 KCAL/MOL
REMARK 927      BINDING AFFINITY PREDICTED BY RF-SCORE:    0.00 PKD
ROOT
HETATM    1  C   UNL     1      -7.176   8.491  70.849  1.00  0.00    -0.065 C  
HETATM    2  C   UNL     1      -8.425   8.946  71.353  1.00  0.00    -0.216 C  
HETATM    3  C   UNL     1      -8.664   8.610  69.887  1.00  0.00    -0.133 C  
HETATM    4  C   UNL     1      -7.031   7.596  69.130  1.00  0.00    -0.068 C  
HETATM    5  C   UNL     1      -5.578  11.218  66.658  1.00  0.00    -0.129 C  
HETATM    6  C   UNL     1      -8.071   7.152  69.884  1.00  0.00    -0.125 C  
HETATM    7  C   UNL     1      -6.645  11.718  67.664  1.00  0.00    -0.085 C  
HETATM    8  C   UNL     1      -7.860  12.555  66.789  1.00  0.00     0.119 C  
HETATM    9  C   UNL     1      -8.378   5.876  70.643  1.00  0.00    -0.124 C  
HETATM   10  C   UNL     1      -8.498   7.469  68.049  1.00  0.00    -0.123 C  
HETATM   11  C   UNL     1      -8.436  13.906  67.496  1.00  0.00    -0.196 C  
HETATM   12  C   UNL     1      -7.095  14.642  67.719  1.00  0.00    -0.177 C  
HETATM   13  C   UNL     1      -6.564  14.059  69.046  1.00  0.00    -0.106 C  
HETATM   14  C   UNL     1      -7.705   9.013  67.408  1.00  0.00    -0.092 C  
HETATM   15  C   UNL     1      -5.861  12.713  68.676  1.00  0.00    -0.063 C  
HETATM   16  C   UNL     1      -5.183  12.043  69.883  1.00  0.00    -0.081 C  
HETATM   17  C   UNL     1      -6.060  11.079  70.679  1.00  0.00    -0.034 C  
HETATM   18  C   UNL     1      -6.440   9.873  69.817  1.00  0.00    -0.058 C  
HETATM   19  C   UNL     1      -7.235  10.379  68.395  1.00  0.00    -0.080 C  
ENDROOT
BRANCH   3  20
HETATM   20  N   UNL     1     -10.236   8.586  69.541  1.00  0.00    -0.202 NA 
HETATM   21  C   UNL     1     -11.642   7.520  73.204  1.00  0.00     0.041 C  
HETATM   22  C   UNL     1     -11.123   7.416  69.531  1.00  0.00    -0.072 C  
HETATM   23  C   UNL     1     -13.458   8.831  72.142  1.00  0.00    -0.427 C  
HETATM   24  C   UNL     1     -10.999   9.682  70.151  1.00  0.00    -0.275 C  
HETATM   25  C   UNL     1     -12.061   7.130  70.764  1.00  0.00    -0.288 C  
HETATM   26  N   UNL     1     -12.082   8.217  71.910  1.00  0.00    -0.304 N  
HETATM   27  C   UNL     1     -11.153   9.396  71.635  1.00  0.00    -0.339 C  
ENDBRANCH   3  20
BRANCH   4  28
HETATM   28  O   UNL     1      -6.675   6.119  68.879  1.00  0.00    -0.055 OA 
BRANCH  28  29
HETATM   29  C   UNL     1      -5.835   5.773  67.873  1.00  0.00    -0.013 C  
HETATM   30  C   UNL     1      -5.742   4.284  67.681  1.00  0.00    -0.022 C  
HETATM   31  O   UNL     1      -5.262   6.581  67.135  1.00  0.00    -0.008 OA 
ENDBRANCH  28  29
ENDBRANCH   4  28
BRANCH  12  32
HETATM   32  O   UNL     1      -7.163  16.048  67.479  1.00  0.00    -0.137 OA 
BRANCH  32  33
HETATM   33  C   UNL     1      -5.949  16.656  67.593  1.00  0.00    -0.147 C  
HETATM   34  O   UNL     1      -5.357  17.049  66.603  1.00  0.00    -0.219 OA 
HETATM   35  C   UNL     1      -5.319  16.704  68.968  1.00  0.00    -0.128 C  
ENDBRANCH  32  33
ENDBRANCH  12  32
BRANCH  11  36
HETATM   36  N   UNL     1      -9.648  14.731  67.079  1.00  0.00    -0.233 NA 
HETATM   37  C   UNL     1     -12.035  13.583  66.629  1.00  0.00    -0.404 C  
HETATM   38  C   UNL     1     -11.027  14.421  67.520  1.00  0.00    -0.293 C  
HETATM   39  N   UNL     1     -11.933  13.768  65.095  1.00  0.00    -0.360 N  
HETATM   40  C   UNL     1     -12.911  14.842  64.613  1.00  0.00     0.275 C  
HETATM   41  C   UNL     1     -10.479  14.059  64.684  1.00  0.00    -0.373 C  
HETATM   42  C   UNL     1     -12.372  12.461  64.385  1.00  0.00    -0.447 C  
HETATM   43  C   UNL     1      -9.753  15.066  65.623  1.00  0.00    -0.309 C  
ENDBRANCH  11  36
TORSDOF 6
ENDMDL
MODEL       26
REMARK 921   NORMALIZED FREE ENERGY PREDICTED BY IDOCK:   -3.13 KCAL/MOL
REMARK 922        TOTAL FREE ENERGY PREDICTED BY IDOCK:   -5.96 KCAL/MOL
REMARK 923 INTER-LIGAND FREE ENERGY PREDICTED BY IDOCK:   -5.50 KCAL/MOL
REMARK 924 INTRA-LIGAND FREE ENERGY PREDICTED BY IDOCK:   -0.46 KCAL/MOL
REMARK 927      BINDING AFFINITY PREDICTED BY RF-SCORE:    0.00 PKD
ROOT
HETATM    1  C   UNL     1      -7.924   6.119  72.679  1.00  0.00    -0.103 C  
HETATM    2  C   UNL     1      -9.229   6.607  72.963  1.00  0.00    -0.144 C  
HETATM    3  C   UNL     1      -9.357   5.794  71.681  1.00  0.00    -0.146 C  
HETATM    4  C   UNL     1      -7.616   4.731  71.355  1.00  0.00    -0.079 C  
HETATM    5  C   UNL     1      -6.269   7.463  67.882  1.00  0.00    -0.043 C  
HETATM    6  C   UNL     1      -8.666   4.470  72.177  1.00  0.00    -0.124 C  
HETATM    7  C   UNL     1      -7.426   8.170  68.631  1.00  0.00    -0.098 C  
HETATM    8  C   UNL     1      -8.640   8.573  67.489  1.00  0.00    -0.128 C  
HETATM    9  C   UNL     1      -8.930   3.487  73.302  1.00  0.00    -0.104 C  
HETATM   10  C   UNL     1      -9.004   4.136  70.326  1.00  0.00    -0.153 C  
HETATM   11  C   UNL     1      -9.349  10.027  67.693  1.00  0.00    -0.144 C  
HETATM   12  C   UNL     1      -8.077  10.905  67.708  1.00  0.00    -0.115 C  
HETATM   13  C   UNL     1      -7.588  10.831  69.170  1.00  0.00    -0.133 C  
HETATM   14  C   UNL     1      -8.281   5.450  69.241  1.00  0.00    -0.093 C  
HETATM   15  C   UNL     1      -6.773   9.502  69.286  1.00  0.00    -0.049 C  
HETATM   16  C   UNL     1      -6.125   9.319  70.669  1.00  0.00    -0.056 C  
HETATM   17  C   UNL     1      -6.979   8.596  71.707  1.00  0.00    -0.096 C  
HETATM   18  C   UNL     1      -7.224   7.148  71.276  1.00  0.00    -0.074 C  
HETATM   19  C   UNL     1      -7.965   7.097  69.741  1.00  0.00    -0.123 C  
ENDROOT
BRANCH   3  20
HETATM   20  N   UNL     1     -10.900   5.526  71.308  1.00  0.00    -0.219 NA 
HETATM   21  C   UNL     1     -12.466   9.010  72.703  1.00  0.00    -0.136 C  
HETATM   22  C   UNL     1     -12.020   5.355  72.242  1.00  0.00     0.223 C  
HETATM   23  C   UNL     1     -13.965   8.287  70.865  1.00  0.00     0.270 C  
HETATM   24  C   UNL     1     -11.400   6.357  70.205  1.00  0.00    -0.403 C  
HETATM   25  C   UNL     1     -12.985   6.563  72.543  1.00  0.00     0.457 C  
HETATM   26  N   UNL     1     -12.757   7.882  71.704  1.00  0.00    -0.324 N  
HETATM   27  C   UNL     1     -11.597   7.774  70.719  1.00  0.00    -0.255 C  
ENDBRANCH   3  20
BRANCH   4  28
HETATM   28  O   UNL     1      -7.145   3.288  71.615  1.00  0.00    -0.030 OA 
BRANCH  28  29
HETATM   29  C   UNL     1      -5.855   2.933  71.400  1.00  0.00    -0.013 C  
HETATM   30  C   UNL     1      -5.239   2.238  72.584  1.00  0.00     0.000 C  
HETATM   31  O   UNL     1      -5.260   3.086  70.328  1.00  0.00    -0.004 OA 
ENDBRANCH  28  29
ENDBRANCH   4  28
BRANCH  12  32
HETATM   32  O   UNL     1      -8.226  12.147  67.018  1.00  0.00    -0.173 OA 
BRANCH  32  33
HETATM   33  C   UNL     1      -7.250  13.042  67.337  1.00  0.00    -0.116 C  
HETATM   34  O   UNL     1      -6.092  12.834  67.023  1.00  0.00    -0.282 OA 
HETATM   35  C   UNL     1      -7.642  14.223  68.198  1.00  0.00    -0.134 C  
ENDBRANCH  32  33
ENDBRANCH  12  32
BRANCH  11  36
HETATM   36  N   UNL     1     -10.587  10.567  66.987  1.00  0.00    -0.253 NA 
HETATM   37  C   UNL     1     -10.461  12.730  65.399  1.00  0.00    -0.286 C  
HETATM   38  C   UNL     1     -10.549  11.165  65.633  1.00  0.00    -0.223 C  
HETATM   39  N   UNL     1     -11.190  13.634  66.424  1.00  0.00    -0.304 N  
HETATM   40  C   UNL     1     -12.603  13.970  65.940  1.00  0.00    -0.449 C  
HETATM   41  C   UNL     1     -11.178  12.983  67.819  1.00  0.00    -0.279 C  
HETATM   42  C   UNL     1     -10.456  14.995  66.531  1.00  0.00    -0.285 C  
HETATM   43  C   UNL     1     -11.478  11.456  67.799  1.00  0.00    -0.281 C  
ENDBRANCH  11  36
TORSDOF 6
ENDMDL
MODEL       27
REMARK 921   NORMALIZED FREE ENERGY PREDICTED BY IDOCK:   -3.05 KCAL/MOL
REMARK 922        TOTAL FREE ENERGY PREDICTED BY IDOCK:   -5.85 KCAL/MOL
REMARK 923 INTER-LIGAND FREE ENERGY PREDICTED BY IDOCK:   -4.39 KCAL/MOL
REMARK 924 INTRA-LIGAND FREE ENERGY PREDICTED BY IDOCK:   -1.46 KCAL/MOL
REMARK 927      BINDING AFFINITY PREDICTED BY RF-SCORE:    0.00 PKD
ROOT
HETATM    1  C   UNL     1     -11.390  11.619  66.752  1.00  0.00    -0.354 C  
HETATM    2  C   UNL     1     -12.006  10.920  67.826  1.00  0.00     0.369 C  
HETATM    3  C   UNL     1     -10.874  11.726  68.448  1.00  0.00    -0.223 C  
HETATM    4  C   UNL     1     -10.131  13.065  67.062  1.00  0.00    -0.243 C  
HETATM    5  C   UNL     1      -6.242  10.659  66.408  1.00  0.00    -0.108 C  
HETATM    6  C   UNL     1     -11.236  13.135  67.849  1.00  0.00    -0.300 C  
HETATM    7  C   UNL     1      -7.243   9.757  67.171  1.00  0.00    -0.087 C  
HETATM    8  C   UNL     1      -6.477   9.184  68.594  1.00  0.00    -0.053 C  
HETATM    9  C   UNL     1     -12.452  14.039  67.913  1.00  0.00     0.210 C  
HETATM   10  C   UNL     1      -9.588  13.445  68.765  1.00  0.00     0.035 C  
HETATM   11  C   UNL     1      -6.779   7.630  68.983  1.00  0.00    -0.049 C  
HETATM   12  C   UNL     1      -6.367   6.972  67.646  1.00  0.00    -0.043 C  
HETATM   13  C   UNL     1      -7.627   7.096  66.764  1.00  0.00    -0.093 C  
HETATM   14  C   UNL     1      -8.255  12.289  68.207  1.00  0.00    -0.167 C  
HETATM   15  C   UNL     1      -7.592   8.538  66.161  1.00  0.00    -0.089 C  
HETATM   16  C   UNL     1      -8.737   8.797  65.168  1.00  0.00    -0.202 C  
HETATM   17  C   UNL     1     -10.024   9.350  65.776  1.00  0.00    -0.278 C  
HETATM   18  C   UNL     1      -9.780  10.746  66.352  1.00  0.00    -0.241 C  
HETATM   19  C   UNL     1      -8.531  10.706  67.513  1.00  0.00    -0.121 C  
ENDROOT
BRANCH   3  20
HETATM   20  N   UNL     1     -10.981  11.745  70.054  1.00  0.00     0.212 NA 
HETATM   21  C   UNL     1     -14.084   9.152  70.478  1.00  0.00     0.827 C  
HETATM   22  C   UNL     1     -12.093  12.260  70.861  1.00  0.00    -0.062 C  
HETATM   23  C   UNL     1     -12.749   8.948  72.557  1.00  0.00    -0.313 C  
HETATM   24  C   UNL     1     -10.542  10.499  70.697  1.00  0.00     0.398 C  
HETATM   25  C   UNL     1     -13.159  11.266  71.457  1.00  0.00    -0.355 C  
HETATM   26  N   UNL     1     -12.888   9.723  71.251  1.00  0.00    -0.357 N  
HETATM   27  C   UNL     1     -11.607   9.439  70.472  1.00  0.00    -0.235 C  
ENDBRANCH   3  20
BRANCH   4  28
HETATM   28  O   UNL     1     -10.339  14.561  66.758  1.00  0.00    -0.264 OA 
BRANCH  28  29
HETATM   29  C   UNL     1     -10.277  15.022  65.485  1.00  0.00    -0.378 C  
HETATM   30  C   UNL     1     -10.490  13.940  64.464  1.00  0.00    -0.334 C  
HETATM   31  O   UNL     1     -10.138  16.213  65.182  1.00  0.00    -0.503 OA 
ENDBRANCH  28  29
ENDBRANCH   4  28
BRANCH  12  32
HETATM   32  O   UNL     1      -5.668   5.736  67.805  1.00  0.00    -0.011 OA 
BRANCH  32  33
HETATM   33  C   UNL     1      -6.321   4.690  67.226  1.00  0.00    -0.041 C  
HETATM   34  O   UNL     1      -7.114   4.023  67.867  1.00  0.00    -0.057 OA 
HETATM   35  C   UNL     1      -5.927   4.319  65.813  1.00  0.00    -0.023 C  
ENDBRANCH  32  33
ENDBRANCH  12  32
BRANCH  11  36
HETATM   36  N   UNL     1      -6.427   6.909  70.279  1.00  0.00    -0.042 NA 
HETATM   37  C   UNL     1      -8.334   6.058  71.969  1.00  0.00    -0.118 C  
HETATM   38  C   UNL     1      -7.247   5.812  70.842  1.00  0.00    -0.080 C  
HETATM   39  N   UNL     1      -8.023   7.159  73.013  1.00  0.00    -0.100 N  
HETATM   40  C   UNL     1      -7.350   6.557  74.249  1.00  0.00    -0.095 C  
HETATM   41  C   UNL     1      -7.194   8.288  72.374  1.00  0.00    -0.102 C  
HETATM   42  C   UNL     1      -9.349   7.777  73.526  1.00  0.00    -0.290 C  
HETATM   43  C   UNL     1      -6.057   7.778  71.441  1.00  0.00    -0.035 C  
ENDBRANCH  11  36
TORSDOF 6
ENDMDL
MODEL       28
REMARK 921   NORMALIZED FREE ENERGY PREDICTED BY IDOCK:   -3.04 KCAL/MOL
REMARK 922        TOTAL FREE ENERGY PREDICTED BY IDOCK:   -5.84 KCAL/MOL
REMARK 923 INTER-LIGAND FREE ENERGY PREDICTED BY IDOCK:   -4.82 KCAL/MOL
REMARK 924 INTRA-LIGAND FREE ENERGY PREDICTED BY IDOCK:   -1.01 KCAL/MOL
REMARK 927      BINDING AFFINITY PREDICTED BY RF-SCORE:    0.00 PKD
ROOT
HETATM    1  C   UNL     1      -8.307   6.962  72.946  1.00  0.00    -0.118 C  
HETATM    2  C   UNL     1      -9.382   7.892  72.986  1.00  0.00    -0.329 C  
HETATM    3  C   UNL     1      -9.830   6.777  72.052  1.00  0.00    -0.156 C  
HETATM    4  C   UNL     1      -8.519   5.186  72.189  1.00  0.00    -0.125 C  
HETATM    5  C   UNL     1      -6.624   6.034  68.062  1.00  0.00    -0.055 C  
HETATM    6  C   UNL     1      -9.546   5.552  73.000  1.00  0.00    -0.161 C  
HETATM    7  C   UNL     1      -7.462   7.271  68.470  1.00  0.00    -0.105 C  
HETATM    8  C   UNL     1      -8.565   7.617  67.204  1.00  0.00    -0.121 C  
HETATM    9  C   UNL     1     -10.025   5.138  74.377  1.00  0.00    -0.242 C  
HETATM   10  C   UNL     1     -10.084   4.736  71.358  1.00  0.00    -0.259 C  
HETATM   11  C   UNL     1      -8.783   9.198  66.869  1.00  0.00    -0.123 C  
HETATM   12  C   UNL     1      -7.306   9.594  66.645  1.00  0.00    -0.090 C  
HETATM   13  C   UNL     1      -6.772   9.871  68.066  1.00  0.00    -0.061 C  
HETATM   14  C   UNL     1      -9.064   5.318  69.927  1.00  0.00    -0.165 C  
HETATM   15  C   UNL     1      -6.395   8.477  68.665  1.00  0.00    -0.053 C  
HETATM   16  C   UNL     1      -5.748   8.581  70.057  1.00  0.00    -0.024 C  
HETATM   17  C   UNL     1      -6.716   8.549  71.237  1.00  0.00    -0.066 C  
HETATM   18  C   UNL     1      -7.416   7.191  71.312  1.00  0.00    -0.080 C  
HETATM   19  C   UNL     1      -8.232   6.855  69.852  1.00  0.00    -0.127 C  
ENDROOT
BRANCH   3  20
HETATM   20  N   UNL     1     -11.402   6.886  71.720  1.00  0.00    -0.250 NA 
HETATM   21  C   UNL     1     -11.674  10.934  71.443  1.00  0.00     0.369 C  
HETATM   22  C   UNL     1     -12.445   7.481  72.563  1.00  0.00     0.076 C  
HETATM   23  C   UNL     1     -13.457  10.038  69.972  1.00  0.00     0.931 C  
HETATM   24  C   UNL     1     -11.693   7.301  70.342  1.00  0.00    -0.182 C  
HETATM   25  C   UNL     1     -12.952   8.944  72.273  1.00  0.00    -0.419 C  
HETATM   26  N   UNL     1     -12.381   9.652  70.982  1.00  0.00    -0.314 N  
HETATM   27  C   UNL     1     -11.392   8.785  70.210  1.00  0.00    -0.147 C  
ENDBRANCH   3  20
BRANCH   4  28
HETATM   28  O   UNL     1      -8.494   3.844  72.944  1.00  0.00    -0.093 OA 
BRANCH  28  29
HETATM   29  C   UNL     1      -7.321   3.220  73.205  1.00  0.00    -0.051 C  
HETATM   30  C   UNL     1      -6.178   3.769  72.396  1.00  0.00    -0.013 C  
HETATM   31  O   UNL     1      -7.173   2.346  74.067  1.00  0.00    -0.034 OA 
ENDBRANCH  28  29
ENDBRANCH   4  28
BRANCH  12  32
HETATM   32  O   UNL     1      -7.113  10.513  65.568  1.00  0.00    -0.142 OA 
BRANCH  32  33
HETATM   33  C   UNL     1      -6.422   9.962  64.530  1.00  0.00    -0.120 C  
HETATM   34  O   UNL     1      -6.358  10.533  63.457  1.00  0.00    -0.106 OA 
HETATM   35  C   UNL     1      -5.858   8.573  64.728  1.00  0.00    -0.055 C  
ENDBRANCH  32  33
ENDBRANCH  12  32
BRANCH  11  36
HETATM   36  N   UNL     1      -9.840   9.821  65.965  1.00  0.00    -0.256 NA 
HETATM   37  C   UNL     1      -9.805  12.441  65.372  1.00  0.00    -0.183 C  
HETATM   38  C   UNL     1      -9.546  10.919  65.015  1.00  0.00    -0.251 C  
HETATM   39  N   UNL     1     -11.026  12.751  66.273  1.00  0.00    -0.274 N  
HETATM   40  C   UNL     1     -12.256  13.078  65.423  1.00  0.00    -0.471 C  
HETATM   41  C   UNL     1     -11.274  11.595  67.259  1.00  0.00    -0.304 C  
HETATM   42  C   UNL     1     -10.747  14.030  67.104  1.00  0.00    -0.283 C  
HETATM   43  C   UNL     1     -11.139  10.184  66.615  1.00  0.00     0.209 C  
ENDBRANCH  11  36
TORSDOF 6
ENDMDL
MODEL       29
REMARK 921   NORMALIZED FREE ENERGY PREDICTED BY IDOCK:   -2.77 KCAL/MOL
REMARK 922        TOTAL FREE ENERGY PREDICTED BY IDOCK:   -5.48 KCAL/MOL
REMARK 923 INTER-LIGAND FREE ENERGY PREDICTED BY IDOCK:   -4.97 KCAL/MOL
REMARK 924 INTRA-LIGAND FREE ENERGY PREDICTED BY IDOCK:   -0.51 KCAL/MOL
REMARK 927      BINDING AFFINITY PREDICTED BY RF-SCORE:    0.00 PKD
ROOT
HETATM    1  C   UNL     1     -10.719  10.540  66.971  1.00  0.00    -0.310 C  
HETATM    2  C   UNL     1     -11.265   9.681  67.964  1.00  0.00     0.015 C  
HETATM    3  C   UNL     1     -10.031  10.313  68.592  1.00  0.00    -0.173 C  
HETATM    4  C   UNL     1      -9.351  11.853  67.394  1.00  0.00    -0.176 C  
HETATM    5  C   UNL     1      -5.696   9.452  65.906  1.00  0.00    -0.049 C  
HETATM    6  C   UNL     1     -10.366  11.822  68.296  1.00  0.00    -0.217 C  
HETATM    7  C   UNL     1      -6.668   8.467  66.601  1.00  0.00    -0.061 C  
HETATM    8  C   UNL     1      -5.800   7.613  67.807  1.00  0.00    -0.036 C  
HETATM    9  C   UNL     1     -11.515  12.747  68.652  1.00  0.00    -0.341 C  
HETATM   10  C   UNL     1      -8.620  11.893  69.069  1.00  0.00     0.278 C  
HETATM   11  C   UNL     1      -6.153   6.027  67.945  1.00  0.00    -0.021 C  
HETATM   12  C   UNL     1      -5.916   5.608  66.476  1.00  0.00    -0.018 C  
HETATM   13  C   UNL     1      -7.248   5.942  65.771  1.00  0.00    -0.075 C  
HETATM   14  C   UNL     1      -7.420  10.805  68.173  1.00  0.00    -0.091 C  
HETATM   15  C   UNL     1      -7.187   7.468  65.434  1.00  0.00    -0.069 C  
HETATM   16  C   UNL     1      -8.408   7.950  64.633  1.00  0.00    -0.046 C  
HETATM   17  C   UNL     1      -9.593   8.435  65.465  1.00  0.00     0.260 C  
HETATM   18  C   UNL     1      -9.210   9.691  66.250  1.00  0.00    -0.213 C  
HETATM   19  C   UNL     1      -7.857   9.388  67.243  1.00  0.00    -0.099 C  
ENDROOT
BRANCH   3  20
HETATM   20  N   UNL     1      -9.977  10.043  70.179  1.00  0.00    -0.235 NA 
HETATM   21  C   UNL     1     -11.552   6.295  70.201  1.00  0.00    -0.315 C  
HETATM   22  C   UNL     1     -11.117   9.871  71.087  1.00  0.00    -0.289 C  
HETATM   23  C   UNL     1     -10.068   6.411  72.182  1.00  0.00    -0.177 C  
HETATM   24  C   UNL     1      -8.971   9.052  70.581  1.00  0.00    -0.220 C  
HETATM   25  C   UNL     1     -11.568   8.426  71.520  1.00  0.00    -0.284 C  
HETATM   26  N   UNL     1     -10.663   7.224  71.037  1.00  0.00    -0.229 N  
HETATM   27  C   UNL     1      -9.472   7.670  70.194  1.00  0.00    -0.161 C  
ENDBRANCH   3  20
BRANCH   4  28
HETATM   28  O   UNL     1      -9.499  13.386  67.386  1.00  0.00    -0.208 OA 
BRANCH  28  29
HETATM   29  C   UNL     1      -9.804  14.044  66.241  1.00  0.00    -0.305 C  
HETATM   30  C   UNL     1      -9.245  15.440  66.206  1.00  0.00    -0.354 C  
HETATM   31  O   UNL     1     -10.409  13.540  65.288  1.00  0.00    -0.310 OA 
ENDBRANCH  28  29
ENDBRANCH   4  28
BRANCH  12  32
HETATM   32  O   UNL     1      -5.279   4.337  66.336  1.00  0.00    -0.008 OA 
BRANCH  32  33
HETATM   33  C   UNL     1      -5.613   3.713  65.171  1.00  0.00    -0.010 C  
HETATM   34  O   UNL     1      -5.282   4.185  64.098  1.00  0.00    -0.008 OA 
HETATM   35  C   UNL     1      -6.508   2.497  65.264  1.00  0.00    -0.024 C  
ENDBRANCH  32  33
ENDBRANCH  12  32
BRANCH  11  36
HETATM   36  N   UNL     1      -5.718   5.067  69.046  1.00  0.00    -0.015 NA 
HETATM   37  C   UNL     1      -7.060   2.791  69.530  1.00  0.00    -0.040 C  
HETATM   38  C   UNL     1      -5.834   3.596  68.928  1.00  0.00    -0.023 C  
HETATM   39  N   UNL     1      -7.671   3.329  70.847  1.00  0.00    -0.043 N  
HETATM   40  C   UNL     1      -7.042   2.636  72.058  1.00  0.00    -0.038 C  
HETATM   41  C   UNL     1      -7.551   4.862  70.910  1.00  0.00    -0.073 C  
HETATM   42  C   UNL     1      -9.179   2.969  70.904  1.00  0.00    -0.133 C  
HETATM   43  C   UNL     1      -6.171   5.401  70.433  1.00  0.00    -0.023 C  
ENDBRANCH  11  36
TORSDOF 6
ENDMDL
MODEL       30
REMARK 921   NORMALIZED FREE ENERGY PREDICTED BY IDOCK:   -2.57 KCAL/MOL
REMARK 922        TOTAL FREE ENERGY PREDICTED BY IDOCK:   -5.20 KCAL/MOL
REMARK 923 INTER-LIGAND FREE ENERGY PREDICTED BY IDOCK:   -7.62 KCAL/MOL
REMARK 924 INTRA-LIGAND FREE ENERGY PREDICTED BY IDOCK:    2.43 KCAL/MOL
REMARK 927      BINDING AFFINITY PREDICTED BY RF-SCORE:    0.00 PKD
ROOT
HETATM    1  C   UNL     1     -11.022   9.488  67.249  1.00  0.00    -0.062 C  
HETATM    2  C   UNL     1      -9.771   9.356  66.586  1.00  0.00    -0.280 C  
HETATM    3  C   UNL     1      -9.452   9.873  67.982  1.00  0.00    -0.134 C  
HETATM    4  C   UNL     1     -11.139   9.764  69.169  1.00  0.00    -0.123 C  
HETATM    5  C   UNL     1     -11.819  14.333  69.105  1.00  0.00    -0.368 C  
HETATM    6  C   UNL     1     -10.248   8.802  68.815  1.00  0.00    -0.224 C  
HETATM    7  C   UNL     1     -10.786  13.984  68.005  1.00  0.00    -0.257 C  
HETATM    8  C   UNL     1      -9.389  14.946  68.253  1.00  0.00    -0.195 C  
HETATM    9  C   UNL     1     -10.200   7.290  68.928  1.00  0.00    -0.196 C  
HETATM   10  C   UNL     1      -9.614  10.022  70.142  1.00  0.00    -0.151 C  
HETATM   11  C   UNL     1      -8.688  15.537  66.904  1.00  0.00    -0.250 C  
HETATM   12  C   UNL     1      -9.923  16.234  66.288  1.00  0.00    -0.317 C  
HETATM   13  C   UNL     1     -10.651  15.104  65.530  1.00  0.00    -0.383 C  
HETATM   14  C   UNL     1     -10.113  11.766  69.775  1.00  0.00     1.064 C  
HETATM   15  C   UNL     1     -11.507  14.348  66.598  1.00  0.00    -0.372 C  
HETATM   16  C   UNL     1     -12.381  13.240  65.987  1.00  0.00    -0.449 C  
HETATM   17  C   UNL     1     -11.730  11.862  65.895  1.00  0.00    -0.208 C  
HETATM   18  C   UNL     1     -11.452  11.313  67.296  1.00  0.00    -0.265 C  
HETATM   19  C   UNL     1     -10.467  12.390  68.178  1.00  0.00    -0.228 C  
ENDROOT
BRANCH   3  20
HETATM   20  N   UNL     1      -7.875   9.781  68.295  1.00  0.00    -0.088 NA 
HETATM   21  C   UNL     1      -7.508   5.732  68.335  1.00  0.00    -0.081 C  
HETATM   22  C   UNL     1      -7.242   9.243  69.505  1.00  0.00    -0.061 C  
HETATM   23  C   UNL     1      -5.294   6.600  67.635  1.00  0.00    -0.008 C  
HETATM   24  C   UNL     1      -7.067   9.315  67.160  1.00  0.00    -0.086 C  
HETATM   25  C   UNL     1      -6.660   7.780  69.504  1.00  0.00    -0.039 C  
HETATM   26  N   UNL     1      -6.680   7.007  68.127  1.00  0.00    -0.062 N  
HETATM   27  C   UNL     1      -7.291   7.821  66.991  1.00  0.00    -0.091 C  
ENDBRANCH   3  20
BRANCH   4  28
HETATM   28  O   UNL     1     -11.682   8.776  70.218  1.00  0.00    -0.110 OA 
BRANCH  28  29
HETATM   29  C   UNL     1     -12.700   9.131  71.040  1.00  0.00    -0.131 C  
HETATM   30  C   UNL     1     -13.927   8.284  70.845  1.00  0.00     0.184 C  
HETATM   31  O   UNL     1     -12.618  10.002  71.913  1.00  0.00    -0.389 OA 
ENDBRANCH  28  29
ENDBRANCH   4  28
BRANCH  12  32
HETATM   32  O   UNL     1      -9.630  17.492  65.679  1.00  0.00    -0.510 OA 
BRANCH  32  33
HETATM   33  C   UNL     1     -10.567  18.440  65.961  1.00  0.00    -0.309 C  
HETATM   34  O   UNL     1     -11.043  19.125  65.074  1.00  0.00    -0.363 OA 
HETATM   35  C   UNL     1     -10.890  18.688  67.418  1.00  0.00    -0.381 C  
ENDBRANCH  32  33
ENDBRANCH  12  32
BRANCH  11  36
HETATM   36  N   UNL     1      -7.337  16.231  66.784  1.00  0.00    -0.223 NA 
HETATM   37  C   UNL     1      -6.148  17.358  68.914  1.00  0.00    -0.189 C  
HETATM   38  C   UNL     1      -6.311  16.193  67.851  1.00  0.00    -0.140 C  
HETATM   39  N   UNL     1      -6.437  18.798  68.423  1.00  0.00    -0.221 N  
HETATM   40  C   UNL     1      -5.147  19.480  67.961  1.00  0.00    -0.170 C  
HETATM   41  C   UNL     1      -7.527  18.788  67.337  1.00  0.00    -0.223 C  
HETATM   42  C   UNL     1      -6.956  19.655  69.607  1.00  0.00    -0.224 C  
HETATM   43  C   UNL     1      -7.359  17.645  66.293  1.00  0.00    -0.310 C  
ENDBRANCH  11  36
TORSDOF 6
ENDMDL
MODEL       31
REMARK 921   NORMALIZED FREE ENERGY PREDICTED BY IDOCK:   -2.19 KCAL/MOL
REMARK 922        TOTAL FREE ENERGY PREDICTED BY IDOCK:   -4.69 KCAL/MOL
REMARK 923 INTER-LIGAND FREE ENERGY PREDICTED BY IDOCK:   -4.19 KCAL/MOL
REMARK 924 INTRA-LIGAND FREE ENERGY PREDICTED BY IDOCK:   -0.50 KCAL/MOL
REMARK 927      BINDING AFFINITY PREDICTED BY RF-SCORE:    0.00 PKD
ROOT
HETATM    1  C   UNL     1      -8.899   8.992  70.480  1.00  0.00    -0.242 C  
HETATM    2  C   UNL     1      -9.833   9.790  71.196  1.00  0.00     0.225 C  
HETATM    3  C   UNL     1     -10.450   9.554  69.824  1.00  0.00    -0.231 C  
HETATM    4  C   UNL     1      -9.370   8.110  68.814  1.00  0.00    -0.143 C  
HETATM    5  C   UNL     1      -7.457  11.166  65.926  1.00  0.00     0.101 C  
HETATM    6  C   UNL     1     -10.320   7.986  69.778  1.00  0.00    -0.219 C  
HETATM    7  C   UNL     1      -8.107  11.949  67.094  1.00  0.00    -0.172 C  
HETATM    8  C   UNL     1      -9.175  13.115  66.433  1.00  0.00    -0.134 C  
HETATM    9  C   UNL     1     -10.826   6.850  70.646  1.00  0.00    -0.280 C  
HETATM   10  C   UNL     1     -10.998   8.432  68.048  1.00  0.00     0.122 C  
HETATM   11  C   UNL     1      -9.179  14.570  67.170  1.00  0.00    -0.223 C  
HETATM   12  C   UNL     1      -7.665  14.875  67.088  1.00  0.00    -0.142 C  
HETATM   13  C   UNL     1      -7.071  14.149  68.314  1.00  0.00    -0.112 C  
HETATM   14  C   UNL     1      -9.936   9.680  67.187  1.00  0.00    -0.249 C  
HETATM   15  C   UNL     1      -6.879  12.658  67.882  1.00  0.00    -0.112 C  
HETATM   16  C   UNL     1      -6.197  11.806  68.965  1.00  0.00    -0.072 C  
HETATM   17  C   UNL     1      -7.137  11.136  69.965  1.00  0.00     0.213 C  
HETATM   18  C   UNL     1      -8.017  10.105  69.256  1.00  0.00    -0.138 C  
HETATM   19  C   UNL     1      -8.900  10.837  67.994  1.00  0.00    -0.132 C  
ENDROOT
BRANCH   3  20
HETATM   20  N   UNL     1     -11.998   9.998  69.793  1.00  0.00    -0.040 NA 
HETATM   21  C   UNL     1     -11.700  13.364  72.054  1.00  0.00     2.085 C  
HETATM   22  C   UNL     1     -12.927  10.048  70.927  1.00  0.00    -0.318 C  
HETATM   23  C   UNL     1     -13.625  13.740  70.537  1.00  0.00     0.658 C  
HETATM   24  C   UNL     1     -12.258  11.197  68.987  1.00  0.00    -0.125 C  
HETATM   25  C   UNL     1     -13.228  11.421  71.638  1.00  0.00    -0.309 C  
HETATM   26  N   UNL     1     -12.592  12.713  70.988  1.00  0.00    -0.330 N  
HETATM   27  C   UNL     1     -11.753  12.411  69.750  1.00  0.00    -0.291 C  
ENDBRANCH   3  20
BRANCH   4  28
HETATM   28  O   UNL     1      -9.518   6.597  68.573  1.00  0.00    -0.125 OA 
BRANCH  28  29
HETATM   29  C   UNL     1      -8.528   5.894  67.970  1.00  0.00    -0.110 C  
HETATM   30  C   UNL     1      -7.317   6.734  67.673  1.00  0.00    -0.096 C  
HETATM   31  O   UNL     1      -8.570   4.678  67.753  1.00  0.00    -0.103 OA 
ENDBRANCH  28  29
ENDBRANCH   4  28
BRANCH  12  32
HETATM   32  O   UNL     1      -7.368  16.241  66.796  1.00  0.00    -0.217 OA 
BRANCH  32  33
HETATM   33  C   UNL     1      -6.132  16.611  67.235  1.00  0.00    -0.160 C  
HETATM   34  O   UNL     1      -5.148  16.424  66.543  1.00  0.00    -0.305 OA 
HETATM   35  C   UNL     1      -6.023  17.137  68.649  1.00  0.00    -0.150 C  
ENDBRANCH  32  33
ENDBRANCH  12  32
BRANCH  11  36
HETATM   36  N   UNL     1     -10.156  15.720  66.957  1.00  0.00    -0.255 NA 
HETATM   37  C   UNL     1      -9.323  18.122  66.090  1.00  0.00    -0.132 C  
HETATM   38  C   UNL     1     -10.012  16.712  65.867  1.00  0.00    -0.295 C  
HETATM   39  N   UNL     1      -9.524  18.789  67.473  1.00  0.00    -0.295 N  
HETATM   40  C   UNL     1     -10.720  19.742  67.445  1.00  0.00    -0.384 C  
HETATM   41  C   UNL     1      -9.640  17.719  68.574  1.00  0.00    -0.322 C  
HETATM   42  C   UNL     1      -8.296  19.676  67.805  1.00  0.00    -0.310 C  
HETATM   43  C   UNL     1     -10.530  16.506  68.175  1.00  0.00    -0.313 C  
ENDBRANCH  11  36
TORSDOF 6
ENDMDL
MODEL       32
REMARK 921   NORMALIZED FREE ENERGY PREDICTED BY IDOCK:   -2.15 KCAL/MOL
REMARK 922        TOTAL FREE ENERGY PREDICTED BY IDOCK:   -4.63 KCAL/MOL
REMARK 923 INTER-LIGAND FREE ENERGY PREDICTED BY IDOCK:   -5.72 KCAL/MOL
REMARK 924 INTRA-LIGAND FREE ENERGY PREDICTED BY IDOCK:    1.08 KCAL/MOL
REMARK 927      BINDING AFFINITY PREDICTED BY RF-SCORE:    0.00 PKD
ROOT
HETATM    1  C   UNL     1      -9.750   8.686  71.353  1.00  0.00    -0.314 C  
HETATM    2  C   UNL     1     -10.484   7.518  71.010  1.00  0.00    -0.222 C  
HETATM    3  C   UNL     1      -9.016   7.113  70.979  1.00  0.00    -0.150 C  
HETATM    4  C   UNL     1      -7.863   8.612  71.810  1.00  0.00    -0.091 C  
HETATM    5  C   UNL     1      -6.175   9.960  67.727  1.00  0.00    -0.055 C  
HETATM    6  C   UNL     1      -8.601   7.637  72.403  1.00  0.00    -0.162 C  
HETATM    7  C   UNL     1      -7.383   9.027  67.464  1.00  0.00    -0.081 C  
HETATM    8  C   UNL     1      -6.873   7.767  66.419  1.00  0.00    -0.062 C  
HETATM    9  C   UNL     1      -9.064   7.353  73.819  1.00  0.00    -0.294 C  
HETATM   10  C   UNL     1      -6.952   7.036  71.646  1.00  0.00    -0.069 C  
HETATM   11  C   UNL     1      -7.940   7.328  65.267  1.00  0.00    -0.127 C  
HETATM   12  C   UNL     1      -8.181   8.717  64.632  1.00  0.00    -0.165 C  
HETATM   13  C   UNL     1      -9.264   9.355  65.527  1.00  0.00    -0.292 C  
HETATM   14  C   UNL     1      -6.612   7.827  70.008  1.00  0.00    -0.037 C  
HETATM   15  C   UNL     1      -8.508   9.956  66.757  1.00  0.00    -0.125 C  
HETATM   16  C   UNL     1      -9.439  10.724  67.711  1.00  0.00    -0.165 C  
HETATM   17  C   UNL     1     -10.076   9.893  68.822  1.00  0.00    -0.186 C  
HETATM   18  C   UNL     1      -9.000   9.371  69.777  1.00  0.00    -0.199 C  
HETATM   19  C   UNL     1      -7.837   8.457  68.929  1.00  0.00    -0.113 C  
ENDROOT
BRANCH   3  20
HETATM   20  N   UNL     1      -8.851   5.514  70.890  1.00  0.00    -0.137 NA 
HETATM   21  C   UNL     1     -10.411   4.547  74.517  1.00  0.00    -0.253 C  
HETATM   22  C   UNL     1      -7.983   4.666  71.715  1.00  0.00    -0.099 C  
HETATM   23  C   UNL     1     -10.837   2.588  73.059  1.00  0.00    -0.110 C  
HETATM   24  C   UNL     1     -10.120   4.790  70.740  1.00  0.00    -0.216 C  
HETATM   25  C   UNL     1      -8.585   3.877  72.938  1.00  0.00    -0.099 C  
HETATM   26  N   UNL     1     -10.151   3.949  73.129  1.00  0.00    -0.138 N  
HETATM   27  C   UNL     1     -10.845   4.807  72.076  1.00  0.00     0.027 C  
ENDBRANCH   3  20
BRANCH   4  28
HETATM   28  O   UNL     1      -7.230   8.874  73.189  1.00  0.00    -0.348 OA 
BRANCH  28  29
HETATM   29  C   UNL     1      -5.910   9.161  73.300  1.00  0.00     0.037 C  
HETATM   30  C   UNL     1      -5.146   8.101  74.044  1.00  0.00    -0.049 C  
HETATM   31  O   UNL     1      -5.366  10.144  72.785  1.00  0.00    -0.313 OA 
ENDBRANCH  28  29
ENDBRANCH   4  28
BRANCH  12  32
HETATM   32  O   UNL     1      -8.291   8.687  63.208  1.00  0.00    -0.182 OA 
BRANCH  32  33
HETATM   33  C   UNL     1      -8.578   9.911  62.682  1.00  0.00    -0.187 C  
HETATM   34  O   UNL     1      -9.712  10.185  62.334  1.00  0.00    -0.222 OA 
HETATM   35  C   UNL     1      -7.419  10.851  62.432  1.00  0.00    -0.096 C  
ENDBRANCH  32  33
ENDBRANCH  12  32
BRANCH  11  36
HETATM   36  N   UNL     1      -7.869   6.117  64.344  1.00  0.00    -0.110 NA 
HETATM   37  C   UNL     1      -9.502   4.009  64.672  1.00  0.00    -0.169 C  
HETATM   38  C   UNL     1      -9.062   5.342  63.935  1.00  0.00     0.271 C  
HETATM   39  N   UNL     1      -8.370   3.106  65.220  1.00  0.00    -0.094 N  
HETATM   40  C   UNL     1      -7.994   2.031  64.198  1.00  0.00    -0.073 C  
HETATM   41  C   UNL     1      -7.165   3.959  65.657  1.00  0.00    -0.071 C  
HETATM   42  C   UNL     1      -8.879   2.333  66.464  1.00  0.00    -0.125 C  
HETATM   43  C   UNL     1      -6.815   5.103  64.661  1.00  0.00    -0.049 C  
ENDBRANCH  11  36
TORSDOF 6
ENDMDL
MODEL       33
REMARK 921   NORMALIZED FREE ENERGY PREDICTED BY IDOCK:   -2.12 KCAL/MOL
REMARK 922        TOTAL FREE ENERGY PREDICTED BY IDOCK:   -4.59 KCAL/MOL
REMARK 923 INTER-LIGAND FREE ENERGY PREDICTED BY IDOCK:   -5.34 KCAL/MOL
REMARK 924 INTRA-LIGAND FREE ENERGY PREDICTED BY IDOCK:    0.75 KCAL/MOL
REMARK 927      BINDING AFFINITY PREDICTED BY RF-SCORE:    0.00 PKD
ROOT
HETATM    1  C   UNL     1     -11.116  14.611  67.021  1.00  0.00    -0.333 C  
HETATM    2  C   UNL     1     -11.953  14.167  68.081  1.00  0.00    -0.367 C  
HETATM    3  C   UNL     1     -10.549  14.256  68.666  1.00  0.00    -0.250 C  
HETATM    4  C   UNL     1      -9.304  15.235  67.340  1.00  0.00    -0.199 C  
HETATM    5  C   UNL     1      -7.088  11.365  66.135  1.00  0.00     0.154 C  
HETATM    6  C   UNL     1     -10.208  15.728  68.226  1.00  0.00    -0.225 C  
HETATM    7  C   UNL     1      -8.371  10.965  66.905  1.00  0.00    -0.133 C  
HETATM    8  C   UNL     1      -7.924   9.932  68.198  1.00  0.00    -0.100 C  
HETATM    9  C   UNL     1     -10.833  17.087  68.476  1.00  0.00    -0.310 C  
HETATM   10  C   UNL     1      -8.582  15.106  69.014  1.00  0.00    -0.219 C  
HETATM   11  C   UNL     1      -8.925   8.675  68.478  1.00  0.00    -0.139 C  
HETATM   12  C   UNL     1      -8.932   8.064  67.058  1.00  0.00    -0.138 C  
HETATM   13  C   UNL     1     -10.007   8.876  66.306  1.00  0.00    -0.337 C  
HETATM   14  C   UNL     1      -7.995  13.530  68.241  1.00  0.00    -0.147 C  
HETATM   15  C   UNL     1      -9.302  10.188  65.829  1.00  0.00    -0.239 C  
HETATM   16  C   UNL     1     -10.216  11.076  64.968  1.00  0.00    -0.360 C  
HETATM   17  C   UNL     1     -11.052  12.099  65.735  1.00  0.00    -0.362 C  
HETATM   18  C   UNL     1     -10.143  13.131  66.405  1.00  0.00    -0.281 C  
HETATM   19  C   UNL     1      -9.027  12.364  67.441  1.00  0.00    -0.185 C  
ENDROOT
BRANCH   3  20
HETATM   20  N   UNL     1     -10.574  14.134  70.271  1.00  0.00     0.538 NA 
HETATM   21  C   UNL     1     -14.377  15.423  70.912  1.00  0.00     0.142 C  
HETATM   22  C   UNL     1     -10.686  15.229  71.241  1.00  0.00     0.137 C  
HETATM   23  C   UNL     1     -13.861  13.891  72.791  1.00  0.00    -0.202 C  
HETATM   24  C   UNL     1     -11.421  13.045  70.774  1.00  0.00     0.961 C  
HETATM   25  C   UNL     1     -12.078  15.558  71.901  1.00  0.00    -0.412 C  
HETATM   26  N   UNL     1     -13.273  14.581  71.565  1.00  0.00    -0.339 N  
HETATM   27  C   UNL     1     -12.877  13.453  70.616  1.00  0.00    -0.087 C  
ENDBRANCH   3  20
BRANCH   4  28
HETATM   28  O   UNL     1      -8.775  16.673  67.186  1.00  0.00    -0.186 OA 
BRANCH  28  29
HETATM   29  C   UNL     1      -8.707  17.257  65.965  1.00  0.00    -0.090 C  
HETATM   30  C   UNL     1      -7.379  17.917  65.710  1.00  0.00    -0.145 C  
HETATM   31  O   UNL     1      -9.599  17.195  65.112  1.00  0.00     0.176 OA 
ENDBRANCH  28  29
ENDBRANCH   4  28
BRANCH  12  32
HETATM   32  O   UNL     1      -8.911   6.636  67.047  1.00  0.00    -0.111 OA 
BRANCH  32  33
HETATM   33  C   UNL     1     -10.162   6.096  67.013  1.00  0.00    -0.202 C  
HETATM   34  O   UNL     1     -11.033   6.503  67.761  1.00  0.00    -0.296 OA 
HETATM   35  C   UNL     1     -10.382   4.902  66.111  1.00  0.00    -0.329 C  
ENDBRANCH  32  33
ENDBRANCH  12  32
BRANCH  11  36
HETATM   36  N   UNL     1      -8.916   7.725  69.670  1.00  0.00    -0.143 NA 
HETATM   37  C   UNL     1      -7.973   8.495  72.066  1.00  0.00    -0.105 C  
HETATM   38  C   UNL     1      -9.157   8.173  71.062  1.00  0.00    -0.152 C  
HETATM   39  N   UNL     1      -6.691   7.637  71.934  1.00  0.00    -0.053 N  
HETATM   40  C   UNL     1      -6.740   6.441  72.887  1.00  0.00    -0.069 C  
HETATM   41  C   UNL     1      -6.469   7.221  70.469  1.00  0.00    -0.043 C  
HETATM   42  C   UNL     1      -5.462   8.470  72.380  1.00  0.00    -0.048 C  
HETATM   43  C   UNL     1      -7.770   6.765  69.745  1.00  0.00    -0.113 C  
ENDBRANCH  11  36
TORSDOF 6
ENDMDL
MODEL       34
REMARK 921   NORMALIZED FREE ENERGY PREDICTED BY IDOCK:   -2.03 KCAL/MOL
REMARK 922        TOTAL FREE ENERGY PREDICTED BY IDOCK:   -4.47 KCAL/MOL
REMARK 923 INTER-LIGAND FREE ENERGY PREDICTED BY IDOCK:   -4.75 KCAL/MOL
REMARK 924 INTRA-LIGAND FREE ENERGY PREDICTED BY IDOCK:    0.28 KCAL/MOL
REMARK 927      BINDING AFFINITY PREDICTED BY RF-SCORE:    0.00 PKD
ROOT
HETATM    1  C   UNL     1      -7.083  17.740  66.757  1.00  0.00    -0.236 C  
HETATM    2  C   UNL     1      -7.972  17.354  65.716  1.00  0.00     0.161 C  
HETATM    3  C   UNL     1      -8.792  17.325  66.999  1.00  0.00    -0.228 C  
HETATM    4  C   UNL     1      -7.724  18.212  68.529  1.00  0.00    -0.297 C  
HETATM    5  C   UNL     1      -6.830  14.187  70.612  1.00  0.00     0.475 C  
HETATM    6  C   UNL     1      -8.452  18.768  67.526  1.00  0.00    -0.288 C  
HETATM    7  C   UNL     1      -7.356  13.885  69.188  1.00  0.00    -0.004 C  
HETATM    8  C   UNL     1      -8.683  12.807  69.321  1.00  0.00     0.953 C  
HETATM    9  C   UNL     1      -8.623  20.170  66.973  1.00  0.00    -0.408 C  
HETATM   10  C   UNL     1      -9.494  18.009  68.935  1.00  0.00    -0.209 C  
HETATM   11  C   UNL     1      -8.756  11.633  68.192  1.00  0.00    -0.159 C  
HETATM   12  C   UNL     1      -7.342  11.037  68.385  1.00  0.00    -0.096 C  
HETATM   13  C   UNL     1      -6.435  11.941  67.523  1.00  0.00    -0.111 C  
HETATM   14  C   UNL     1      -8.797  16.398  69.524  1.00  0.00     0.160 C  
HETATM   15  C   UNL     1      -6.117  13.196  68.400  1.00  0.00    -0.083 C  
HETATM   16  C   UNL     1      -5.133  14.164  67.722  1.00  0.00     0.016 C  
HETATM   17  C   UNL     1      -5.768  15.243  66.847  1.00  0.00     1.112 C  
HETATM   18  C   UNL     1      -6.609  16.192  67.704  1.00  0.00    -0.180 C  
HETATM   19  C   UNL     1      -7.804  15.327  68.559  1.00  0.00    -0.134 C  
ENDROOT
BRANCH   3  20
HETATM   20  N   UNL     1     -10.366  17.189  66.685  1.00  0.00    -0.323 NA 
HETATM   21  C   UNL     1     -10.247  13.764  64.497  1.00  0.00    -0.175 C  
HETATM   22  C   UNL     1     -11.019  17.285  65.375  1.00  0.00     0.078 C  
HETATM   23  C   UNL     1     -12.490  13.810  65.552  1.00  0.00    -0.512 C  
HETATM   24  C   UNL     1     -11.023  16.086  67.398  1.00  0.00    -0.237 C  
HETATM   25  C   UNL     1     -11.420  15.977  64.597  1.00  0.00    -0.250 C  
HETATM   26  N   UNL     1     -11.204  14.606  65.352  1.00  0.00    -0.334 N  
HETATM   27  C   UNL     1     -10.611  14.776  66.747  1.00  0.00    -0.302 C  
ENDBRANCH   3  20
BRANCH   4  28
HETATM   28  O   UNL     1      -7.698  19.604  69.186  1.00  0.00    -0.339 OA 
BRANCH  28  29
HETATM   29  C   UNL     1      -6.577  20.059  69.797  1.00  0.00    -0.298 C  
HETATM   30  C   UNL     1      -5.492  20.426  68.822  1.00  0.00    -0.302 C  
HETATM   31  O   UNL     1      -6.469  20.232  71.016  1.00  0.00    -0.473 OA 
ENDBRANCH  28  29
ENDBRANCH   4  28
BRANCH  12  32
HETATM   32  O   UNL     1      -7.301   9.612  68.296  1.00  0.00    -0.079 OA 
BRANCH  32  33
HETATM   33  C   UNL     1      -6.033   9.121  68.388  1.00  0.00    -0.045 C  
HETATM   34  O   UNL     1      -5.359   9.328  69.381  1.00  0.00    -0.035 OA 
HETATM   35  C   UNL     1      -5.463   8.429  67.169  1.00  0.00    -0.038 C  
ENDBRANCH  32  33
ENDBRANCH  12  32
BRANCH  11  36
HETATM   36  N   UNL     1      -9.909  10.674  67.919  1.00  0.00    -0.159 NA 
HETATM   37  C   UNL     1      -9.850   8.132  68.787  1.00  0.00    -0.176 C  
HETATM   38  C   UNL     1     -10.342   9.636  68.882  1.00  0.00    -0.203 C  
HETATM   39  N   UNL     1      -9.617   7.560  67.367  1.00  0.00    -0.143 N  
HETATM   40  C   UNL     1     -10.869   6.840  66.862  1.00  0.00    -0.331 C  
HETATM   41  C   UNL     1      -9.141   8.669  66.412  1.00  0.00    -0.174 C  
HETATM   42  C   UNL     1      -8.510   6.475  67.420  1.00  0.00    -0.119 C  
HETATM   43  C   UNL     1      -9.914  10.010  66.577  1.00  0.00    -0.225 C  
ENDBRANCH  11  36
TORSDOF 6
ENDMDL
MODEL       35
REMARK 921   NORMALIZED FREE ENERGY PREDICTED BY IDOCK:   -2.01 KCAL/MOL
REMARK 922        TOTAL FREE ENERGY PREDICTED BY IDOCK:   -4.45 KCAL/MOL
REMARK 923 INTER-LIGAND FREE ENERGY PREDICTED BY IDOCK:   -6.07 KCAL/MOL
REMARK 924 INTRA-LIGAND FREE ENERGY PREDICTED BY IDOCK:    1.63 KCAL/MOL
REMARK 927      BINDING AFFINITY PREDICTED BY RF-SCORE:    0.00 PKD
ROOT
HETATM    1  C   UNL     1      -7.178   8.494  70.851  1.00  0.00    -0.065 C  
HETATM    2  C   UNL     1      -8.423   8.956  71.358  1.00  0.00    -0.216 C  
HETATM    3  C   UNL     1      -8.664   8.634  69.889  1.00  0.00    -0.133 C  
HETATM    4  C   UNL     1      -7.039   7.612  69.126  1.00  0.00    -0.077 C  
HETATM    5  C   UNL     1      -5.551  11.240  66.685  1.00  0.00    -0.129 C  
HETATM    6  C   UNL     1      -8.083   7.171  69.874  1.00  0.00    -0.125 C  
HETATM    7  C   UNL     1      -6.614  11.742  67.693  1.00  0.00    -0.085 C  
HETATM    8  C   UNL     1      -7.820  12.597  66.823  1.00  0.00     0.159 C  
HETATM    9  C   UNL     1      -8.403   5.891  70.622  1.00  0.00    -0.124 C  
HETATM   10  C   UNL     1      -8.506   7.506  68.041  1.00  0.00    -0.123 C  
HETATM   11  C   UNL     1      -8.385  13.947  67.541  1.00  0.00    -0.196 C  
HETATM   12  C   UNL     1      -7.037  14.669  67.771  1.00  0.00    -0.177 C  
HETATM   13  C   UNL     1      -6.514  14.071  69.094  1.00  0.00    -0.113 C  
HETATM   14  C   UNL     1      -7.698   9.049  67.413  1.00  0.00    -0.092 C  
HETATM   15  C   UNL     1      -5.822  12.721  68.714  1.00  0.00    -0.069 C  
HETATM   16  C   UNL     1      -5.152  12.035  69.916  1.00  0.00    -0.076 C  
HETATM   17  C   UNL     1      -6.038  11.073  70.704  1.00  0.00    -0.034 C  
HETATM   18  C   UNL     1      -6.429   9.878  69.831  1.00  0.00    -0.069 C  
HETATM   19  C   UNL     1      -7.217  10.402  68.413  1.00  0.00    -0.080 C  
ENDROOT
BRANCH   3  20
HETATM   20  N   UNL     1     -10.236   8.627  69.540  1.00  0.00    -0.204 NA 
HETATM   21  C   UNL     1     -11.656   7.554  73.196  1.00  0.00     0.041 C  
HETATM   22  C   UNL     1     -11.133   7.466  69.523  1.00  0.00    -0.072 C  
HETATM   23  C   UNL     1     -13.458   8.888  72.139  1.00  0.00    -0.448 C  
HETATM   24  C   UNL     1     -10.989   9.727  70.155  1.00  0.00    -0.291 C  
HETATM   25  C   UNL     1     -12.075   7.181  70.753  1.00  0.00    -0.288 C  
HETATM   26  N   UNL     1     -12.087   8.263  71.905  1.00  0.00    -0.312 N  
HETATM   27  C   UNL     1     -11.147   9.434  71.638  1.00  0.00    -0.339 C  
ENDBRANCH   3  20
BRANCH   4  28
HETATM   28  O   UNL     1      -6.695   6.134  68.862  1.00  0.00    -0.055 OA 
BRANCH  28  29
HETATM   29  C   UNL     1      -5.859   5.788  67.854  1.00  0.00    -0.013 C  
HETATM   30  C   UNL     1      -5.779   4.300  67.651  1.00  0.00    -0.022 C  
HETATM   31  O   UNL     1      -5.279   6.597  67.122  1.00  0.00    -0.008 OA 
ENDBRANCH  28  29
ENDBRANCH   4  28
BRANCH  12  32
HETATM   32  O   UNL     1      -7.093  16.078  67.543  1.00  0.00    -0.138 OA 
BRANCH  32  33
HETATM   33  C   UNL     1      -5.873  16.674  67.665  1.00  0.00    -0.145 C  
HETATM   34  O   UNL     1      -5.277  17.071  66.681  1.00  0.00    -0.222 OA 
HETATM   35  C   UNL     1      -5.246  16.703  69.041  1.00  0.00    -0.120 C  
ENDBRANCH  32  33
ENDBRANCH  12  32
BRANCH  11  36
HETATM   36  N   UNL     1      -9.589  14.787  67.129  1.00  0.00    -0.222 NA 
HETATM   37  C   UNL     1      -9.287  17.185  65.956  1.00  0.00    -0.124 C  
HETATM   38  C   UNL     1      -9.607  15.633  65.914  1.00  0.00    -0.350 C  
HETATM   39  N   UNL     1      -9.736  17.958  67.221  1.00  0.00    -0.282 N  
HETATM   40  C   UNL     1     -11.119  18.579  67.013  1.00  0.00     0.165 C  
HETATM   41  C   UNL     1      -9.674  17.045  68.459  1.00  0.00    -0.282 C  
HETATM   42  C   UNL     1      -8.779  19.153  67.466  1.00  0.00    -0.292 C  
HETATM   43  C   UNL     1     -10.222  15.611  68.207  1.00  0.00    -0.223 C  
ENDBRANCH  11  36
TORSDOF 6
ENDMDL
MODEL       36
REMARK 921   NORMALIZED FREE ENERGY PREDICTED BY IDOCK:   -2.01 KCAL/MOL
REMARK 922        TOTAL FREE ENERGY PREDICTED BY IDOCK:   -4.44 KCAL/MOL
REMARK 923 INTER-LIGAND FREE ENERGY PREDICTED BY IDOCK:   -3.40 KCAL/MOL
REMARK 924 INTRA-LIGAND FREE ENERGY PREDICTED BY IDOCK:   -1.04 KCAL/MOL
REMARK 927      BINDING AFFINITY PREDICTED BY RF-SCORE:    0.00 PKD
ROOT
HETATM    1  C   UNL     1     -11.370  12.233  66.674  1.00  0.00    -0.398 C  
HETATM    2  C   UNL     1     -12.045  11.311  67.521  1.00  0.00     0.470 C  
HETATM    3  C   UNL     1     -10.852  11.816  68.321  1.00  0.00    -0.220 C  
HETATM    4  C   UNL     1      -9.995  13.427  67.352  1.00  0.00    -0.230 C  
HETATM    5  C   UNL     1      -6.318  10.996  65.971  1.00  0.00    -0.060 C  
HETATM    6  C   UNL     1     -11.093  13.361  68.149  1.00  0.00    -0.284 C  
HETATM    7  C   UNL     1      -7.393  10.000  66.470  1.00  0.00    -0.101 C  
HETATM    8  C   UNL     1      -6.681   8.990  67.659  1.00  0.00    -0.065 C  
HETATM    9  C   UNL     1     -12.231  14.305  68.488  1.00  0.00    -0.194 C  
HETATM   10  C   UNL     1      -9.429  13.267  69.082  1.00  0.00     0.540 C  
HETATM   11  C   UNL     1      -7.113   7.419  67.603  1.00  0.00    -0.085 C  
HETATM   12  C   UNL     1      -6.752   7.132  66.127  1.00  0.00    -0.053 C  
HETATM   13  C   UNL     1      -7.995   7.600  65.341  1.00  0.00    -0.123 C  
HETATM   14  C   UNL     1      -8.195  12.211  68.195  1.00  0.00    -0.164 C  
HETATM   15  C   UNL     1      -7.838   9.146  65.166  1.00  0.00    -0.106 C  
HETATM   16  C   UNL     1      -8.955   9.765  64.309  1.00  0.00    -0.276 C  
HETATM   17  C   UNL     1     -10.193  10.227  65.073  1.00  0.00    -0.277 C  
HETATM   18  C   UNL     1      -9.836  11.380  66.013  1.00  0.00    -0.256 C  
HETATM   19  C   UNL     1      -8.599  10.915  67.090  1.00  0.00    -0.130 C  
ENDROOT
BRANCH   3  20
HETATM   20  N   UNL     1     -10.962  11.391  69.870  1.00  0.00    -0.066 NA 
HETATM   21  C   UNL     1     -12.034   7.503  69.350  1.00  0.00     1.089 C  
HETATM   22  C   UNL     1     -12.175  10.995  70.595  1.00  0.00    -0.385 C  
HETATM   23  C   UNL     1     -10.836   7.586  71.519  1.00  0.00    -0.227 C  
HETATM   24  C   UNL     1      -9.896  10.487  70.319  1.00  0.00     0.544 C  
HETATM   25  C   UNL     1     -12.488   9.471  70.834  1.00  0.00    -0.202 C  
HETATM   26  N   UNL     1     -11.383   8.438  70.378  1.00  0.00    -0.220 N  
HETATM   27  C   UNL     1     -10.163   9.104  69.748  1.00  0.00    -0.207 C  
ENDBRANCH   3  20
BRANCH   4  28
HETATM   28  O   UNL     1     -10.078  14.959  67.484  1.00  0.00    -0.227 OA 
BRANCH  28  29
HETATM   29  C   UNL     1      -9.695  15.762  66.462  1.00  0.00    -0.265 C  
HETATM   30  C   UNL     1     -10.464  15.499  65.197  1.00  0.00    -0.431 C  
HETATM   31  O   UNL     1      -8.861  16.669  66.564  1.00  0.00    -0.233 OA 
ENDBRANCH  28  29
ENDBRANCH   4  28
BRANCH  12  32
HETATM   32  O   UNL     1      -6.159   5.850  65.919  1.00  0.00    -0.030 OA 
BRANCH  32  33
HETATM   33  C   UNL     1      -6.420   5.350  64.678  1.00  0.00    -0.038 C  
HETATM   34  O   UNL     1      -6.313   6.055  63.691  1.00  0.00    -0.028 OA 
HETATM   35  C   UNL     1      -6.964   3.941  64.594  1.00  0.00    -0.050 C  
ENDBRANCH  32  33
ENDBRANCH  12  32
BRANCH  11  36
HETATM   36  N   UNL     1      -6.826   6.336  68.637  1.00  0.00    -0.071 NA 
HETATM   37  C   UNL     1      -7.541   6.634  71.210  1.00  0.00    -0.093 C  
HETATM   38  C   UNL     1      -7.742   6.028  69.759  1.00  0.00    -0.096 C  
HETATM   39  N   UNL     1      -6.082   6.854  71.681  1.00  0.00    -0.037 N  
HETATM   40  C   UNL     1      -5.582   5.643  72.472  1.00  0.00    -0.026 C  
HETATM   41  C   UNL     1      -5.177   7.199  70.485  1.00  0.00    -0.023 C  
HETATM   42  C   UNL     1      -6.031   8.045  72.673  1.00  0.00    -0.051 C  
HETATM   43  C   UNL     1      -5.448   6.329  69.224  1.00  0.00    -0.012 C  
ENDBRANCH  11  36
TORSDOF 6
ENDMDL
MODEL       37
REMARK 921   NORMALIZED FREE ENERGY PREDICTED BY IDOCK:   -1.74 KCAL/MOL
REMARK 922        TOTAL FREE ENERGY PREDICTED BY IDOCK:   -4.08 KCAL/MOL
REMARK 923 INTER-LIGAND FREE ENERGY PREDICTED BY IDOCK:   -5.37 KCAL/MOL
REMARK 924 INTRA-LIGAND FREE ENERGY PREDICTED BY IDOCK:    1.29 KCAL/MOL
REMARK 927      BINDING AFFINITY PREDICTED BY RF-SCORE:    0.00 PKD
ROOT
HETATM    1  C   UNL     1      -8.776   8.995  69.703  1.00  0.00    -0.143 C  
HETATM    2  C   UNL     1      -9.811   9.752  70.317  1.00  0.00    -0.296 C  
HETATM    3  C   UNL     1      -9.921  10.028  68.824  1.00  0.00    -0.172 C  
HETATM    4  C   UNL     1      -8.716   8.713  67.782  1.00  0.00    -0.137 C  
HETATM    5  C   UNL     1      -5.581  11.952  66.772  1.00  0.00    -0.059 C  
HETATM    6  C   UNL     1      -9.954   8.540  68.314  1.00  0.00    -0.211 C  
HETATM    7  C   UNL     1      -6.515  12.513  67.873  1.00  0.00    -0.105 C  
HETATM    8  C   UNL     1      -7.145  14.013  67.333  1.00  0.00    -0.096 C  
HETATM    9  C   UNL     1     -10.855   7.347  68.568  1.00  0.00    -0.071 C  
HETATM   10  C   UNL     1      -9.919   9.566  66.703  1.00  0.00    -0.314 C  
HETATM   11  C   UNL     1      -7.253  15.183  68.463  1.00  0.00    -0.118 C  
HETATM   12  C   UNL     1      -5.786  15.170  68.951  1.00  0.00    -0.093 C  
HETATM   13  C   UNL     1      -5.750  14.033  69.994  1.00  0.00    -0.124 C  
HETATM   14  C   UNL     1      -8.492  10.744  66.661  1.00  0.00    -0.142 C  
HETATM   15  C   UNL     1      -5.579  12.707  69.183  1.00  0.00    -0.072 C  
HETATM   16  C   UNL     1      -5.424  11.472  70.085  1.00  0.00    -0.109 C  
HETATM   17  C   UNL     1      -6.725  10.774  70.476  1.00  0.00     0.197 C  
HETATM   18  C   UNL     1      -7.401  10.182  69.237  1.00  0.00    -0.098 C  
HETATM   19  C   UNL     1      -7.692  11.395  68.075  1.00  0.00    -0.114 C  
ENDROOT
BRANCH   3  20
HETATM   20  N   UNL     1     -11.298  10.782  68.467  1.00  0.00    -0.279 NA 
HETATM   21  C   UNL     1     -10.730  14.145  70.680  1.00  0.00     1.077 C  
HETATM   22  C   UNL     1     -12.400  11.096  69.385  1.00  0.00    -0.155 C  
HETATM   23  C   UNL     1     -12.190  14.821  68.794  1.00  0.00    -0.100 C  
HETATM   24  C   UNL     1     -11.129  11.958  67.604  1.00  0.00    -0.257 C  
HETATM   25  C   UNL     1     -12.530  12.542  69.994  1.00  0.00     0.035 C  
HETATM   26  N   UNL     1     -11.514  13.630  69.466  1.00  0.00    -0.275 N  
HETATM   27  C   UNL     1     -10.533  13.084  68.433  1.00  0.00    -0.252 C  
ENDBRANCH   3  20
BRANCH   4  28
HETATM   28  O   UNL     1      -8.930   7.386  67.030  1.00  0.00    -0.123 OA 
BRANCH  28  29
HETATM   29  C   UNL     1      -7.899   6.530  66.832  1.00  0.00    -0.107 C  
HETATM   30  C   UNL     1      -7.429   5.884  68.107  1.00  0.00    -0.081 C  
HETATM   31  O   UNL     1      -7.436   6.241  65.724  1.00  0.00    -0.078 OA 
ENDBRANCH  28  29
ENDBRANCH   4  28
BRANCH  12  32
HETATM   32  O   UNL     1      -5.259  16.469  69.224  1.00  0.00    -0.127 OA 
BRANCH  32  33
HETATM   33  C   UNL     1      -5.224  16.749  70.557  1.00  0.00    -0.223 C  
HETATM   34  O   UNL     1      -5.125  15.852  71.376  1.00  0.00    -0.177 OA 
HETATM   35  C   UNL     1      -5.440  18.187  70.973  1.00  0.00    -0.110 C  
ENDBRANCH  32  33
ENDBRANCH  12  32
BRANCH  11  36
HETATM   36  N   UNL     1      -7.960  16.529  68.346  1.00  0.00    -0.184 NA 
HETATM   37  C   UNL     1     -10.531  16.696  67.585  1.00  0.00    -0.320 C  
HETATM   38  C   UNL     1      -9.389  16.722  68.684  1.00  0.00    -0.252 C  
HETATM   39  N   UNL     1     -10.172  17.261  66.188  1.00  0.00    -0.342 N  
HETATM   40  C   UNL     1     -10.558  18.739  66.087  1.00  0.00    -0.377 C  
HETATM   41  C   UNL     1      -8.686  17.011  65.873  1.00  0.00     0.002 C  
HETATM   42  C   UNL     1     -11.014  16.540  65.105  1.00  0.00    -0.191 C  
HETATM   43  C   UNL     1      -7.737  17.287  67.075  1.00  0.00    -0.197 C  
ENDBRANCH  11  36
TORSDOF 6
ENDMDL
MODEL       38
REMARK 921   NORMALIZED FREE ENERGY PREDICTED BY IDOCK:   -1.55 KCAL/MOL
REMARK 922        TOTAL FREE ENERGY PREDICTED BY IDOCK:   -3.83 KCAL/MOL
REMARK 923 INTER-LIGAND FREE ENERGY PREDICTED BY IDOCK:   -2.26 KCAL/MOL
REMARK 924 INTRA-LIGAND FREE ENERGY PREDICTED BY IDOCK:   -1.56 KCAL/MOL
REMARK 927      BINDING AFFINITY PREDICTED BY RF-SCORE:    0.00 PKD
ROOT
HETATM    1  C   UNL     1      -9.140   8.176  71.548  1.00  0.00    -0.203 C  
HETATM    2  C   UNL     1     -10.100   9.118  72.008  1.00  0.00    -0.076 C  
HETATM    3  C   UNL     1     -10.566   8.689  70.623  1.00  0.00    -0.211 C  
HETATM    4  C   UNL     1      -9.466   7.057  69.994  1.00  0.00    -0.161 C  
HETATM    5  C   UNL     1      -7.043   9.520  66.928  1.00  0.00    -0.086 C  
HETATM    6  C   UNL     1     -10.528   7.130  70.838  1.00  0.00    -0.225 C  
HETATM    7  C   UNL     1      -7.775  10.509  67.869  1.00  0.00    -0.092 C  
HETATM    8  C   UNL     1      -8.685  11.597  66.905  1.00  0.00    -0.185 C  
HETATM    9  C   UNL     1     -11.201   6.172  71.802  1.00  0.00    -0.338 C  
HETATM   10  C   UNL     1     -10.970   7.318  68.989  1.00  0.00    -0.077 C  
HETATM   11  C   UNL     1      -8.686  13.150  67.400  1.00  0.00    -0.206 C  
HETATM   12  C   UNL     1      -7.157  13.374  67.463  1.00  0.00    -0.144 C  
HETATM   13  C   UNL     1      -6.756  12.832  68.851  1.00  0.00    -0.097 C  
HETATM   14  C   UNL     1      -9.740   8.364  68.084  1.00  0.00    -0.175 C  
HETATM   15  C   UNL     1      -6.607  11.284  68.684  1.00  0.00    -0.064 C  
HETATM   16  C   UNL     1      -6.111  10.591  69.964  1.00  0.00    -0.091 C  
HETATM   17  C   UNL     1      -7.200  10.132  70.930  1.00  0.00     0.500 C  
HETATM   18  C   UNL     1      -8.054   9.038  70.286  1.00  0.00    -0.141 C  
HETATM   19  C   UNL     1      -8.735   9.592  68.824  1.00  0.00    -0.128 C  
ENDROOT
BRANCH   3  20
HETATM   20  N   UNL     1     -12.068   9.187  70.329  1.00  0.00     0.124 NA 
HETATM   21  C   UNL     1     -11.815  12.880  72.009  1.00  0.00     2.255 C  
HETATM   22  C   UNL     1     -13.114   9.475  71.317  1.00  0.00    -0.327 C  
HETATM   23  C   UNL     1     -13.529  13.068  70.228  1.00  0.00     1.436 C  
HETATM   24  C   UNL     1     -12.160  10.237  69.307  1.00  0.00     0.158 C  
HETATM   25  C   UNL     1     -13.406  10.962  71.744  1.00  0.00    -0.310 C  
HETATM   26  N   UNL     1     -12.620  12.092  70.968  1.00  0.00    -0.330 N  
HETATM   27  C   UNL     1     -11.668  11.542  69.910  1.00  0.00    -0.343 C  
ENDBRANCH   3  20
BRANCH   4  28
HETATM   28  O   UNL     1      -9.677   5.531  69.975  1.00  0.00    -0.158 OA 
BRANCH  28  29
HETATM   29  C   UNL     1      -8.644   4.695  69.711  1.00  0.00    -0.073 C  
HETATM   30  C   UNL     1      -7.759   5.195  68.603  1.00  0.00    -0.079 C  
HETATM   31  O   UNL     1      -8.398   3.668  70.354  1.00  0.00    -0.056 OA 
ENDBRANCH  28  29
ENDBRANCH   4  28
BRANCH  12  32
HETATM   32  O   UNL     1      -6.744  14.661  67.001  1.00  0.00    -0.120 OA 
BRANCH  32  33
HETATM   33  C   UNL     1      -6.300  15.459  68.012  1.00  0.00    -0.139 C  
HETATM   34  O   UNL     1      -5.166  15.343  68.440  1.00  0.00    -0.092 OA 
HETATM   35  C   UNL     1      -7.302  16.392  68.655  1.00  0.00    -0.186 C  
ENDBRANCH  32  33
ENDBRANCH  12  32
BRANCH  11  36
HETATM   36  N   UNL     1      -9.559  14.290  66.890  1.00  0.00    -0.252 NA 
HETATM   37  C   UNL     1     -12.194  13.961  66.484  1.00  0.00    -0.442 C  
HETATM   38  C   UNL     1     -10.960  14.492  67.325  1.00  0.00    -0.305 C  
HETATM   39  N   UNL     1     -12.047  13.970  64.943  1.00  0.00    -0.398 N  
HETATM   40  C   UNL     1     -12.618  15.261  64.352  1.00  0.00     0.152 C  
HETATM   41  C   UNL     1     -10.581  13.728  64.541  1.00  0.00    -0.386 C  
HETATM   42  C   UNL     1     -12.899  12.826  64.334  1.00  0.00    -0.204 C  
HETATM   43  C   UNL     1      -9.557  14.515  65.410  1.00  0.00     0.012 C  
ENDBRANCH  11  36
TORSDOF 6
ENDMDL
MODEL       39
REMARK 921   NORMALIZED FREE ENERGY PREDICTED BY IDOCK:   -1.47 KCAL/MOL
REMARK 922        TOTAL FREE ENERGY PREDICTED BY IDOCK:   -3.71 KCAL/MOL
REMARK 923 INTER-LIGAND FREE ENERGY PREDICTED BY IDOCK:   -3.52 KCAL/MOL
REMARK 924 INTRA-LIGAND FREE ENERGY PREDICTED BY IDOCK:   -0.19 KCAL/MOL
REMARK 927      BINDING AFFINITY PREDICTED BY RF-SCORE:    0.00 PKD
ROOT
HETATM    1  C   UNL     1     -11.176  14.617  68.185  1.00  0.00    -0.304 C  
HETATM    2  C   UNL     1     -10.115  15.037  69.033  1.00  0.00    -0.241 C  
HETATM    3  C   UNL     1      -9.459  14.276  67.888  1.00  0.00    -0.212 C  
HETATM    4  C   UNL     1     -10.847  13.927  66.399  1.00  0.00    -0.291 C  
HETATM    5  C   UNL     1     -11.193   9.429  67.391  1.00  0.00     0.377 C  
HETATM    6  C   UNL     1     -10.127  15.043  66.687  1.00  0.00    -0.267 C  
HETATM    7  C   UNL     1     -10.456  10.125  68.562  1.00  0.00    -0.221 C  
HETATM    8  C   UNL     1      -8.973   9.307  68.828  1.00  0.00    -0.132 C  
HETATM    9  C   UNL     1     -10.165  16.491  66.237  1.00  0.00    -0.343 C  
HETATM   10  C   UNL     1      -9.131  13.653  65.835  1.00  0.00     0.324 C  
HETATM   11  C   UNL     1      -8.546   9.105  70.389  1.00  0.00    -0.209 C  
HETATM   12  C   UNL     1      -9.833   8.413  70.893  1.00  0.00    -0.184 C  
HETATM   13  C   UNL     1     -10.789   9.583  71.207  1.00  0.00    -0.413 C  
HETATM   14  C   UNL     1      -9.571  11.980  66.493  1.00  0.00    -0.234 C  
HETATM   15  C   UNL     1     -11.441   9.985  69.844  1.00  0.00    -0.274 C  
HETATM   16  C   UNL     1     -12.506  11.085  69.993  1.00  0.00    -0.319 C  
HETATM   17  C   UNL     1     -11.992  12.519  69.888  1.00  0.00    -0.371 C  
HETATM   18  C   UNL     1     -11.453  12.786  68.481  1.00  0.00    -0.344 C  
HETATM   19  C   UNL     1     -10.222  11.673  68.089  1.00  0.00    -0.206 C  
ENDROOT
BRANCH   3  20
HETATM   20  N   UNL     1      -7.863  14.489  67.882  1.00  0.00    -0.133 NA 
HETATM   21  C   UNL     1      -7.245  14.509  71.901  1.00  0.00     3.083 C  
HETATM   22  C   UNL     1      -7.123  15.657  68.374  1.00  0.00    -0.115 C  
HETATM   23  C   UNL     1      -5.137  13.671  70.901  1.00  0.00    -0.120 C  
HETATM   24  C   UNL     1      -7.102  13.306  68.303  1.00  0.00    -0.109 C  
HETATM   25  C   UNL     1      -6.453  15.621  69.799  1.00  0.00    -0.169 C  
HETATM   26  N   UNL     1      -6.512  14.248  70.578  1.00  0.00    -0.105 N  
HETATM   27  C   UNL     1      -7.242  13.152  69.809  1.00  0.00     0.633 C  
ENDBRANCH   3  20
BRANCH   4  28
HETATM   28  O   UNL     1     -11.216  14.597  65.062  1.00  0.00    -0.347 OA 
BRANCH  28  29
HETATM   29  C   UNL     1     -12.426  14.382  64.492  1.00  0.00    -0.339 C  
HETATM   30  C   UNL     1     -12.940  12.988  64.728  1.00  0.00    -0.207 C  
HETATM   31  O   UNL     1     -13.084  15.248  63.906  1.00  0.00    -0.321 OA 
ENDBRANCH  28  29
ENDBRANCH   4  28
BRANCH  12  32
HETATM   32  O   UNL     1      -9.591   7.358  71.825  1.00  0.00    -0.150 OA 
BRANCH  32  33
HETATM   33  C   UNL     1     -10.743   6.804  72.296  1.00  0.00    -0.220 C  
HETATM   34  O   UNL     1     -10.798   6.355  73.427  1.00  0.00    -0.263 OA 
HETATM   35  C   UNL     1     -11.894   6.656  71.325  1.00  0.00    -0.403 C  
ENDBRANCH  32  33
ENDBRANCH  12  32
BRANCH  11  36
HETATM   36  N   UNL     1      -7.208   8.621  70.933  1.00  0.00    -0.065 NA 
HETATM   37  C   UNL     1      -6.852   6.072  71.705  1.00  0.00    -0.068 C  
HETATM   38  C   UNL     1      -6.674   7.264  70.675  1.00  0.00    -0.048 C  
HETATM   39  N   UNL     1      -6.832   6.438  73.209  1.00  0.00    -0.074 N  
HETATM   40  C   UNL     1      -5.421   6.292  73.783  1.00  0.00    -0.041 C  
HETATM   41  C   UNL     1      -7.421   7.843  73.429  1.00  0.00    -0.140 C  
HETATM   42  C   UNL     1      -7.705   5.430  74.000  1.00  0.00    -0.097 C  
HETATM   43  C   UNL     1      -6.944   8.891  72.382  1.00  0.00     0.164 C  
ENDBRANCH  11  36
TORSDOF 6
ENDMDL
MODEL       40
REMARK 921   NORMALIZED FREE ENERGY PREDICTED BY IDOCK:   -1.40 KCAL/MOL
REMARK 922        TOTAL FREE ENERGY PREDICTED BY IDOCK:   -3.62 KCAL/MOL
REMARK 923 INTER-LIGAND FREE ENERGY PREDICTED BY IDOCK:   -6.55 KCAL/MOL
REMARK 924 INTRA-LIGAND FREE ENERGY PREDICTED BY IDOCK:    2.93 KCAL/MOL
REMARK 927      BINDING AFFINITY PREDICTED BY RF-SCORE:    0.00 PKD
ROOT
HETATM    1  C   UNL     1     -10.524   9.334  67.185  1.00  0.00    -0.319 C  
HETATM    2  C   UNL     1      -9.194   9.514  66.716  1.00  0.00    -0.184 C  
HETATM    3  C   UNL     1      -9.147   9.778  68.214  1.00  0.00    -0.122 C  
HETATM    4  C   UNL     1     -10.930   9.198  69.080  1.00  0.00    -0.033 C  
HETATM    5  C   UNL     1     -12.349  13.545  69.732  1.00  0.00    -0.249 C  
HETATM    6  C   UNL     1      -9.853   8.460  68.705  1.00  0.00    -0.180 C  
HETATM    7  C   UNL     1     -11.140  13.574  68.764  1.00  0.00    -0.298 C  
HETATM    8  C   UNL     1      -9.966  14.650  69.398  1.00  0.00    -0.038 C  
HETATM    9  C   UNL     1      -9.568   6.978  68.550  1.00  0.00    -0.137 C  
HETATM   10  C   UNL     1      -9.607   9.463  70.312  1.00  0.00    -0.294 C  
HETATM   11  C   UNL     1      -9.207  15.593  68.305  1.00  0.00    -0.188 C  
HETATM   12  C   UNL     1     -10.452  16.221  67.637  1.00  0.00    -0.295 C  
HETATM   13  C   UNL     1     -10.877  15.177  66.583  1.00  0.00    -0.318 C  
HETATM   14  C   UNL     1     -10.339  11.159  70.190  1.00  0.00     0.789 C  
HETATM   15  C   UNL     1     -11.725  14.110  67.349  1.00  0.00    -0.422 C  
HETATM   16  C   UNL     1     -12.316  13.038  66.419  1.00  0.00    -0.227 C  
HETATM   17  C   UNL     1     -11.438  11.811  66.185  1.00  0.00    -0.288 C  
HETATM   18  C   UNL     1     -11.255  11.034  67.491  1.00  0.00    -0.372 C  
HETATM   19  C   UNL     1     -10.584  12.037  68.696  1.00  0.00    -0.253 C  
ENDROOT
BRANCH   3  20
HETATM   20  N   UNL     1      -7.630   9.844  68.750  1.00  0.00    -0.079 NA 
HETATM   21  C   UNL     1      -6.519  13.329  66.975  1.00  0.00     0.671 C  
HETATM   22  C   UNL     1      -6.403   9.751  67.950  1.00  0.00    -0.056 C  
HETATM   23  C   UNL     1      -5.129  13.143  69.019  1.00  0.00    -0.069 C  
HETATM   24  C   UNL     1      -7.395  10.893  69.751  1.00  0.00    -0.007 C  
HETATM   25  C   UNL     1      -5.624  11.059  67.549  1.00  0.00    -0.045 C  
HETATM   26  N   UNL     1      -6.155  12.418  68.155  1.00  0.00    -0.059 N  
HETATM   27  C   UNL     1      -7.381  12.239  69.046  1.00  0.00     0.017 C  
ENDBRANCH   3  20
BRANCH   4  28
HETATM   28  O   UNL     1     -11.431   7.953  69.836  1.00  0.00    -0.051 OA 
BRANCH  28  29
HETATM   29  C   UNL     1     -12.307   8.074  70.863  1.00  0.00    -0.060 C  
HETATM   30  C   UNL     1     -12.449   6.805  71.658  1.00  0.00    -0.398 C  
HETATM   31  O   UNL     1     -12.874   9.127  71.174  1.00  0.00    -0.289 OA 
ENDBRANCH  28  29
ENDBRANCH   4  28
BRANCH  12  32
HETATM   32  O   UNL     1     -10.296  17.605  67.317  1.00  0.00    -0.334 OA 
BRANCH  32  33
HETATM   33  C   UNL     1     -10.630  17.882  66.026  1.00  0.00    -0.234 C  
HETATM   34  O   UNL     1     -10.502  17.037  65.158  1.00  0.00    -0.667 OA 
HETATM   35  C   UNL     1     -11.035  19.303  65.700  1.00  0.00    -0.127 C  
ENDBRANCH  32  33
ENDBRANCH  12  32
BRANCH  11  36
HETATM   36  N   UNL     1      -7.986  16.477  68.527  1.00  0.00    -0.204 NA 
HETATM   37  C   UNL     1      -7.996  19.074  67.835  1.00  0.00    -0.277 C  
HETATM   38  C   UNL     1      -8.081  17.906  68.904  1.00  0.00    -0.154 C  
HETATM   39  N   UNL     1      -7.062  18.844  66.621  1.00  0.00    -0.207 N  
HETATM   40  C   UNL     1      -5.673  19.428  66.889  1.00  0.00    -0.170 C  
HETATM   41  C   UNL     1      -7.019  17.351  66.251  1.00  0.00    -0.284 C  
HETATM   42  C   UNL     1      -7.607  19.621  65.395  1.00  0.00     0.106 C  
HETATM   43  C   UNL     1      -6.916  16.404  67.482  1.00  0.00    -0.148 C  
ENDBRANCH  11  36
TORSDOF 6
ENDMDL
MODEL       41
REMARK 921   NORMALIZED FREE ENERGY PREDICTED BY IDOCK:   -1.20 KCAL/MOL
REMARK 922        TOTAL FREE ENERGY PREDICTED BY IDOCK:   -3.35 KCAL/MOL
REMARK 923 INTER-LIGAND FREE ENERGY PREDICTED BY IDOCK:   -1.93 KCAL/MOL
REMARK 924 INTRA-LIGAND FREE ENERGY PREDICTED BY IDOCK:   -1.42 KCAL/MOL
REMARK 927      BINDING AFFINITY PREDICTED BY RF-SCORE:    0.00 PKD
ROOT
HETATM    1  C   UNL     1      -8.202  16.891  66.225  1.00  0.00    -0.344 C  
HETATM    2  C   UNL     1      -8.917  16.038  65.340  1.00  0.00     0.801 C  
HETATM    3  C   UNL     1      -9.691  16.022  66.651  1.00  0.00    -0.244 C  
HETATM    4  C   UNL     1      -8.969  17.499  67.903  1.00  0.00    -0.251 C  
HETATM    5  C   UNL     1      -6.846  14.488  70.689  1.00  0.00     0.341 C  
HETATM    6  C   UNL     1      -9.832  17.576  66.856  1.00  0.00    -0.302 C  
HETATM    7  C   UNL     1      -7.242  13.745  69.389  1.00  0.00     0.113 C  
HETATM    8  C   UNL     1      -8.155  12.358  69.818  1.00  0.00     1.847 C  
HETATM    9  C   UNL     1     -10.439  18.706  66.046  1.00  0.00    -0.456 C  
HETATM   10  C   UNL     1     -10.584  16.842  68.451  1.00  0.00    -0.354 C  
HETATM   11  C   UNL     1      -7.845  11.011  68.954  1.00  0.00    -0.138 C  
HETATM   12  C   UNL     1      -6.315  10.943  69.173  1.00  0.00    -0.058 C  
HETATM   13  C   UNL     1      -5.740  11.884  68.093  1.00  0.00    -0.048 C  
HETATM   14  C   UNL     1      -9.412  15.692  69.305  1.00  0.00    -0.264 C  
HETATM   15  C   UNL     1      -5.844  13.330  68.680  1.00  0.00    -0.083 C  
HETATM   16  C   UNL     1      -5.218  14.392  67.762  1.00  0.00     0.008 C  
HETATM   17  C   UNL     1      -6.159  15.010  66.730  1.00  0.00     1.637 C  
HETATM   18  C   UNL     1      -7.263  15.805  67.431  1.00  0.00    -0.235 C  
HETATM   19  C   UNL     1      -8.124  14.809  68.515  1.00  0.00    -0.146 C  
ENDROOT
BRANCH   3  20
HETATM   20  N   UNL     1     -11.137  15.338  66.470  1.00  0.00    -0.308 NA 
HETATM   21  C   UNL     1     -10.124  12.516  63.724  1.00  0.00    -0.243 C  
HETATM   22  C   UNL     1     -11.972  15.341  65.264  1.00  0.00     0.115 C  
HETATM   23  C   UNL     1     -12.043  11.574  64.980  1.00  0.00     0.550 C  
HETATM   24  C   UNL     1     -11.235  13.989  67.042  1.00  0.00    -0.313 C  
HETATM   25  C   UNL     1     -11.988  14.085  64.314  1.00  0.00    -0.435 C  
HETATM   26  N   UNL     1     -11.178  12.817  64.798  1.00  0.00    -0.294 N  
HETATM   27  C   UNL     1     -10.481  13.026  66.139  1.00  0.00    -0.279 C  
ENDBRANCH   3  20
BRANCH   4  28
HETATM   28  O   UNL     1      -9.392  18.935  68.266  1.00  0.00    -0.312 OA 
BRANCH  28  29
HETATM   29  C   UNL     1      -8.516  19.963  68.152  1.00  0.00    -0.242 C  
HETATM   30  C   UNL     1      -7.275  19.762  68.977  1.00  0.00    -0.340 C  
HETATM   31  O   UNL     1      -8.670  20.929  67.397  1.00  0.00    -0.243 OA 
ENDBRANCH  28  29
ENDBRANCH   4  28
BRANCH  12  32
HETATM   32  O   UNL     1      -5.821   9.618  69.369  1.00  0.00    -0.034 OA 
BRANCH  32  33
HETATM   33  C   UNL     1      -5.415   9.396  70.651  1.00  0.00    -0.039 C  
HETATM   34  O   UNL     1      -5.280   8.261  71.070  1.00  0.00    -0.029 OA 
HETATM   35  C   UNL     1      -5.267  10.602  71.553  1.00  0.00    -0.034 C  
ENDBRANCH  32  33
ENDBRANCH  12  32
BRANCH  11  36
HETATM   36  N   UNL     1      -8.629   9.705  68.950  1.00  0.00    -0.122 NA 
HETATM   37  C   UNL     1     -11.316   9.686  68.927  1.00  0.00     0.126 C  
HETATM   38  C   UNL     1      -9.906   9.531  68.220  1.00  0.00    -0.155 C  
HETATM   39  N   UNL     1     -11.413   9.229  70.404  1.00  0.00    -0.246 N  
HETATM   40  C   UNL     1     -11.894   7.779  70.490  1.00  0.00    -0.045 C  
HETATM   41  C   UNL     1     -10.073   9.456  71.126  1.00  0.00    -0.265 C  
HETATM   42  C   UNL     1     -12.492  10.067  71.136  1.00  0.00    -0.379 C  
HETATM   43  C   UNL     1      -8.830   9.049  70.281  1.00  0.00    -0.189 C  
ENDBRANCH  11  36
TORSDOF 6
ENDMDL
MODEL       42
REMARK 921   NORMALIZED FREE ENERGY PREDICTED BY IDOCK:   -1.06 KCAL/MOL
REMARK 922        TOTAL FREE ENERGY PREDICTED BY IDOCK:   -3.17 KCAL/MOL
REMARK 923 INTER-LIGAND FREE ENERGY PREDICTED BY IDOCK:   -5.77 KCAL/MOL
REMARK 924 INTRA-LIGAND FREE ENERGY PREDICTED BY IDOCK:    2.60 KCAL/MOL
REMARK 927      BINDING AFFINITY PREDICTED BY RF-SCORE:    0.00 PKD
ROOT
HETATM    1  C   UNL     1     -10.764   8.365  72.162  1.00  0.00    -0.407 C  
HETATM    2  C   UNL     1     -11.279   7.241  71.459  1.00  0.00    -0.273 C  
HETATM    3  C   UNL     1      -9.763   7.103  71.415  1.00  0.00    -0.168 C  
HETATM    4  C   UNL     1      -8.902   8.467  72.705  1.00  0.00    -0.217 C  
HETATM    5  C   UNL     1      -7.398  11.177  69.279  1.00  0.00    -0.097 C  
HETATM    6  C   UNL     1      -9.470   7.258  72.953  1.00  0.00    -0.200 C  
HETATM    7  C   UNL     1      -8.421  10.176  68.687  1.00  0.00    -0.122 C  
HETATM    8  C   UNL     1      -7.683   9.365  67.369  1.00  0.00    -0.095 C  
HETATM    9  C   UNL     1      -9.904   6.512  74.200  1.00  0.00    -0.318 C  
HETATM   10  C   UNL     1      -7.730   7.171  72.170  1.00  0.00    -0.090 C  
HETATM   11  C   UNL     1      -8.637   9.107  66.073  1.00  0.00    -0.146 C  
HETATM   12  C   UNL     1      -9.102  10.563  65.834  1.00  0.00    -0.168 C  
HETATM   13  C   UNL     1     -10.295  10.737  66.797  1.00  0.00    -0.294 C  
HETATM   14  C   UNL     1      -7.501   8.440  70.843  1.00  0.00    -0.066 C  
HETATM   15  C   UNL     1      -9.677  11.075  68.193  1.00  0.00    -0.180 C  
HETATM   16  C   UNL     1     -10.743  11.380  69.259  1.00  0.00    -0.195 C  
HETATM   17  C   UNL     1     -11.248  10.175  70.050  1.00  0.00    -0.361 C  
HETATM   18  C   UNL     1     -10.115   9.582  70.892  1.00  0.00    -0.330 C  
HETATM   19  C   UNL     1      -8.797   9.147  69.902  1.00  0.00    -0.176 C  
ENDROOT
BRANCH   3  20
HETATM   20  N   UNL     1      -9.323   5.644  70.896  1.00  0.00    -0.158 NA 
HETATM   21  C   UNL     1     -10.215   3.521  74.247  1.00  0.00    -0.175 C  
HETATM   22  C   UNL     1      -8.219   4.820  71.402  1.00  0.00    -0.103 C  
HETATM   23  C   UNL     1     -10.457   1.931  72.360  1.00  0.00    -0.130 C  
HETATM   24  C   UNL     1     -10.447   4.730  70.656  1.00  0.00    -0.017 C  
HETATM   25  C   UNL     1      -8.509   3.650  72.415  1.00  0.00    -0.085 C  
HETATM   26  N   UNL     1     -10.026   3.346  72.734  1.00  0.00    -0.143 N  
HETATM   27  C   UNL     1     -10.991   4.271  71.999  1.00  0.00     0.406 C  
ENDBRANCH   3  20
BRANCH   4  28
HETATM   28  O   UNL     1      -8.348   8.422  74.141  1.00  0.00    -0.266 OA 
BRANCH  28  29
HETATM   29  C   UNL     1      -7.033   8.644  74.383  1.00  0.00    -0.100 C  
HETATM   30  C   UNL     1      -6.249   7.370  74.536  1.00  0.00    -0.082 C  
HETATM   31  O   UNL     1      -6.507   9.761  74.400  1.00  0.00    -0.135 OA 
ENDBRANCH  28  29
ENDBRANCH   4  28
BRANCH  12  32
HETATM   32  O   UNL     1      -9.179  10.923  64.454  1.00  0.00    -0.207 OA 
BRANCH  32  33
HETATM   33  C   UNL     1     -10.274  11.686  64.175  1.00  0.00    -0.326 C  
HETATM   34  O   UNL     1     -11.313  11.167  63.810  1.00  0.00    -0.213 OA 
HETATM   35  C   UNL     1     -10.104  13.188  64.213  1.00  0.00    -0.166 C  
ENDBRANCH  32  33
ENDBRANCH  12  32
BRANCH  11  36
HETATM   36  N   UNL     1      -8.341   8.238  64.856  1.00  0.00    -0.156 NA 
HETATM   37  C   UNL     1      -7.894   5.600  65.097  1.00  0.00    -0.099 C  
HETATM   38  C   UNL     1      -8.810   6.840  64.728  1.00  0.00     0.480 C  
HETATM   39  N   UNL     1      -6.378   5.742  64.815  1.00  0.00    -0.036 N  
HETATM   40  C   UNL     1      -6.029   5.176  63.437  1.00  0.00    -0.021 C  
HETATM   41  C   UNL     1      -5.933   7.206  64.988  1.00  0.00    -0.037 C  
HETATM   42  C   UNL     1      -5.579   4.882  65.828  1.00  0.00    -0.017 C  
HETATM   43  C   UNL     1      -6.924   8.237  64.372  1.00  0.00    -0.073 C  
ENDBRANCH  11  36
TORSDOF 6
ENDMDL
MODEL       43
REMARK 921   NORMALIZED FREE ENERGY PREDICTED BY IDOCK:   -1.03 KCAL/MOL
REMARK 922        TOTAL FREE ENERGY PREDICTED BY IDOCK:   -3.12 KCAL/MOL
REMARK 923 INTER-LIGAND FREE ENERGY PREDICTED BY IDOCK:   -3.04 KCAL/MOL
REMARK 924 INTRA-LIGAND FREE ENERGY PREDICTED BY IDOCK:   -0.08 KCAL/MOL
REMARK 927      BINDING AFFINITY PREDICTED BY RF-SCORE:    0.00 PKD
ROOT
HETATM    1  C   UNL     1      -8.372  11.869  68.452  1.00  0.00    -0.157 C  
HETATM    2  C   UNL     1      -8.041  10.960  69.494  1.00  0.00     0.086 C  
HETATM    3  C   UNL     1      -6.738  11.245  68.758  1.00  0.00    -0.070 C  
HETATM    4  C   UNL     1      -7.006  12.826  67.455  1.00  0.00    -0.149 C  
HETATM    5  C   UNL     1      -6.947  10.116  63.715  1.00  0.00    -0.105 C  
HETATM    6  C   UNL     1      -6.788  12.817  68.797  1.00  0.00    -0.096 C  
HETATM    7  C   UNL     1      -7.109   9.211  64.962  1.00  0.00    -0.092 C  
HETATM    8  C   UNL     1      -5.877   8.020  64.928  1.00  0.00    -0.045 C  
HETATM    9  C   UNL     1      -6.858  13.853  69.902  1.00  0.00     0.116 C  
HETATM   10  C   UNL     1      -5.242  12.442  67.739  1.00  0.00    -0.089 C  
HETATM   11  C   UNL     1      -6.328   6.522  65.388  1.00  0.00    -0.038 C  
HETATM   12  C   UNL     1      -7.520   6.332  64.422  1.00  0.00    -0.088 C  
HETATM   13  C   UNL     1      -8.701   7.013  65.144  1.00  0.00     0.134 C  
HETATM   14  C   UNL     1      -5.631  11.334  66.309  1.00  0.00    -0.131 C  
HETATM   15  C   UNL     1      -8.579   8.540  64.827  1.00  0.00    -0.106 C  
HETATM   16  C   UNL     1      -9.747   9.362  65.396  1.00  0.00    -0.248 C  
HETATM   17  C   UNL     1      -9.549   9.895  66.813  1.00  0.00    -0.231 C  
HETATM   18  C   UNL     1      -8.401  10.907  66.843  1.00  0.00    -0.133 C  
HETATM   19  C   UNL     1      -6.964  10.201  66.256  1.00  0.00    -0.109 C  
ENDROOT
BRANCH   3  20
HETATM   20  N   UNL     1      -5.468  10.695  69.581  1.00  0.00    -0.038 NA 
HETATM   21  C   UNL     1      -7.428   8.167  72.090  1.00  0.00    -0.102 C  
HETATM   22  C   UNL     1      -5.175  10.907  71.003  1.00  0.00    -0.109 C  
HETATM   23  C   UNL     1      -5.152   7.220  71.825  1.00  0.00    -0.028 C  
HETATM   24  C   UNL     1      -5.128   9.296  69.290  1.00  0.00    -0.036 C  
HETATM   25  C   UNL     1      -5.512   9.783  72.053  1.00  0.00     0.008 C  
HETATM   26  N   UNL     1      -6.042   8.409  71.478  1.00  0.00    -0.039 N  
HETATM   27  C   UNL     1      -6.158   8.400  69.957  1.00  0.00    -0.031 C  
ENDBRANCH   3  20
BRANCH   4  28
HETATM   28  O   UNL     1      -6.718  14.338  67.490  1.00  0.00    -0.185 OA 
BRANCH  28  29
HETATM   29  C   UNL     1      -7.582  15.219  66.929  1.00  0.00    -0.016 C  
HETATM   30  C   UNL     1      -7.017  16.610  66.841  1.00  0.00    -0.262 C  
HETATM   31  O   UNL     1      -8.685  14.912  66.465  1.00  0.00    -0.254 OA 
ENDBRANCH  28  29
ENDBRANCH   4  28
BRANCH  12  32
HETATM   32  O   UNL     1      -7.618   5.013  63.882  1.00  0.00    -0.062 OA 
BRANCH  32  33
HETATM   33  C   UNL     1      -8.546   4.924  62.888  1.00  0.00    -0.123 C  
HETATM   34  O   UNL     1      -9.001   5.930  62.373  1.00  0.00     0.076 OA 
HETATM   35  C   UNL     1      -9.072   3.547  62.547  1.00  0.00    -0.090 C  
ENDBRANCH  32  33
ENDBRANCH  12  32
BRANCH  11  36
HETATM   36  N   UNL     1      -5.430   5.323  65.667  1.00  0.00    -0.013 NA 
HETATM   37  C   UNL     1      -6.365   2.809  65.513  1.00  0.00    -0.024 C  
HETATM   38  C   UNL     1      -5.547   4.039  64.939  1.00  0.00    -0.014 C  
HETATM   39  N   UNL     1      -6.354   2.617  67.050  1.00  0.00    -0.031 N  
HETATM   40  C   UNL     1      -5.241   1.654  67.467  1.00  0.00    -0.012 C  
HETATM   41  C   UNL     1      -6.261   3.979  67.761  1.00  0.00    -0.036 C  
HETATM   42  C   UNL     1      -7.675   1.940  67.497  1.00  0.00    -0.060 C  
HETATM   43  C   UNL     1      -5.241   4.957  67.107  1.00  0.00    -0.008 C  
ENDBRANCH  11  36
TORSDOF 6
ENDMDL
MODEL       44
REMARK 921   NORMALIZED FREE ENERGY PREDICTED BY IDOCK:   -0.86 KCAL/MOL
REMARK 922        TOTAL FREE ENERGY PREDICTED BY IDOCK:   -2.90 KCAL/MOL
REMARK 923 INTER-LIGAND FREE ENERGY PREDICTED BY IDOCK:   -3.31 KCAL/MOL
REMARK 924 INTRA-LIGAND FREE ENERGY PREDICTED BY IDOCK:    0.41 KCAL/MOL
REMARK 927      BINDING AFFINITY PREDICTED BY RF-SCORE:    0.00 PKD
ROOT
HETATM    1  C   UNL     1     -10.397   5.151  68.451  1.00  0.00    -0.140 C  
HETATM    2  C   UNL     1     -10.333   5.584  67.098  1.00  0.00    -0.301 C  
HETATM    3  C   UNL     1      -8.955   5.852  67.689  1.00  0.00    -0.107 C  
HETATM    4  C   UNL     1      -8.799   4.938  69.535  1.00  0.00    -0.090 C  
HETATM    5  C   UNL     1      -9.071   8.930  71.844  1.00  0.00    -0.206 C  
HETATM    6  C   UNL     1      -8.675   4.423  68.284  1.00  0.00    -0.116 C  
HETATM    7  C   UNL     1      -9.500   9.191  70.379  1.00  0.00    -0.269 C  
HETATM    8  C   UNL     1      -8.548  10.474  69.759  1.00  0.00     0.123 C  
HETATM    9  C   UNL     1      -8.596   3.024  67.703  1.00  0.00    -0.117 C  
HETATM   10  C   UNL     1      -7.177   5.455  68.869  1.00  0.00    -0.066 C  
HETATM   11  C   UNL     1      -9.333  11.546  68.814  1.00  0.00    -0.079 C  
HETATM   12  C   UNL     1     -10.473  11.922  69.788  1.00  0.00     0.745 C  
HETATM   13  C   UNL     1     -11.528  10.816  69.575  1.00  0.00    -0.365 C  
HETATM   14  C   UNL     1      -7.698   6.977  69.783  1.00  0.00    -0.109 C  
HETATM   15  C   UNL     1     -11.067   9.605  70.450  1.00  0.00    -0.346 C  
HETATM   16  C   UNL     1     -12.069   8.439  70.429  1.00  0.00     0.273 C  
HETATM   17  C   UNL     1     -11.855   7.404  69.326  1.00  0.00     0.829 C  
HETATM   18  C   UNL     1     -10.525   6.678  69.533  1.00  0.00    -0.253 C  
HETATM   19  C   UNL     1      -9.234   7.791  69.577  1.00  0.00    -0.149 C  
ENDROOT
BRANCH   3  20
HETATM   20  N   UNL     1      -7.885   6.211  66.540  1.00  0.00    -0.103 NA 
HETATM   21  C   UNL     1      -9.750   9.468  64.978  1.00  0.00    -0.068 C  
HETATM   22  C   UNL     1      -8.091   6.151  65.089  1.00  0.00    -0.133 C  
HETATM   23  C   UNL     1      -7.332   9.814  64.560  1.00  0.00    -0.135 C  
HETATM   24  C   UNL     1      -7.115   7.433  66.802  1.00  0.00    -0.079 C  
HETATM   25  C   UNL     1      -8.410   7.466  64.284  1.00  0.00     0.115 C  
HETATM   26  N   UNL     1      -8.362   8.824  65.092  1.00  0.00    -0.158 N  
HETATM   27  C   UNL     1      -8.019   8.632  66.566  1.00  0.00    -0.099 C  
ENDBRANCH   3  20
BRANCH   4  28
HETATM   28  O   UNL     1      -8.201   3.620  70.061  1.00  0.00    -0.052 OA 
BRANCH  28  29
HETATM   29  C   UNL     1      -8.586   3.116  71.258  1.00  0.00    -0.068 C  
HETATM   30  C   UNL     1      -9.478   4.055  72.024  1.00  0.00    -0.198 C  
HETATM   31  O   UNL     1      -8.308   1.980  71.658  1.00  0.00    -0.053 OA 
ENDBRANCH  28  29
ENDBRANCH   4  28
BRANCH  12  32
HETATM   32  O   UNL     1     -10.812  13.309  69.769  1.00  0.00     0.146 OA 
BRANCH  32  33
HETATM   33  C   UNL     1     -12.130  13.528  70.037  1.00  0.00    -0.341 C  
HETATM   34  O   UNL     1     -12.829  14.140  69.249  1.00  0.00     0.187 OA 
HETATM   35  C   UNL     1     -12.646  13.098  71.392  1.00  0.00    -0.352 C  
ENDBRANCH  32  33
ENDBRANCH  12  32
BRANCH  11  36
HETATM   36  N   UNL     1      -8.727  12.650  67.955  1.00  0.00    -0.172 NA 
HETATM   37  C   UNL     1      -9.863  15.079  67.794  1.00  0.00    -0.220 C  
HETATM   38  C   UNL     1      -8.759  14.080  68.337  1.00  0.00    -0.179 C  
HETATM   39  N   UNL     1     -10.374  14.842  66.352  1.00  0.00    -0.277 N  
HETATM   40  C   UNL     1      -9.582  15.689  65.352  1.00  0.00    -0.085 C  
HETATM   41  C   UNL     1     -10.348  13.341  66.012  1.00  0.00    -0.289 C  
HETATM   42  C   UNL     1     -11.841  15.329  66.234  1.00  0.00     0.203 C  
HETATM   43  C   UNL     1      -9.061  12.612  66.495  1.00  0.00    -0.162 C  
ENDBRANCH  11  36
TORSDOF 6
ENDMDL
MODEL       45
REMARK 921   NORMALIZED FREE ENERGY PREDICTED BY IDOCK:   -0.86 KCAL/MOL
REMARK 922        TOTAL FREE ENERGY PREDICTED BY IDOCK:   -2.89 KCAL/MOL
REMARK 923 INTER-LIGAND FREE ENERGY PREDICTED BY IDOCK:   -2.79 KCAL/MOL
REMARK 924 INTRA-LIGAND FREE ENERGY PREDICTED BY IDOCK:   -0.10 KCAL/MOL
REMARK 927      BINDING AFFINITY PREDICTED BY RF-SCORE:    0.00 PKD
ROOT
HETATM    1  C   UNL     1     -10.558  12.717  67.221  1.00  0.00    -0.244 C  
HETATM    2  C   UNL     1     -11.280  11.738  67.957  1.00  0.00    -0.324 C  
HETATM    3  C   UNL     1      -9.877  11.754  68.548  1.00  0.00    -0.189 C  
HETATM    4  C   UNL     1      -8.832  13.380  67.819  1.00  0.00    -0.199 C  
HETATM    5  C   UNL     1      -6.177  10.793  65.064  1.00  0.00     0.092 C  
HETATM    6  C   UNL     1      -9.754  13.300  68.814  1.00  0.00     0.024 C  
HETATM    7  C   UNL     1      -7.360   9.920  65.550  1.00  0.00    -0.122 C  
HETATM    8  C   UNL     1      -6.723   8.494  66.259  1.00  0.00    -0.069 C  
HETATM    9  C   UNL     1     -10.543  14.306  69.630  1.00  0.00     0.035 C  
HETATM   10  C   UNL     1      -8.027  12.626  69.275  1.00  0.00     0.612 C  
HETATM   11  C   UNL     1      -7.533   7.118  65.932  1.00  0.00    -0.080 C  
HETATM   12  C   UNL     1      -7.522   7.204  64.388  1.00  0.00    -0.097 C  
HETATM   13  C   UNL     1      -8.729   8.106  64.054  1.00  0.00     0.350 C  
HETATM   14  C   UNL     1      -7.270  11.653  67.894  1.00  0.00    -0.083 C  
HETATM   15  C   UNL     1      -8.227   9.578  64.223  1.00  0.00    -0.157 C  
HETATM   16  C   UNL     1      -9.288  10.619  63.830  1.00  0.00    -0.304 C  
HETATM   17  C   UNL     1     -10.218  11.069  64.954  1.00  0.00    -0.373 C  
HETATM   18  C   UNL     1      -9.425  11.814  66.030  1.00  0.00    -0.245 C  
HETATM   19  C   UNL     1      -8.172  10.831  66.639  1.00  0.00    -0.140 C  
ENDROOT
BRANCH   3  20
HETATM   20  N   UNL     1      -9.813  10.931  69.931  1.00  0.00     0.339 NA 
HETATM   21  C   UNL     1     -11.429   7.437  68.624  1.00  0.00     0.686 C  
HETATM   22  C   UNL     1     -10.948  10.454  70.729  1.00  0.00    -0.014 C  
HETATM   23  C   UNL     1      -9.928   6.824  70.499  1.00  0.00    -0.183 C  
HETATM   24  C   UNL     1      -8.815   9.854  69.940  1.00  0.00    -0.195 C  
HETATM   25  C   UNL     1     -11.412   8.953  70.620  1.00  0.00    -0.242 C  
HETATM   26  N   UNL     1     -10.524   7.997  69.728  1.00  0.00    -0.224 N  
HETATM   27  C   UNL     1      -9.335   8.708  69.089  1.00  0.00    -0.153 C  
ENDBRANCH   3  20
BRANCH   4  28
HETATM   28  O   UNL     1      -8.507  14.796  68.330  1.00  0.00    -0.139 OA 
BRANCH  28  29
HETATM   29  C   UNL     1      -7.487  15.508  67.793  1.00  0.00    -0.150 C  
HETATM   30  C   UNL     1      -7.682  16.993  67.924  1.00  0.00    -0.180 C  
HETATM   31  O   UNL     1      -6.464  15.005  67.314  1.00  0.00    -0.305 OA 
ENDBRANCH  28  29
ENDBRANCH   4  28
BRANCH  12  32
HETATM   32  O   UNL     1      -7.312   5.946  63.744  1.00  0.00    -0.055 OA 
BRANCH  32  33
HETATM   33  C   UNL     1      -5.997   5.591  63.710  1.00  0.00    -0.021 C  
HETATM   34  O   UNL     1      -5.127   6.441  63.652  1.00  0.00    -0.017 OA 
HETATM   35  C   UNL     1      -5.676   4.116  63.617  1.00  0.00    -0.014 C  
ENDBRANCH  32  33
ENDBRANCH  12  32
BRANCH  11  36
HETATM   36  N   UNL     1      -7.346   5.750  66.578  1.00  0.00    -0.077 NA 
HETATM   37  C   UNL     1      -8.027   5.307  69.139  1.00  0.00    -0.089 C  
HETATM   38  C   UNL     1      -8.285   5.194  67.579  1.00  0.00    -0.103 C  
HETATM   39  N   UNL     1      -6.553   5.244  69.611  1.00  0.00    -0.041 N  
HETATM   40  C   UNL     1      -6.165   3.810  69.980  1.00  0.00    -0.027 C  
HETATM   41  C   UNL     1      -5.621   5.858  68.551  1.00  0.00    -0.011 C  
HETATM   42  C   UNL     1      -6.391   6.065  70.916  1.00  0.00    -0.040 C  
HETATM   43  C   UNL     1      -5.974   5.443  67.093  1.00  0.00    -0.026 C  
ENDBRANCH  11  36
TORSDOF 6
ENDMDL
MODEL       46
REMARK 921   NORMALIZED FREE ENERGY PREDICTED BY IDOCK:   -0.82 KCAL/MOL
REMARK 922        TOTAL FREE ENERGY PREDICTED BY IDOCK:   -2.85 KCAL/MOL
REMARK 923 INTER-LIGAND FREE ENERGY PREDICTED BY IDOCK:   -5.72 KCAL/MOL
REMARK 924 INTRA-LIGAND FREE ENERGY PREDICTED BY IDOCK:    2.87 KCAL/MOL
REMARK 927      BINDING AFFINITY PREDICTED BY RF-SCORE:    0.00 PKD
ROOT
HETATM    1  C   UNL     1     -10.007  12.791  65.494  1.00  0.00    -0.234 C  
HETATM    2  C   UNL     1     -11.313  12.341  65.830  1.00  0.00    -0.406 C  
HETATM    3  C   UNL     1     -10.552  12.437  67.146  1.00  0.00    -0.224 C  
HETATM    4  C   UNL     1      -8.762  13.424  66.845  1.00  0.00    -0.142 C  
HETATM    5  C   UNL     1      -6.249   9.568  67.238  1.00  0.00    -0.064 C  
HETATM    6  C   UNL     1     -10.021  13.911  67.000  1.00  0.00    -0.258 C  
HETATM    7  C   UNL     1      -7.734   9.160  67.073  1.00  0.00    -0.098 C  
HETATM    8  C   UNL     1      -8.158   8.128  68.374  1.00  0.00    -0.128 C  
HETATM    9  C   UNL     1     -10.678  15.266  66.817  1.00  0.00    -0.313 C  
HETATM   10  C   UNL     1      -9.203  13.297  68.613  1.00  0.00     0.017 C  
HETATM   11  C   UNL     1      -9.116   6.865  67.993  1.00  0.00    -0.120 C  
HETATM   12  C   UNL     1      -8.258   6.256  66.861  1.00  0.00    -0.109 C  
HETATM   13  C   UNL     1      -8.661   7.064  65.609  1.00  0.00    -0.121 C  
HETATM   14  C   UNL     1      -8.259  11.725  68.358  1.00  0.00    -0.154 C  
HETATM   15  C   UNL     1      -7.818   8.380  65.654  1.00  0.00    -0.106 C  
HETATM   16  C   UNL     1      -8.028   9.265  64.414  1.00  0.00    -0.133 C  
HETATM   17  C   UNL     1      -9.163  10.282  64.514  1.00  0.00    -0.295 C  
HETATM   18  C   UNL     1      -8.852  11.318  65.596  1.00  0.00    -0.124 C  
HETATM   19  C   UNL     1      -8.588  10.555  67.099  1.00  0.00    -0.127 C  
ENDROOT
BRANCH   3  20
HETATM   20  N   UNL     1     -11.544  12.312  68.407  1.00  0.00    -0.304 NA 
HETATM   21  C   UNL     1     -10.998  16.024  69.972  1.00  0.00    -0.365 C  
HETATM   22  C   UNL     1     -11.176  12.321  69.828  1.00  0.00     0.030 C  
HETATM   23  C   UNL     1     -13.289  15.348  70.632  1.00  0.00    -0.238 C  
HETATM   24  C   UNL     1     -12.766  13.118  68.288  1.00  0.00     1.198 C  
HETATM   25  C   UNL     1     -11.331  13.641  70.673  1.00  0.00     0.545 C  
HETATM   26  N   UNL     1     -12.010  14.872  69.951  1.00  0.00    -0.311 N  
HETATM   27  C   UNL     1     -12.404  14.578  68.507  1.00  0.00     0.015 C  
ENDBRANCH   3  20
BRANCH   4  28
HETATM   28  O   UNL     1      -8.256  14.866  67.040  1.00  0.00    -0.206 OA 
BRANCH  28  29
HETATM   29  C   UNL     1      -6.956  15.107  67.336  1.00  0.00    -0.163 C  
HETATM   30  C   UNL     1      -6.708  16.536  67.736  1.00  0.00    -0.158 C  
HETATM   31  O   UNL     1      -6.074  14.242  67.355  1.00  0.00    -0.342 OA 
ENDBRANCH  28  29
ENDBRANCH   4  28
BRANCH  12  32
HETATM   32  O   UNL     1      -8.226   4.828  66.867  1.00  0.00    -0.106 OA 
BRANCH  32  33
HETATM   33  C   UNL     1      -6.987   4.335  67.144  1.00  0.00    -0.060 C  
HETATM   34  O   UNL     1      -6.854   3.362  67.864  1.00  0.00    -0.048 OA 
HETATM   35  C   UNL     1      -5.796   5.115  66.631  1.00  0.00    -0.022 C  
ENDBRANCH  32  33
ENDBRANCH  12  32
BRANCH  11  36
HETATM   36  N   UNL     1      -9.828   5.914  68.948  1.00  0.00    -0.137 NA 
HETATM   37  C   UNL     1     -11.731   6.785  70.632  1.00  0.00    -0.386 C  
HETATM   38  C   UNL     1     -11.257   6.051  69.309  1.00  0.00    -0.297 C  
HETATM   39  N   UNL     1     -10.818   6.647  71.875  1.00  0.00    -0.230 N  
HETATM   40  C   UNL     1     -11.270   5.477  72.751  1.00  0.00    -0.305 C  
HETATM   41  C   UNL     1      -9.343   6.536  71.449  1.00  0.00    -0.151 C  
HETATM   42  C   UNL     1     -10.960   7.908  72.765  1.00  0.00    -0.393 C  
HETATM   43  C   UNL     1      -9.113   5.601  70.226  1.00  0.00    -0.143 C  
ENDBRANCH  11  36
TORSDOF 6
ENDMDL
MODEL       47
REMARK 921   NORMALIZED FREE ENERGY PREDICTED BY IDOCK:   -0.69 KCAL/MOL
REMARK 922        TOTAL FREE ENERGY PREDICTED BY IDOCK:   -2.67 KCAL/MOL
REMARK 923 INTER-LIGAND FREE ENERGY PREDICTED BY IDOCK:   -3.52 KCAL/MOL
REMARK 924 INTRA-LIGAND FREE ENERGY PREDICTED BY IDOCK:    0.85 KCAL/MOL
REMARK 927      BINDING AFFINITY PREDICTED BY RF-SCORE:    0.00 PKD
ROOT
HETATM    1  C   UNL     1      -8.630  11.425  69.105  1.00  0.00     0.171 C  
HETATM    2  C   UNL     1      -7.930  11.636  67.885  1.00  0.00    -0.132 C  
HETATM    3  C   UNL     1      -9.333  11.194  67.491  1.00  0.00    -0.168 C  
HETATM    4  C   UNL     1     -10.560  11.207  69.154  1.00  0.00    -0.204 C  
HETATM    5  C   UNL     1     -10.663   6.599  69.458  1.00  0.00    -0.305 C  
HETATM    6  C   UNL     1     -10.152  12.226  68.353  1.00  0.00    -0.215 C  
HETATM    7  C   UNL     1      -9.525   6.992  68.483  1.00  0.00    -0.134 C  
HETATM    8  C   UNL     1      -9.767   6.156  67.006  1.00  0.00    -0.167 C  
HETATM    9  C   UNL     1     -10.213  13.740  68.426  1.00  0.00    -0.248 C  
HETATM   10  C   UNL     1     -11.500  11.108  67.590  1.00  0.00    -0.328 C  
HETATM   11  C   UNL     1      -8.420   5.577  66.292  1.00  0.00    -0.122 C  
HETATM   12  C   UNL     1      -7.860   4.762  67.480  1.00  0.00    -0.094 C  
HETATM   13  C   UNL     1      -7.085   5.802  68.315  1.00  0.00    -0.074 C  
HETATM   14  C   UNL     1     -11.203   9.317  67.952  1.00  0.00     0.268 C  
HETATM   15  C   UNL     1      -8.150   6.522  69.205  1.00  0.00    -0.112 C  
HETATM   16  C   UNL     1      -7.527   7.534  70.181  1.00  0.00    -0.086 C  
HETATM   17  C   UNL     1      -7.373   8.956  69.648  1.00  0.00    -0.056 C  
HETATM   18  C   UNL     1      -8.747   9.574  69.383  1.00  0.00    -0.166 C  
HETATM   19  C   UNL     1      -9.637   8.612  68.292  1.00  0.00    -0.160 C  
ENDROOT
BRANCH   3  20
HETATM   20  N   UNL     1      -9.601  11.425  65.920  1.00  0.00    -0.220 NA 
HETATM   21  C   UNL     1      -6.799   8.870  64.453  1.00  0.00    -0.081 C  
HETATM   22  C   UNL     1      -8.684  12.028  64.945  1.00  0.00     0.975 C  
HETATM   23  C   UNL     1      -8.588   8.962  62.739  1.00  0.00    -0.164 C  
HETATM   24  C   UNL     1     -10.232  10.282  65.248  1.00  0.00    -0.238 C  
HETATM   25  C   UNL     1      -7.831  11.107  63.994  1.00  0.00     0.784 C  
HETATM   26  N   UNL     1      -8.115   9.555  64.063  1.00  0.00    -0.141 N  
HETATM   27  C   UNL     1      -9.192   9.187  65.079  1.00  0.00    -0.114 C  
ENDBRANCH   3  20
BRANCH   4  28
HETATM   28  O   UNL     1     -11.590  12.183  69.751  1.00  0.00    -0.297 OA 
BRANCH  28  29
HETATM   29  C   UNL     1     -12.305  11.845  70.851  1.00  0.00    -0.300 C  
HETATM   30  C   UNL     1     -12.030  10.441  71.314  1.00  0.00    -0.425 C  
HETATM   31  O   UNL     1     -13.048  12.619  71.464  1.00  0.00    -0.373 OA 
ENDBRANCH  28  29
ENDBRANCH   4  28
BRANCH  12  32
HETATM   32  O   UNL     1      -7.284   3.511  67.098  1.00  0.00    -0.061 OA 
BRANCH  32  33
HETATM   33  C   UNL     1      -7.022   2.710  68.169  1.00  0.00    -0.048 C  
HETATM   34  O   UNL     1      -7.414   3.014  69.281  1.00  0.00    -0.047 OA 
HETATM   35  C   UNL     1      -6.126   1.513  67.941  1.00  0.00    -0.024 C  
ENDBRANCH  32  33
ENDBRANCH  12  32
BRANCH  11  36
HETATM   36  N   UNL     1      -8.287   4.992  64.891  1.00  0.00    -0.135 NA 
HETATM   37  C   UNL     1      -7.839   2.370  64.507  1.00  0.00    -0.074 C  
HETATM   38  C   UNL     1      -8.783   3.644  64.528  1.00  0.00    -0.105 C  
HETATM   39  N   UNL     1      -6.369   2.595  64.076  1.00  0.00    -0.022 N  
HETATM   40  C   UNL     1      -6.200   2.341  62.576  1.00  0.00    -0.009 C  
HETATM   41  C   UNL     1      -5.892   3.996  64.500  1.00  0.00    -0.014 C  
HETATM   42  C   UNL     1      -5.459   1.554  64.776  1.00  0.00    -0.005 C  
HETATM   43  C   UNL     1      -6.942   5.117  64.245  1.00  0.00    -0.049 C  
ENDBRANCH  11  36
TORSDOF 6
ENDMDL
MODEL       48
REMARK 921   NORMALIZED FREE ENERGY PREDICTED BY IDOCK:   -0.53 KCAL/MOL
REMARK 922        TOTAL FREE ENERGY PREDICTED BY IDOCK:   -2.45 KCAL/MOL
REMARK 923 INTER-LIGAND FREE ENERGY PREDICTED BY IDOCK:   -1.90 KCAL/MOL
REMARK 924 INTRA-LIGAND FREE ENERGY PREDICTED BY IDOCK:   -0.55 KCAL/MOL
REMARK 927      BINDING AFFINITY PREDICTED BY RF-SCORE:    0.00 PKD
ROOT
HETATM    1  C   UNL     1      -7.561   7.375  66.611  1.00  0.00    -0.100 C  
HETATM    2  C   UNL     1      -6.479   8.162  67.090  1.00  0.00    -0.057 C  
HETATM    3  C   UNL     1      -7.591   8.310  68.119  1.00  0.00    -0.098 C  
HETATM    4  C   UNL     1      -9.084   6.935  67.735  1.00  0.00    -0.118 C  
HETATM    5  C   UNL     1     -12.000  10.133  66.120  1.00  0.00     4.029 C  
HETATM    6  C   UNL     1      -7.888   6.784  68.362  1.00  0.00    -0.114 C  
HETATM    7  C   UNL     1     -10.589  10.767  66.206  1.00  0.00    -0.257 C  
HETATM    8  C   UNL     1     -10.700  12.205  67.133  1.00  0.00    -0.267 C  
HETATM    9  C   UNL     1      -7.064   5.601  68.832  1.00  0.00    -0.069 C  
HETATM   10  C   UNL     1      -9.223   7.673  69.400  1.00  0.00    -0.149 C  
HETATM   11  C   UNL     1      -9.814  13.464  66.595  1.00  0.00    -0.278 C  
HETATM   12  C   UNL     1     -10.345  13.517  65.144  1.00  0.00    -0.353 C  
HETATM   13  C   UNL     1      -9.492  12.473  64.394  1.00  0.00     0.346 C  
HETATM   14  C   UNL     1     -10.208   8.868  68.387  1.00  0.00    -0.231 C  
HETATM   15  C   UNL     1     -10.159  11.087  64.676  1.00  0.00    -0.370 C  
HETATM   16  C   UNL     1      -9.484   9.934  63.915  1.00  0.00    -0.207 C  
HETATM   17  C   UNL     1      -8.331   9.248  64.644  1.00  0.00    -0.167 C  
HETATM   18  C   UNL     1      -8.845   8.543  65.901  1.00  0.00    -0.219 C  
HETATM   19  C   UNL     1      -9.638   9.649  66.928  1.00  0.00    -0.217 C  
ENDROOT
BRANCH   3  20
HETATM   20  N   UNL     1      -7.054   9.008  69.467  1.00  0.00    -0.057 NA 
HETATM   21  C   UNL     1      -5.743  12.501  67.853  1.00  0.00    -0.093 C  
HETATM   22  C   UNL     1      -5.663   9.342  69.797  1.00  0.00    -0.032 C  
HETATM   23  C   UNL     1      -6.363  13.033  70.193  1.00  0.00     0.053 C  
HETATM   24  C   UNL     1      -7.873  10.138  69.923  1.00  0.00    -0.151 C  
HETATM   25  C   UNL     1      -5.142  10.816  69.608  1.00  0.00    -0.038 C  
HETATM   26  N   UNL     1      -6.211  11.900  69.185  1.00  0.00    -0.077 N  
HETATM   27  C   UNL     1      -7.612  11.323  69.008  1.00  0.00    -0.106 C  
ENDBRANCH   3  20
BRANCH   4  28
HETATM   28  O   UNL     1      -9.465   5.546  68.281  1.00  0.00    -0.109 OA 
BRANCH  28  29
HETATM   29  C   UNL     1      -9.842   4.553  67.440  1.00  0.00    -0.157 C  
HETATM   30  C   UNL     1     -10.891   4.992  66.455  1.00  0.00    -0.116 C  
HETATM   31  O   UNL     1      -9.335   3.426  67.421  1.00  0.00    -0.183 OA 
ENDBRANCH  28  29
ENDBRANCH   4  28
BRANCH  12  32
HETATM   32  O   UNL     1     -10.532  14.844  64.648  1.00  0.00    -0.337 OA 
BRANCH  32  33
HETATM   33  C   UNL     1     -11.837  15.117  64.368  1.00  0.00    -0.305 C  
HETATM   34  O   UNL     1     -12.133  16.046  63.638  1.00  0.00    -0.768 OA 
HETATM   35  C   UNL     1     -12.889  14.311  65.097  1.00  0.00    -0.259 C  
ENDBRANCH  32  33
ENDBRANCH  12  32
BRANCH  11  36
HETATM   36  N   UNL     1      -9.538  14.782  67.309  1.00  0.00    -0.219 NA 
HETATM   37  C   UNL     1      -9.320  14.905  69.984  1.00  0.00     0.440 C  
HETATM   38  C   UNL     1      -8.700  14.882  68.525  1.00  0.00    -0.172 C  
HETATM   39  N   UNL     1     -10.689  15.608  70.151  1.00  0.00    -0.324 N  
HETATM   40  C   UNL     1     -10.500  17.071  70.560  1.00  0.00     0.917 C  
HETATM   41  C   UNL     1     -11.534  15.453  68.873  1.00  0.00    -0.342 C  
HETATM   42  C   UNL     1     -11.471  14.951  71.317  1.00  0.00    -0.271 C  
HETATM   43  C   UNL     1     -10.724  15.660  67.560  1.00  0.00    -0.303 C  
ENDBRANCH  11  36
TORSDOF 6
ENDMDL
MODEL       49
REMARK 921   NORMALIZED FREE ENERGY PREDICTED BY IDOCK:   -0.30 KCAL/MOL
REMARK 922        TOTAL FREE ENERGY PREDICTED BY IDOCK:   -2.14 KCAL/MOL
REMARK 923 INTER-LIGAND FREE ENERGY PREDICTED BY IDOCK:   -3.76 KCAL/MOL
REMARK 924 INTRA-LIGAND FREE ENERGY PREDICTED BY IDOCK:    1.62 KCAL/MOL
REMARK 927      BINDING AFFINITY PREDICTED BY RF-SCORE:    0.00 PKD
ROOT
HETATM    1  C   UNL     1      -6.355   5.519  67.448  1.00  0.00    -0.039 C  
HETATM    2  C   UNL     1      -6.901   5.654  68.754  1.00  0.00    -0.059 C  
HETATM    3  C   UNL     1      -8.082   5.370  67.835  1.00  0.00    -0.100 C  
HETATM    4  C   UNL     1      -7.393   4.793  65.975  1.00  0.00    -0.077 C  
HETATM    5  C   UNL     1      -8.558   8.800  63.993  1.00  0.00    -0.076 C  
HETATM    6  C   UNL     1      -7.520   4.083  67.126  1.00  0.00    -0.073 C  
HETATM    7  C   UNL     1      -8.624   8.986  65.530  1.00  0.00    -0.190 C  
HETATM    8  C   UNL     1     -10.176   9.590  65.934  1.00  0.00    -0.185 C  
HETATM    9  C   UNL     1      -7.049   2.723  67.605  1.00  0.00    -0.049 C  
HETATM   10  C   UNL     1      -9.165   4.417  66.214  1.00  0.00    -0.141 C  
HETATM   11  C   UNL     1     -10.210  10.732  67.097  1.00  0.00    -0.213 C  
HETATM   12  C   UNL     1      -9.206  11.729  66.473  1.00  0.00    -0.201 C  
HETATM   13  C   UNL     1      -7.826  11.192  66.907  1.00  0.00    -0.152 C  
HETATM   14  C   UNL     1      -9.246   6.137  65.535  1.00  0.00     0.127 C  
HETATM   15  C   UNL     1      -7.464  10.060  65.890  1.00  0.00    -0.115 C  
HETATM   16  C   UNL     1      -6.059   9.478  66.122  1.00  0.00    -0.063 C  
HETATM   17  C   UNL     1      -5.987   8.295  67.084  1.00  0.00    -0.053 C  
HETATM   18  C   UNL     1      -6.739   7.094  66.505  1.00  0.00    -0.057 C  
HETATM   19  C   UNL     1      -8.360   7.505  66.172  1.00  0.00    -0.138 C  
ENDROOT
BRANCH   3  20
HETATM   20  N   UNL     1      -9.409   5.023  68.677  1.00  0.00    -0.123 NA 
HETATM   21  C   UNL     1      -7.703   2.724  71.565  1.00  0.00    -0.047 C  
HETATM   22  C   UNL     1     -10.031   3.705  68.847  1.00  0.00     0.356 C  
HETATM   23  C   UNL     1      -9.709   3.738  72.610  1.00  0.00    -0.144 C  
HETATM   24  C   UNL     1      -9.477   5.686  69.986  1.00  0.00    -0.158 C  
HETATM   25  C   UNL     1      -9.774   2.876  70.161  1.00  0.00     0.043 C  
HETATM   26  N   UNL     1      -8.943   3.589  71.300  1.00  0.00    -0.092 N  
HETATM   27  C   UNL     1      -8.500   5.000  70.926  1.00  0.00    -0.120 C  
ENDBRANCH   3  20
BRANCH   4  28
HETATM   28  O   UNL     1      -7.170   3.451  65.254  1.00  0.00    -0.064 OA 
BRANCH  28  29
HETATM   29  C   UNL     1      -6.591   3.412  64.029  1.00  0.00    -0.038 C  
HETATM   30  C   UNL     1      -5.169   3.901  64.044  1.00  0.00    -0.009 C  
HETATM   31  O   UNL     1      -7.132   2.955  63.017  1.00  0.00    -0.038 OA 
ENDBRANCH  28  29
ENDBRANCH   4  28
BRANCH  12  32
HETATM   32  O   UNL     1      -9.576  13.098  66.640  1.00  0.00    -0.248 OA 
BRANCH  32  33
HETATM   33  C   UNL     1      -8.530  13.876  67.036  1.00  0.00    -0.134 C  
HETATM   34  O   UNL     1      -7.783  13.506  67.924  1.00  0.00    -0.122 OA 
HETATM   35  C   UNL     1      -8.415  15.255  66.424  1.00  0.00    -0.106 C  
ENDBRANCH  32  33
ENDBRANCH  12  32
BRANCH  11  36
HETATM   36  N   UNL     1     -11.432  11.295  67.814  1.00  0.00    -0.458 NA 
HETATM   37  C   UNL     1     -11.962  13.929  67.816  1.00  0.00    -0.355 C  
HETATM   38  C   UNL     1     -12.207  12.449  67.304  1.00  0.00     0.246 C  
HETATM   39  N   UNL     1     -11.558  14.099  69.301  1.00  0.00    -0.283 N  
HETATM   40  C   UNL     1     -12.792  14.350  70.171  1.00  0.00    -0.103 C  
HETATM   41  C   UNL     1     -10.731  12.890  69.775  1.00  0.00     0.648 C  
HETATM   42  C   UNL     1     -10.678  15.365  69.458  1.00  0.00    -0.267 C  
HETATM   43  C   UNL     1     -11.289  11.521  69.288  1.00  0.00    -0.288 C  
ENDBRANCH  11  36
TORSDOF 6
ENDMDL
MODEL       50
REMARK 921   NORMALIZED FREE ENERGY PREDICTED BY IDOCK:   -0.29 KCAL/MOL
REMARK 922        TOTAL FREE ENERGY PREDICTED BY IDOCK:   -2.12 KCAL/MOL
REMARK 923 INTER-LIGAND FREE ENERGY PREDICTED BY IDOCK:   -3.19 KCAL/MOL
REMARK 924 INTRA-LIGAND FREE ENERGY PREDICTED BY IDOCK:    1.07 KCAL/MOL
REMARK 927      BINDING AFFINITY PREDICTED BY RF-SCORE:    0.00 PKD
ROOT
HETATM    1  C   UNL     1      -8.982   5.625  70.624  1.00  0.00    -0.157 C  
HETATM    2  C   UNL     1      -9.641   5.286  69.411  1.00  0.00    -0.215 C  
HETATM    3  C   UNL     1      -8.244   5.744  69.013  1.00  0.00    -0.101 C  
HETATM    4  C   UNL     1      -7.063   5.917  70.699  1.00  0.00    -0.074 C  
HETATM    5  C   UNL     1      -7.128  10.535  70.611  1.00  0.00     0.520 C  
HETATM    6  C   UNL     1      -7.413   4.820  69.978  1.00  0.00    -0.055 C  
HETATM    7  C   UNL     1      -8.226  10.020  69.647  1.00  0.00    -0.185 C  
HETATM    8  C   UNL     1      -7.975  10.736  68.110  1.00  0.00    -0.114 C  
HETATM    9  C   UNL     1      -7.301   3.321  70.182  1.00  0.00    -0.041 C  
HETATM   10  C   UNL     1      -6.086   5.919  69.154  1.00  0.00    -0.031 C  
HETATM   11  C   UNL     1      -9.321  11.202  67.318  1.00  0.00    -0.160 C  
HETATM   12  C   UNL     1      -9.941  12.094  68.418  1.00  0.00    -0.206 C  
HETATM   13  C   UNL     1     -10.701  11.100  69.321  1.00  0.00    -0.241 C  
HETATM   14  C   UNL     1      -6.454   7.722  69.356  1.00  0.00    -0.035 C  
HETATM   15  C   UNL     1      -9.635  10.497  70.293  1.00  0.00     0.650 C  
HETATM   16  C   UNL     1     -10.248   9.549  71.338  1.00  0.00    -0.170 C  
HETATM   17  C   UNL     1     -10.338   8.082  70.924  1.00  0.00    -0.221 C  
HETATM   18  C   UNL     1      -8.936   7.495  70.745  1.00  0.00    -0.149 C  
HETATM   19  C   UNL     1      -8.052   8.394  69.597  1.00  0.00    -0.115 C  
ENDROOT
BRANCH   3  20
HETATM   20  N   UNL     1      -7.928   5.391  67.474  1.00  0.00    -0.100 NA 
HETATM   21  C   UNL     1      -9.004   1.471  67.524  1.00  0.00    -0.128 C  
HETATM   22  C   UNL     1      -6.898   4.475  66.970  1.00  0.00    -0.052 C  
HETATM   23  C   UNL     1      -9.375   2.240  65.197  1.00  0.00    -0.053 C  
HETATM   24  C   UNL     1      -9.125   5.164  66.655  1.00  0.00    -0.120 C  
HETATM   25  C   UNL     1      -7.289   3.012  66.540  1.00  0.00    -0.074 C  
HETATM   26  N   UNL     1      -8.827   2.651  66.560  1.00  0.00    -0.127 N  
HETATM   27  C   UNL     1      -9.709   3.809  67.019  1.00  0.00    -0.109 C  
ENDBRANCH   3  20
BRANCH   4  28
HETATM   28  O   UNL     1      -6.015   5.034  71.401  1.00  0.00    -0.019 OA 
BRANCH  28  29
HETATM   29  C   UNL     1      -5.588   5.331  72.652  1.00  0.00    -0.018 C  
HETATM   30  C   UNL     1      -5.336   6.800  72.847  1.00  0.00    -0.038 C  
HETATM   31  O   UNL     1      -5.487   4.506  73.568  1.00  0.00    -0.008 OA 
ENDBRANCH  28  29
ENDBRANCH   4  28
BRANCH  12  32
HETATM   32  O   UNL     1     -10.550  13.285  67.918  1.00  0.00    -0.229 OA 
BRANCH  32  33
HETATM   33  C   UNL     1     -11.732  13.565  68.535  1.00  0.00    -0.357 C  
HETATM   34  O   UNL     1     -12.766  13.043  68.160  1.00  0.00     0.487 OA 
HETATM   35  C   UNL     1     -11.724  14.635  69.605  1.00  0.00    -0.358 C  
ENDBRANCH  32  33
ENDBRANCH  12  32
BRANCH  11  36
HETATM   36  N   UNL     1      -9.438  11.662  65.869  1.00  0.00    -0.227 NA 
HETATM   37  C   UNL     1     -10.696  13.946  65.224  1.00  0.00    -0.345 C  
HETATM   38  C   UNL     1      -9.387  13.086  65.467  1.00  0.00     0.302 C  
HETATM   39  N   UNL     1     -11.919  13.206  64.626  1.00  0.00    -0.368 N  
HETATM   40  C   UNL     1     -11.940  13.341  63.102  1.00  0.00    -0.112 C  
HETATM   41  C   UNL     1     -11.942  11.740  65.095  1.00  0.00     0.095 C  
HETATM   42  C   UNL     1     -13.225  13.882  65.118  1.00  0.00     0.111 C  
HETATM   43  C   UNL     1     -10.546  11.053  65.068  1.00  0.00    -0.244 C  
ENDBRANCH  11  36
TORSDOF 6
ENDMDL
MODEL       51
REMARK 921   NORMALIZED FREE ENERGY PREDICTED BY IDOCK:    0.11 KCAL/MOL
REMARK 922        TOTAL FREE ENERGY PREDICTED BY IDOCK:   -1.59 KCAL/MOL
REMARK 923 INTER-LIGAND FREE ENERGY PREDICTED BY IDOCK:   -0.99 KCAL/MOL
REMARK 924 INTRA-LIGAND FREE ENERGY PREDICTED BY IDOCK:   -0.60 KCAL/MOL
REMARK 927      BINDING AFFINITY PREDICTED BY RF-SCORE:    0.00 PKD
ROOT
HETATM    1  C   UNL     1      -8.888  16.808  66.715  1.00  0.00    -0.257 C  
HETATM    2  C   UNL     1      -9.472  15.926  65.765  1.00  0.00    -0.316 C  
HETATM    3  C   UNL     1     -10.199  15.667  67.078  1.00  0.00    -0.274 C  
HETATM    4  C   UNL     1      -9.702  17.131  68.449  1.00  0.00    -0.284 C  
HETATM    5  C   UNL     1      -7.035  14.293  70.932  1.00  0.00     0.924 C  
HETATM    6  C   UNL     1     -10.592  17.151  67.423  1.00  0.00    -0.297 C  
HETATM    7  C   UNL     1      -7.334  13.608  69.576  1.00  0.00     0.321 C  
HETATM    8  C   UNL     1      -7.991  12.056  69.889  1.00  0.00     1.869 C  
HETATM    9  C   UNL     1     -11.400  18.228  66.724  1.00  0.00     0.908 C  
HETATM   10  C   UNL     1     -11.170  16.166  68.954  1.00  0.00    -0.351 C  
HETATM   11  C   UNL     1      -7.482  10.860  68.905  1.00  0.00    -0.116 C  
HETATM   12  C   UNL     1      -5.958  11.033  69.100  1.00  0.00    -0.043 C  
HETATM   13  C   UNL     1      -5.576  12.146  68.102  1.00  0.00    -0.053 C  
HETATM   14  C   UNL     1      -9.800  15.161  69.689  1.00  0.00    -0.162 C  
HETATM   15  C   UNL     1      -5.905  13.498  68.817  1.00  0.00    -0.083 C  
HETATM   16  C   UNL     1      -5.489  14.726  67.990  1.00  0.00    -0.130 C  
HETATM   17  C   UNL     1      -6.547  15.263  67.028  1.00  0.00     0.378 C  
HETATM   18  C   UNL     1      -7.750  15.796  67.809  1.00  0.00    -0.159 C  
HETATM   19  C   UNL     1      -8.403  14.580  68.809  1.00  0.00    -0.149 C  
ENDROOT
BRANCH   3  20
HETATM   20  N   UNL     1     -11.514  14.767  66.853  1.00  0.00    -0.358 NA 
HETATM   21  C   UNL     1     -10.309  12.769  63.523  1.00  0.00     0.027 C  
HETATM   22  C   UNL     1     -12.455  14.840  65.729  1.00  0.00     0.055 C  
HETATM   23  C   UNL     1     -11.897  11.255  64.677  1.00  0.00     0.433 C  
HETATM   24  C   UNL     1     -11.317  13.340  67.138  1.00  0.00    -0.317 C  
HETATM   25  C   UNL     1     -12.347  13.810  64.543  1.00  0.00    -0.358 C  
HETATM   26  N   UNL     1     -11.285  12.652  64.701  1.00  0.00    -0.298 N  
HETATM   27  C   UNL     1     -10.503  12.730  66.009  1.00  0.00    -0.274 C  
ENDBRANCH   3  20
BRANCH   4  28
HETATM   28  O   UNL     1     -10.350  18.438  68.943  1.00  0.00    -0.332 OA 
BRANCH  28  29
HETATM   29  C   UNL     1      -9.650  19.599  68.944  1.00  0.00    -0.350 C  
HETATM   30  C   UNL     1      -8.169  19.383  69.092  1.00  0.00    -0.174 C  
HETATM   31  O   UNL     1     -10.151  20.714  68.765  1.00  0.00     0.035 OA 
ENDBRANCH  28  29
ENDBRANCH   4  28
BRANCH  12  32
HETATM   32  O   UNL     1      -5.243   9.798  69.171  1.00  0.00    -0.036 OA 
BRANCH  32  33
HETATM   33  C   UNL     1      -5.190   9.299  70.438  1.00  0.00    -0.027 C  
HETATM   34  O   UNL     1      -5.221   8.097  70.632  1.00  0.00    -0.023 OA 
HETATM   35  C   UNL     1      -5.220  10.291  71.580  1.00  0.00    -0.068 C  
ENDBRANCH  32  33
ENDBRANCH  12  32
BRANCH  11  36
HETATM   36  N   UNL     1      -8.037   9.445  68.793  1.00  0.00    -0.102 NA 
HETATM   37  C   UNL     1      -7.446   7.872  66.697  1.00  0.00    -0.089 C  
HETATM   38  C   UNL     1      -7.271   8.321  68.207  1.00  0.00    -0.093 C  
HETATM   39  N   UNL     1      -8.863   8.004  66.086  1.00  0.00    -0.159 N  
HETATM   40  C   UNL     1      -9.636   6.690  66.226  1.00  0.00    -0.039 C  
HETATM   41  C   UNL     1      -9.607   9.201  66.706  1.00  0.00    -0.195 C  
HETATM   42  C   UNL     1      -8.749   8.256  64.561  1.00  0.00     0.158 C  
HETATM   43  C   UNL     1      -9.425   9.319  68.248  1.00  0.00    -0.138 C  
ENDBRANCH  11  36
TORSDOF 6
ENDMDL
MODEL       52
REMARK 921   NORMALIZED FREE ENERGY PREDICTED BY IDOCK:    0.11 KCAL/MOL
REMARK 922        TOTAL FREE ENERGY PREDICTED BY IDOCK:   -1.58 KCAL/MOL
REMARK 923 INTER-LIGAND FREE ENERGY PREDICTED BY IDOCK:   -5.79 KCAL/MOL
REMARK 924 INTRA-LIGAND FREE ENERGY PREDICTED BY IDOCK:    4.21 KCAL/MOL
REMARK 927      BINDING AFFINITY PREDICTED BY RF-SCORE:    0.00 PKD
ROOT
HETATM    1  C   UNL     1      -8.728  11.816  69.005  1.00  0.00     0.240 C  
HETATM    2  C   UNL     1      -8.034  12.024  67.782  1.00  0.00    -0.147 C  
HETATM    3  C   UNL     1      -9.449  11.613  67.396  1.00  0.00    -0.167 C  
HETATM    4  C   UNL     1     -10.661  11.635  69.068  1.00  0.00    -0.179 C  
HETATM    5  C   UNL     1     -10.849   7.027  69.334  1.00  0.00    -0.253 C  
HETATM    6  C   UNL     1     -10.240  12.653  68.273  1.00  0.00    -0.240 C  
HETATM    7  C   UNL     1      -9.712   7.406  68.354  1.00  0.00    -0.158 C  
HETATM    8  C   UNL     1      -9.982   6.588  66.872  1.00  0.00    -0.227 C  
HETATM    9  C   UNL     1     -10.273  14.167  68.359  1.00  0.00    -0.247 C  
HETATM   10  C   UNL     1     -11.616  11.567  67.511  1.00  0.00    -0.322 C  
HETATM   11  C   UNL     1      -8.652   5.990  66.141  1.00  0.00    -0.142 C  
HETATM   12  C   UNL     1      -8.098   5.154  67.317  1.00  0.00    -0.104 C  
HETATM   13  C   UNL     1      -7.296   6.172  68.155  1.00  0.00    -0.085 C  
HETATM   14  C   UNL     1     -11.350   9.768  67.856  1.00  0.00     0.150 C  
HETATM   15  C   UNL     1      -8.341   6.905  69.059  1.00  0.00    -0.125 C  
HETATM   16  C   UNL     1      -7.690   7.896  70.039  1.00  0.00    -0.089 C  
HETATM   17  C   UNL     1      -7.513   9.320  69.517  1.00  0.00    -0.079 C  
HETATM   18  C   UNL     1      -8.878   9.966  69.268  1.00  0.00    -0.178 C  
HETATM   19  C   UNL     1      -9.795   9.031  68.177  1.00  0.00    -0.191 C  
ENDROOT
BRANCH   3  20
HETATM   20  N   UNL     1      -9.724  11.863  65.829  1.00  0.00    -0.237 NA 
HETATM   21  C   UNL     1     -12.892  14.388  66.173  1.00  0.00     0.147 C  
HETATM   22  C   UNL     1     -10.908  11.456  65.063  1.00  0.00    -0.246 C  
HETATM   23  C   UNL     1     -11.787  14.984  64.036  1.00  0.00    -0.009 C  
HETATM   24  C   UNL     1      -9.374  13.212  65.369  1.00  0.00     0.409 C  
HETATM   25  C   UNL     1     -12.045  12.501  64.757  1.00  0.00    -0.434 C  
HETATM   26  N   UNL     1     -11.776  13.995  65.197  1.00  0.00    -0.335 N  
HETATM   27  C   UNL     1     -10.424  14.185  65.879  1.00  0.00    -0.306 C  
ENDBRANCH   3  20
BRANCH   4  28
HETATM   28  O   UNL     1     -11.668  12.625  69.682  1.00  0.00    -0.303 OA 
BRANCH  28  29
HETATM   29  C   UNL     1     -12.429  12.267  70.745  1.00  0.00    -0.265 C  
HETATM   30  C   UNL     1     -12.299  10.808  71.087  1.00  0.00    -0.498 C  
HETATM   31  O   UNL     1     -13.101  13.056  71.417  1.00  0.00    -0.331 OA 
ENDBRANCH  28  29
ENDBRANCH   4  28
BRANCH  12  32
HETATM   32  O   UNL     1      -7.549   3.896  66.921  1.00  0.00    -0.079 OA 
BRANCH  32  33
HETATM   33  C   UNL     1      -7.957   2.873  67.723  1.00  0.00    -0.070 C  
HETATM   34  O   UNL     1      -9.134   2.741  68.008  1.00  0.00    -0.142 OA 
HETATM   35  C   UNL     1      -6.886   2.000  68.338  1.00  0.00    -0.039 C  
ENDBRANCH  32  33
ENDBRANCH  12  32
BRANCH  11  36
HETATM   36  N   UNL     1      -8.542   5.415  64.734  1.00  0.00    -0.142 NA 
HETATM   37  C   UNL     1      -8.192   2.783  64.323  1.00  0.00    -0.083 C  
HETATM   38  C   UNL     1      -9.087   4.091  64.358  1.00  0.00    -0.142 C  
HETATM   39  N   UNL     1      -6.715   2.957  63.894  1.00  0.00    -0.031 N  
HETATM   40  C   UNL     1      -6.556   2.712  62.391  1.00  0.00    -0.018 C  
HETATM   41  C   UNL     1      -6.186   4.334  64.331  1.00  0.00    -0.026 C  
HETATM   42  C   UNL     1      -5.844   1.874  64.582  1.00  0.00    -0.013 C  
HETATM   43  C   UNL     1      -7.193   5.496  64.089  1.00  0.00    -0.051 C  
ENDBRANCH  11  36
TORSDOF 6
ENDMDL
MODEL       53
REMARK 921   NORMALIZED FREE ENERGY PREDICTED BY IDOCK:    0.15 KCAL/MOL
REMARK 922        TOTAL FREE ENERGY PREDICTED BY IDOCK:   -1.52 KCAL/MOL
REMARK 923 INTER-LIGAND FREE ENERGY PREDICTED BY IDOCK:   -6.05 KCAL/MOL
REMARK 924 INTRA-LIGAND FREE ENERGY PREDICTED BY IDOCK:    4.53 KCAL/MOL
REMARK 927      BINDING AFFINITY PREDICTED BY RF-SCORE:    0.00 PKD
ROOT
HETATM    1  C   UNL     1      -6.015   6.393  67.804  1.00  0.00    -0.020 C  
HETATM    2  C   UNL     1      -5.264   7.397  68.475  1.00  0.00    -0.021 C  
HETATM    3  C   UNL     1      -6.514   7.178  69.317  1.00  0.00    -0.036 C  
HETATM    4  C   UNL     1      -7.512   5.495  68.655  1.00  0.00    -0.076 C  
HETATM    5  C   UNL     1     -10.906   7.937  66.694  1.00  0.00     0.321 C  
HETATM    6  C   UNL     1      -6.425   5.614  69.462  1.00  0.00    -0.041 C  
HETATM    7  C   UNL     1      -9.745   8.907  67.024  1.00  0.00    -0.249 C  
HETATM    8  C   UNL     1     -10.370  10.197  67.965  1.00  0.00    -0.227 C  
HETATM    9  C   UNL     1      -5.393   4.653  70.021  1.00  0.00    -0.007 C  
HETATM   10  C   UNL     1      -8.086   6.050  70.299  1.00  0.00    -0.111 C  
HETATM   11  C   UNL     1      -9.783  11.677  67.615  1.00  0.00    -0.180 C  
HETATM   12  C   UNL     1     -10.090  11.696  66.099  1.00  0.00    -0.224 C  
HETATM   13  C   UNL     1      -8.889  10.965  65.465  1.00  0.00    -0.199 C  
HETATM   14  C   UNL     1      -9.195   7.019  69.178  1.00  0.00    -0.138 C  
HETATM   15  C   UNL     1      -9.196   9.437  65.593  1.00  0.00    -0.285 C  
HETATM   16  C   UNL     1      -8.134   8.556  64.915  1.00  0.00    -0.145 C  
HETATM   17  C   UNL     1      -6.960   8.141  65.798  1.00  0.00    -0.064 C  
HETATM   18  C   UNL     1      -7.445   7.238  66.935  1.00  0.00    -0.097 C  
HETATM   19  C   UNL     1      -8.646   8.024  67.855  1.00  0.00    -0.129 C  
ENDROOT
BRANCH   3  20
HETATM   20  N   UNL     1      -6.385   7.892  70.754  1.00  0.00    -0.037 NA 
HETATM   21  C   UNL     1      -6.862   4.605  73.099  1.00  0.00    -0.071 C  
HETATM   22  C   UNL     1      -7.432   8.023  71.774  1.00  0.00    -0.081 C  
HETATM   23  C   UNL     1      -5.465   6.173  74.416  1.00  0.00    -0.049 C  
HETATM   24  C   UNL     1      -5.144   7.572  71.470  1.00  0.00    -0.027 C  
HETATM   25  C   UNL     1      -7.465   7.036  73.000  1.00  0.00    -0.073 C  
HETATM   26  N   UNL     1      -6.263   6.018  73.126  1.00  0.00    -0.057 N  
HETATM   27  C   UNL     1      -5.244   6.151  71.999  1.00  0.00    -0.022 C  
ENDBRANCH   3  20
BRANCH   4  28
HETATM   28  O   UNL     1      -7.585   4.019  69.090  1.00  0.00    -0.054 OA 
BRANCH  28  29
HETATM   29  C   UNL     1      -8.377   3.142  68.428  1.00  0.00    -0.073 C  
HETATM   30  C   UNL     1      -8.577   1.856  69.181  1.00  0.00    -0.098 C  
HETATM   31  O   UNL     1      -8.945   3.387  67.358  1.00  0.00    -0.123 OA 
ENDBRANCH  28  29
ENDBRANCH   4  28
BRANCH  12  32
HETATM   32  O   UNL     1     -10.549  12.962  65.621  1.00  0.00    -0.269 OA 
BRANCH  32  33
HETATM   33  C   UNL     1     -11.404  12.841  64.567  1.00  0.00    -0.334 C  
HETATM   34  O   UNL     1     -11.017  12.394  63.503  1.00  0.00    -0.437 OA 
HETATM   35  C   UNL     1     -12.800  13.400  64.735  1.00  0.00    -0.222 C  
ENDBRANCH  32  33
ENDBRANCH  12  32
BRANCH  11  36
HETATM   36  N   UNL     1      -9.976  12.967  68.404  1.00  0.00    -0.228 NA 
HETATM   37  C   UNL     1     -11.365  15.032  67.391  1.00  0.00    -0.332 C  
HETATM   38  C   UNL     1     -11.217  13.773  68.344  1.00  0.00    -0.272 C  
HETATM   39  N   UNL     1     -10.095  15.885  67.155  1.00  0.00    -0.258 N  
HETATM   40  C   UNL     1     -10.034  17.049  68.146  1.00  0.00    -0.287 C  
HETATM   41  C   UNL     1      -8.836  14.999  67.199  1.00  0.00    -0.213 C  
HETATM   42  C   UNL     1     -10.163  16.540  65.752  1.00  0.00    -0.329 C  
HETATM   43  C   UNL     1      -8.849  13.951  68.351  1.00  0.00    -0.177 C  
ENDBRANCH  11  36
TORSDOF 6
ENDMDL
MODEL       54
REMARK 921   NORMALIZED FREE ENERGY PREDICTED BY IDOCK:    0.19 KCAL/MOL
REMARK 922        TOTAL FREE ENERGY PREDICTED BY IDOCK:   -1.48 KCAL/MOL
REMARK 923 INTER-LIGAND FREE ENERGY PREDICTED BY IDOCK:   -3.61 KCAL/MOL
REMARK 924 INTRA-LIGAND FREE ENERGY PREDICTED BY IDOCK:    2.14 KCAL/MOL
REMARK 927      BINDING AFFINITY PREDICTED BY RF-SCORE:    0.00 PKD
ROOT
HETATM    1  C   UNL     1      -5.832   5.342  68.832  1.00  0.00    -0.019 C  
HETATM    2  C   UNL     1      -5.807   6.050  70.065  1.00  0.00    -0.017 C  
HETATM    3  C   UNL     1      -7.243   5.578  69.883  1.00  0.00    -0.068 C  
HETATM    4  C   UNL     1      -7.340   4.230  68.321  1.00  0.00    -0.064 C  
HETATM    5  C   UNL     1      -9.404   7.239  65.488  1.00  0.00     0.404 C  
HETATM    6  C   UNL     1      -6.954   4.055  69.612  1.00  0.00    -0.042 C  
HETATM    7  C   UNL     1      -8.851   8.024  66.703  1.00  0.00    -0.166 C  
HETATM    8  C   UNL     1     -10.134   8.930  67.390  1.00  0.00    -0.288 C  
HETATM    9  C   UNL     1      -6.263   2.948  70.384  1.00  0.00    -0.023 C  
HETATM   10  C   UNL     1      -8.842   4.207  69.362  1.00  0.00    -0.142 C  
HETATM   11  C   UNL     1      -9.750  10.433  67.891  1.00  0.00    -0.149 C  
HETATM   12  C   UNL     1      -9.136  10.966  66.576  1.00  0.00    -0.169 C  
HETATM   13  C   UNL     1      -7.674  10.475  66.620  1.00  0.00    -0.123 C  
HETATM   14  C   UNL     1      -9.276   5.513  68.124  1.00  0.00    -0.116 C  
HETATM   15  C   UNL     1      -7.699   8.998  66.107  1.00  0.00    -0.099 C  
HETATM   16  C   UNL     1      -6.294   8.382  65.993  1.00  0.00    -0.053 C  
HETATM   17  C   UNL     1      -5.780   7.677  67.246  1.00  0.00    -0.036 C  
HETATM   18  C   UNL     1      -6.642   6.451  67.555  1.00  0.00    -0.054 C  
HETATM   19  C   UNL     1      -8.276   6.898  67.741  1.00  0.00    -0.117 C  
ENDROOT
BRANCH   3  20
HETATM   20  N   UNL     1      -8.096   5.763  71.236  1.00  0.00    -0.112 NA 
HETATM   21  C   UNL     1      -5.313   7.752  73.433  1.00  0.00    -0.044 C  
HETATM   22  C   UNL     1      -7.819   5.164  72.547  1.00  0.00    -0.101 C  
HETATM   23  C   UNL     1      -7.512   8.494  74.304  1.00  0.00    -0.126 C  
HETATM   24  C   UNL     1      -8.518   7.147  71.492  1.00  0.00    -0.115 C  
HETATM   25  C   UNL     1      -7.100   6.011  73.663  1.00  0.00    -0.081 C  
HETATM   26  N   UNL     1      -6.828   7.532  73.338  1.00  0.00    -0.066 N  
HETATM   27  C   UNL     1      -7.308   7.944  71.949  1.00  0.00    -0.075 C  
ENDBRANCH   3  20
BRANCH   4  28
HETATM   28  O   UNL     1      -7.363   2.696  68.193  1.00  0.00    -0.048 OA 
BRANCH  28  29
HETATM   29  C   UNL     1      -7.484   2.105  66.980  1.00  0.00    -0.061 C  
HETATM   30  C   UNL     1      -8.880   1.616  66.709  1.00  0.00    -0.128 C  
HETATM   31  O   UNL     1      -6.576   2.037  66.145  1.00  0.00    -0.026 OA 
ENDBRANCH  28  29
ENDBRANCH   4  28
BRANCH  12  32
HETATM   32  O   UNL     1      -9.473  12.325  66.293  1.00  0.00    -0.234 OA 
BRANCH  32  33
HETATM   33  C   UNL     1     -10.370  12.438  65.273  1.00  0.00    -0.282 C  
HETATM   34  O   UNL     1     -11.458  11.894  65.342  1.00  0.00    -0.320 OA 
HETATM   35  C   UNL     1      -9.913  13.147  64.018  1.00  0.00     0.299 C  
ENDBRANCH  32  33
ENDBRANCH  12  32
BRANCH  11  36
HETATM   36  N   UNL     1     -10.602  11.383  68.724  1.00  0.00    -0.198 NA 
HETATM   37  C   UNL     1     -12.364  13.055  67.575  1.00  0.00     0.140 C  
HETATM   38  C   UNL     1     -11.997  11.736  68.374  1.00  0.00    -0.183 C  
HETATM   39  N   UNL     1     -11.489  14.304  67.846  1.00  0.00    -0.297 N  
HETATM   40  C   UNL     1     -12.117  15.178  68.934  1.00  0.00    -0.194 C  
HETATM   41  C   UNL     1     -10.045  13.888  68.178  1.00  0.00    -0.250 C  
HETATM   42  C   UNL     1     -11.446  15.193  66.577  1.00  0.00    -0.171 C  
HETATM   43  C   UNL     1      -9.951  12.666  69.138  1.00  0.00     0.401 C  
ENDBRANCH  11  36
TORSDOF 6
ENDMDL
MODEL       55
REMARK 921   NORMALIZED FREE ENERGY PREDICTED BY IDOCK:    0.28 KCAL/MOL
REMARK 922        TOTAL FREE ENERGY PREDICTED BY IDOCK:   -1.35 KCAL/MOL
REMARK 923 INTER-LIGAND FREE ENERGY PREDICTED BY IDOCK:   -7.74 KCAL/MOL
REMARK 924 INTRA-LIGAND FREE ENERGY PREDICTED BY IDOCK:    6.39 KCAL/MOL
REMARK 927      BINDING AFFINITY PREDICTED BY RF-SCORE:    0.00 PKD
ROOT
HETATM    1  C   UNL     1      -6.215   5.494  68.894  1.00  0.00    -0.033 C  
HETATM    2  C   UNL     1      -5.793   6.554  69.743  1.00  0.00    -0.015 C  
HETATM    3  C   UNL     1      -7.229   6.245  70.143  1.00  0.00    -0.080 C  
HETATM    4  C   UNL     1      -7.841   4.489  69.242  1.00  0.00    -0.062 C  
HETATM    5  C   UNL     1     -10.580   6.665  66.225  1.00  0.00     0.317 C  
HETATM    6  C   UNL     1      -7.084   4.692  70.352  1.00  0.00    -0.048 C  
HETATM    7  C   UNL     1      -9.658   7.720  66.886  1.00  0.00    -0.256 C  
HETATM    8  C   UNL     1     -10.642   8.963  67.539  1.00  0.00    -0.307 C  
HETATM    9  C   UNL     1      -6.224   3.813  71.239  1.00  0.00    -0.015 C  
HETATM   10  C   UNL     1      -8.952   5.005  70.597  1.00  0.00    -0.164 C  
HETATM   11  C   UNL     1     -10.077  10.481  67.357  1.00  0.00    -0.197 C  
HETATM   12  C   UNL     1      -9.879  10.472  65.823  1.00  0.00    -0.237 C  
HETATM   13  C   UNL     1      -8.489   9.830  65.630  1.00  0.00    -0.147 C  
HETATM   14  C   UNL     1      -9.704   5.886  69.152  1.00  0.00    -0.176 C  
HETATM   15  C   UNL     1      -8.714   8.284  65.694  1.00  0.00    -0.188 C  
HETATM   16  C   UNL     1      -7.431   7.483  65.418  1.00  0.00    -0.082 C  
HETATM   17  C   UNL     1      -6.580   7.159  66.644  1.00  0.00    -0.055 C  
HETATM   18  C   UNL     1      -7.343   6.227  67.587  1.00  0.00    -0.084 C  
HETATM   19  C   UNL     1      -8.828   6.924  68.049  1.00  0.00    -0.123 C  
ENDROOT
BRANCH   3  20
HETATM   20  N   UNL     1      -7.622   6.971  71.525  1.00  0.00    -0.088 NA 
HETATM   21  C   UNL     1     -11.396   8.123  70.545  1.00  0.00    -0.221 C  
HETATM   22  C   UNL     1      -7.891   8.399  71.730  1.00  0.00    -0.126 C  
HETATM   23  C   UNL     1     -11.401   7.831  73.007  1.00  0.00    -0.273 C  
HETATM   24  C   UNL     1      -8.618   6.241  72.321  1.00  0.00    -0.118 C  
HETATM   25  C   UNL     1      -9.376   8.919  71.797  1.00  0.00    -0.234 C  
HETATM   26  N   UNL     1     -10.515   7.825  71.765  1.00  0.00    -0.211 N  
HETATM   27  C   UNL     1      -9.977   6.401  71.658  1.00  0.00    -0.175 C  
ENDBRANCH   3  20
BRANCH   4  28
HETATM   28  O   UNL     1      -7.947   3.014  69.670  1.00  0.00    -0.046 OA 
BRANCH  28  29
HETATM   29  C   UNL     1      -8.966   2.238  69.227  1.00  0.00    -0.107 C  
HETATM   30  C   UNL     1      -9.162   2.330  67.738  1.00  0.00    -0.226 C  
HETATM   31  O   UNL     1      -9.621   1.473  69.943  1.00  0.00    -0.094 OA 
ENDBRANCH  28  29
ENDBRANCH   4  28
BRANCH  12  32
HETATM   32  O   UNL     1     -10.245  11.698  65.188  1.00  0.00    -0.250 OA 
BRANCH  32  33
HETATM   33  C   UNL     1     -10.677  11.514  63.909  1.00  0.00    -0.395 C  
HETATM   34  O   UNL     1      -9.914  11.108  63.050  1.00  0.00    -0.326 OA 
HETATM   35  C   UNL     1     -12.087  11.952  63.579  1.00  0.00    -0.575 C  
ENDBRANCH  32  33
ENDBRANCH  12  32
BRANCH  11  36
HETATM   36  N   UNL     1     -10.605  11.756  68.006  1.00  0.00    -0.199 NA 
HETATM   37  C   UNL     1     -11.839  13.655  66.561  1.00  0.00    -0.404 C  
HETATM   38  C   UNL     1     -11.848  12.431  67.568  1.00  0.00    -0.284 C  
HETATM   39  N   UNL     1     -10.638  14.629  66.653  1.00  0.00    -0.284 N  
HETATM   40  C   UNL     1     -10.968  15.807  67.572  1.00  0.00    -0.293 C  
HETATM   41  C   UNL     1      -9.366  13.876  67.084  1.00  0.00    -0.243 C  
HETATM   42  C   UNL     1     -10.369  15.254  65.260  1.00  0.00    -0.401 C  
HETATM   43  C   UNL     1      -9.606  12.848  68.228  1.00  0.00    -0.212 C  
ENDBRANCH  11  36
TORSDOF 6
ENDMDL
MODEL       56
REMARK 921   NORMALIZED FREE ENERGY PREDICTED BY IDOCK:    0.29 KCAL/MOL
REMARK 922        TOTAL FREE ENERGY PREDICTED BY IDOCK:   -1.34 KCAL/MOL
REMARK 923 INTER-LIGAND FREE ENERGY PREDICTED BY IDOCK:   -5.95 KCAL/MOL
REMARK 924 INTRA-LIGAND FREE ENERGY PREDICTED BY IDOCK:    4.60 KCAL/MOL
REMARK 927      BINDING AFFINITY PREDICTED BY RF-SCORE:    0.00 PKD
ROOT
HETATM    1  C   UNL     1     -11.244  11.108  67.768  1.00  0.00    -0.359 C  
HETATM    2  C   UNL     1     -11.149  11.273  66.359  1.00  0.00    -0.257 C  
HETATM    3  C   UNL     1      -9.716  11.187  66.867  1.00  0.00    -0.191 C  
HETATM    4  C   UNL     1      -9.712  10.584  68.842  1.00  0.00    -0.199 C  
HETATM    5  C   UNL     1      -8.582  14.778  70.412  1.00  0.00     1.369 C  
HETATM    6  C   UNL     1      -9.844   9.859  67.701  1.00  0.00    -0.198 C  
HETATM    7  C   UNL     1      -9.017  14.920  68.932  1.00  0.00    -0.184 C  
HETATM    8  C   UNL     1      -7.766  15.720  68.076  1.00  0.00    -0.136 C  
HETATM    9  C   UNL     1     -10.239   8.431  67.375  1.00  0.00    -0.328 C  
HETATM   10  C   UNL     1      -8.064  10.450  68.065  1.00  0.00    -0.110 C  
HETATM   11  C   UNL     1      -8.253  16.815  66.971  1.00  0.00    -0.194 C  
HETATM   12  C   UNL     1      -9.150  17.683  67.885  1.00  0.00    -0.260 C  
HETATM   13  C   UNL     1     -10.505  16.945  67.891  1.00  0.00    -0.344 C  
HETATM   14  C   UNL     1      -8.026  12.186  68.705  1.00  0.00    -0.063 C  
HETATM   15  C   UNL     1     -10.373  15.809  68.958  1.00  0.00    -0.223 C  
HETATM   16  C   UNL     1     -11.682  15.029  69.163  1.00  0.00    -0.345 C  
HETATM   17  C   UNL     1     -11.876  13.815  68.257  1.00  0.00    -0.413 C  
HETATM   18  C   UNL     1     -10.819  12.752  68.564  1.00  0.00    -0.279 C  
HETATM   19  C   UNL     1      -9.251  13.395  68.386  1.00  0.00    -0.149 C  
ENDROOT
BRANCH   3  20
HETATM   20  N   UNL     1      -8.675  11.000  65.653  1.00  0.00    -0.181 NA 
HETATM   21  C   UNL     1      -8.634   6.937  65.520  1.00  0.00    -0.077 C  
HETATM   22  C   UNL     1      -7.335  10.406  65.720  1.00  0.00    -0.147 C  
HETATM   23  C   UNL     1      -8.120   7.690  63.215  1.00  0.00    -0.051 C  
HETATM   24  C   UNL     1      -9.286  10.509  64.412  1.00  0.00    -0.262 C  
HETATM   25  C   UNL     1      -7.112   8.913  65.273  1.00  0.00    -0.080 C  
HETATM   26  N   UNL     1      -8.354   8.166  64.645  1.00  0.00    -0.122 N  
HETATM   27  C   UNL     1      -9.608   9.033  64.584  1.00  0.00     0.657 C  
ENDBRANCH   3  20
BRANCH   4  28
HETATM   28  O   UNL     1      -9.509   9.248  69.583  1.00  0.00    -0.163 OA 
BRANCH  28  29
HETATM   29  C   UNL     1     -10.086   9.033  70.789  1.00  0.00    -0.241 C  
HETATM   30  C   UNL     1     -10.177   7.573  71.137  1.00  0.00    -0.199 C  
HETATM   31  O   UNL     1     -10.434   9.930  71.565  1.00  0.00     0.059 OA 
ENDBRANCH  28  29
ENDBRANCH   4  28
BRANCH  12  32
HETATM   32  O   UNL     1      -9.049  19.084  67.626  1.00  0.00    -0.286 OA 
BRANCH  32  33
HETATM   33  C   UNL     1     -10.160  19.768  68.019  1.00  0.00    -0.446 C  
HETATM   34  O   UNL     1     -11.034  20.043  67.217  1.00  0.00    -0.262 OA 
HETATM   35  C   UNL     1     -10.198  20.277  69.443  1.00  0.00     0.035 C  
ENDBRANCH  32  33
ENDBRANCH  12  32
BRANCH  11  36
HETATM   36  N   UNL     1      -7.404  17.519  65.919  1.00  0.00    -0.453 NA 
HETATM   37  C   UNL     1      -5.229  18.941  66.599  1.00  0.00    -0.136 C  
HETATM   38  C   UNL     1      -5.932  17.644  66.021  1.00  0.00    -0.188 C  
HETATM   39  N   UNL     1      -5.919  20.298  66.314  1.00  0.00    -0.174 N  
HETATM   40  C   UNL     1      -5.341  20.944  65.053  1.00  0.00    -0.207 C  
HETATM   41  C   UNL     1      -7.447  20.121  66.246  1.00  0.00    -0.274 C  
HETATM   42  C   UNL     1      -5.609  21.290  67.465  1.00  0.00    -0.335 C  
HETATM   43  C   UNL     1      -7.894  18.856  65.457  1.00  0.00     0.449 C  
ENDBRANCH  11  36
TORSDOF 6
ENDMDL
MODEL       57
REMARK 921   NORMALIZED FREE ENERGY PREDICTED BY IDOCK:    0.41 KCAL/MOL
REMARK 922        TOTAL FREE ENERGY PREDICTED BY IDOCK:   -1.18 KCAL/MOL
REMARK 923 INTER-LIGAND FREE ENERGY PREDICTED BY IDOCK:   -8.17 KCAL/MOL
REMARK 924 INTRA-LIGAND FREE ENERGY PREDICTED BY IDOCK:    6.99 KCAL/MOL
REMARK 927      BINDING AFFINITY PREDICTED BY RF-SCORE:    0.00 PKD
ROOT
HETATM    1  C   UNL     1      -9.919   8.762  66.441  1.00  0.00    -0.346 C  
HETATM    2  C   UNL     1      -8.620   8.972  65.903  1.00  0.00    -0.172 C  
HETATM    3  C   UNL     1      -8.484   9.158  67.408  1.00  0.00    -0.115 C  
HETATM    4  C   UNL     1     -10.212   8.524  68.347  1.00  0.00    -0.203 C  
HETATM    5  C   UNL     1     -11.598  12.824  69.310  1.00  0.00    -0.372 C  
HETATM    6  C   UNL     1      -9.157   7.812  67.870  1.00  0.00    -0.132 C  
HETATM    7  C   UNL     1     -10.449  12.909  68.274  1.00  0.00    -0.250 C  
HETATM    8  C   UNL     1      -9.242  13.957  68.893  1.00  0.00     0.081 C  
HETATM    9  C   UNL     1      -8.879   6.342  67.621  1.00  0.00    -0.112 C  
HETATM   10  C   UNL     1      -8.818   8.732  69.510  1.00  0.00    -0.144 C  
HETATM   11  C   UNL     1      -8.552  14.960  67.808  1.00  0.00    -0.167 C  
HETATM   12  C   UNL     1      -9.835  15.616  67.249  1.00  0.00    -0.225 C  
HETATM   13  C   UNL     1     -10.321  14.626  66.169  1.00  0.00    -0.309 C  
HETATM   14  C   UNL     1      -9.559  10.428  69.521  1.00  0.00    -0.182 C  
HETATM   15  C   UNL     1     -11.119  13.516  66.927  1.00  0.00    -0.309 C  
HETATM   16  C   UNL     1     -11.762  12.491  65.979  1.00  0.00    -0.472 C  
HETATM   17  C   UNL     1     -10.897  11.282  65.628  1.00  0.00    -0.242 C  
HETATM   18  C   UNL     1     -10.634  10.439  66.878  1.00  0.00    -0.293 C  
HETATM   19  C   UNL     1      -9.895  11.381  68.092  1.00  0.00    -0.195 C  
ENDROOT
BRANCH   3  20
HETATM   20  N   UNL     1      -6.938   9.204  67.855  1.00  0.00    -0.076 NA 
HETATM   21  C   UNL     1      -6.886  12.946  69.446  1.00  0.00     0.040 C  
HETATM   22  C   UNL     1      -5.887  10.076  67.318  1.00  0.00    -0.050 C  
HETATM   23  C   UNL     1      -5.133  11.677  70.656  1.00  0.00    -0.116 C  
HETATM   24  C   UNL     1      -6.735   9.155  69.309  1.00  0.00    -0.049 C  
HETATM   25  C   UNL     1      -5.469  11.379  68.097  1.00  0.00    -0.042 C  
HETATM   26  N   UNL     1      -6.138  11.608  69.510  1.00  0.00    -0.091 N  
HETATM   27  C   UNL     1      -7.118  10.504  69.896  1.00  0.00    -0.145 C  
ENDBRANCH   3  20
BRANCH   4  28
HETATM   28  O   UNL     1     -10.664   7.238  69.064  1.00  0.00    -0.212 OA 
BRANCH  28  29
HETATM   29  C   UNL     1     -11.349   7.303  70.231  1.00  0.00    -0.238 C  
HETATM   30  C   UNL     1     -11.381   5.988  70.960  1.00  0.00    -0.299 C  
HETATM   31  O   UNL     1     -11.834   8.340  70.697  1.00  0.00    -0.221 OA 
ENDBRANCH  28  29
ENDBRANCH   4  28
BRANCH  12  32
HETATM   32  O   UNL     1      -9.702  17.015  66.994  1.00  0.00    -0.248 OA 
BRANCH  32  33
HETATM   33  C   UNL     1     -10.619  17.758  67.676  1.00  0.00    -0.379 C  
HETATM   34  O   UNL     1     -10.923  18.872  67.290  1.00  0.00    -0.436 OA 
HETATM   35  C   UNL     1     -11.136  17.199  68.983  1.00  0.00     0.132 C  
ENDBRANCH  32  33
ENDBRANCH  12  32
BRANCH  11  36
HETATM   36  N   UNL     1      -7.321  15.838  68.003  1.00  0.00    -0.120 NA 
HETATM   37  C   UNL     1      -7.539  18.492  68.357  1.00  0.00    -0.292 C  
HETATM   38  C   UNL     1      -7.305  17.020  68.895  1.00  0.00    -0.245 C  
HETATM   39  N   UNL     1      -7.002  18.814  66.941  1.00  0.00    -0.199 N  
HETATM   40  C   UNL     1      -5.597  19.415  67.019  1.00  0.00    -0.170 C  
HETATM   41  C   UNL     1      -7.065  17.564  66.045  1.00  0.00    -0.264 C  
HETATM   42  C   UNL     1      -7.884  19.909  66.288  1.00  0.00    -0.321 C  
HETATM   43  C   UNL     1      -6.604  16.259  66.758  1.00  0.00     0.025 C  
ENDBRANCH  11  36
TORSDOF 6
ENDMDL
MODEL       58
REMARK 921   NORMALIZED FREE ENERGY PREDICTED BY IDOCK:    0.53 KCAL/MOL
REMARK 922        TOTAL FREE ENERGY PREDICTED BY IDOCK:   -1.01 KCAL/MOL
REMARK 923 INTER-LIGAND FREE ENERGY PREDICTED BY IDOCK:    0.02 KCAL/MOL
REMARK 924 INTRA-LIGAND FREE ENERGY PREDICTED BY IDOCK:   -1.03 KCAL/MOL
REMARK 927      BINDING AFFINITY PREDICTED BY RF-SCORE:    0.00 PKD
ROOT
HETATM    1  C   UNL     1     -10.137   9.560  65.557  1.00  0.00    -0.072 C  
HETATM    2  C   UNL     1     -10.884  10.712  65.925  1.00  0.00    -0.030 C  
HETATM    3  C   UNL     1      -9.680  11.226  65.148  1.00  0.00    -0.244 C  
HETATM    4  C   UNL     1      -8.708   9.643  64.243  1.00  0.00    -0.206 C  
HETATM    5  C   UNL     1      -5.154   9.779  67.191  1.00  0.00    -0.034 C  
HETATM    6  C   UNL     1      -9.825  10.320  63.869  1.00  0.00    -0.251 C  
HETATM    7  C   UNL     1      -6.297  10.645  67.776  1.00  0.00    -0.059 C  
HETATM    8  C   UNL     1      -5.673  12.206  68.114  1.00  0.00    -0.053 C  
HETATM    9  C   UNL     1     -10.911  10.109  62.832  1.00  0.00     2.373 C  
HETATM   10  C   UNL     1      -8.189  11.261  63.570  1.00  0.00     0.556 C  
HETATM   11  C   UNL     1      -6.197  12.893  69.497  1.00  0.00    -0.118 C  
HETATM   12  C   UNL     1      -5.822  11.756  70.476  1.00  0.00    -0.125 C  
HETATM   13  C   UNL     1      -7.017  10.783  70.395  1.00  0.00     0.285 C  
HETATM   14  C   UNL     1      -7.002  11.052  64.975  1.00  0.00     0.515 C  
HETATM   15  C   UNL     1      -6.765   9.893  69.134  1.00  0.00    -0.054 C  
HETATM   16  C   UNL     1      -7.824   8.792  68.960  1.00  0.00    -0.096 C  
HETATM   17  C   UNL     1      -9.049   9.180  68.134  1.00  0.00    -0.134 C  
HETATM   18  C   UNL     1      -8.643   9.464  66.686  1.00  0.00    -0.138 C  
HETATM   19  C   UNL     1      -7.459  10.690  66.625  1.00  0.00    -0.129 C  
ENDROOT
BRANCH   3  20
HETATM   20  N   UNL     1      -9.849  12.781  64.766  1.00  0.00    -0.103 NA 
HETATM   21  C   UNL     1     -11.914  13.985  68.055  1.00  0.00    -0.350 C  
HETATM   22  C   UNL     1     -11.100  13.489  64.470  1.00  0.00    -0.381 C  
HETATM   23  C   UNL     1     -10.669  15.981  67.276  1.00  0.00    -0.295 C  
HETATM   24  C   UNL     1      -9.042  13.690  65.591  1.00  0.00     0.662 C  
HETATM   25  C   UNL     1     -11.792  14.364  65.581  1.00  0.00    -0.355 C  
HETATM   26  N   UNL     1     -11.010  14.532  66.943  1.00  0.00    -0.309 N  
HETATM   27  C   UNL     1      -9.679  13.787  66.967  1.00  0.00    -0.251 C  
ENDBRANCH   3  20
BRANCH   4  28
HETATM   28  O   UNL     1      -8.701   9.018  62.836  1.00  0.00    -0.209 OA 
BRANCH  28  29
HETATM   29  C   UNL     1      -7.961   7.913  62.575  1.00  0.00    -0.149 C  
HETATM   30  C   UNL     1      -6.482   8.169  62.674  1.00  0.00    -0.086 C  
HETATM   31  O   UNL     1      -8.434   6.793  62.354  1.00  0.00    -0.044 OA 
ENDBRANCH  28  29
ENDBRANCH   4  28
BRANCH  12  32
HETATM   32  O   UNL     1      -5.303  12.219  71.723  1.00  0.00    -0.372 OA 
BRANCH  32  33
HETATM   33  C   UNL     1      -5.265  11.239  72.669  1.00  0.00     0.528 C  
HETATM   34  O   UNL     1      -5.220  10.066  72.344  1.00  0.00    -0.207 OA 
HETATM   35  C   UNL     1      -5.411  11.659  74.115  1.00  0.00     0.672 C  
ENDBRANCH  32  33
ENDBRANCH  12  32
BRANCH  11  36
HETATM   36  N   UNL     1      -5.997  14.332  69.956  1.00  0.00    -0.130 NA 
HETATM   37  C   UNL     1      -7.813  16.237  69.415  1.00  0.00    -0.081 C  
HETATM   38  C   UNL     1      -7.113  15.203  70.392  1.00  0.00     0.315 C  
HETATM   39  N   UNL     1      -6.913  16.916  68.352  1.00  0.00    -0.166 N  
HETATM   40  C   UNL     1      -6.385  18.257  68.868  1.00  0.00    -0.224 C  
HETATM   41  C   UNL     1      -5.788  15.963  67.912  1.00  0.00    -0.140 C  
HETATM   42  C   UNL     1      -7.760  17.259  67.100  1.00  0.00    -0.193 C  
HETATM   43  C   UNL     1      -5.127  15.189  69.090  1.00  0.00    -0.094 C  
ENDBRANCH  11  36
TORSDOF 6
ENDMDL
MODEL       59
REMARK 921   NORMALIZED FREE ENERGY PREDICTED BY IDOCK:    0.58 KCAL/MOL
REMARK 922        TOTAL FREE ENERGY PREDICTED BY IDOCK:   -0.95 KCAL/MOL
REMARK 923 INTER-LIGAND FREE ENERGY PREDICTED BY IDOCK:   -0.61 KCAL/MOL
REMARK 924 INTRA-LIGAND FREE ENERGY PREDICTED BY IDOCK:   -0.34 KCAL/MOL
REMARK 927      BINDING AFFINITY PREDICTED BY RF-SCORE:    0.00 PKD
ROOT
HETATM    1  C   UNL     1      -9.396   9.499  67.154  1.00  0.00    -0.174 C  
HETATM    2  C   UNL     1     -10.525  10.224  66.686  1.00  0.00    -0.260 C  
HETATM    3  C   UNL     1      -9.425  10.457  65.659  1.00  0.00    -0.211 C  
HETATM    4  C   UNL     1      -7.850   9.170  66.024  1.00  0.00    -0.102 C  
HETATM    5  C   UNL     1      -5.136  12.518  67.687  1.00  0.00    -0.102 C  
HETATM    6  C   UNL     1      -9.034   8.956  65.394  1.00  0.00    -0.232 C  
HETATM    7  C   UNL     1      -6.583  13.065  67.610  1.00  0.00    -0.160 C  
HETATM    8  C   UNL     1      -6.562  14.522  66.706  1.00  0.00     1.703 C  
HETATM    9  C   UNL     1      -9.784   7.731  64.906  1.00  0.00     2.099 C  
HETATM   10  C   UNL     1      -7.757   9.941  64.370  1.00  0.00    -0.142 C  
HETATM   11  C   UNL     1      -7.524  15.714  67.262  1.00  0.00    -0.222 C  
HETATM   12  C   UNL     1      -6.996  15.779  68.714  1.00  0.00    -0.124 C  
HETATM   13  C   UNL     1      -7.783  14.672  69.448  1.00  0.00    -0.051 C  
HETATM   14  C   UNL     1      -6.847  11.180  65.401  1.00  0.00     0.450 C  
HETATM   15  C   UNL     1      -7.031  13.335  69.145  1.00  0.00    -0.031 C  
HETATM   16  C   UNL     1      -7.633  12.131  69.889  1.00  0.00     1.388 C  
HETATM   17  C   UNL     1      -8.742  11.386  69.149  1.00  0.00     0.186 C  
HETATM   18  C   UNL     1      -8.186  10.733  67.881  1.00  0.00    -0.113 C  
HETATM   19  C   UNL     1      -7.464  11.902  66.871  1.00  0.00    -0.079 C  
ENDROOT
BRANCH   3  20
HETATM   20  N   UNL     1     -10.005  11.140  64.322  1.00  0.00    -0.279 NA 
HETATM   21  C   UNL     1     -12.761  13.583  66.044  1.00  0.00    -0.245 C  
HETATM   22  C   UNL     1     -11.360  11.004  63.775  1.00  0.00     0.411 C  
HETATM   23  C   UNL     1     -12.088  14.707  63.939  1.00  0.00    -0.043 C  
HETATM   24  C   UNL     1      -9.631  12.551  64.161  1.00  0.00     0.217 C  
HETATM   25  C   UNL     1     -12.428  12.133  64.027  1.00  0.00    -0.440 C  
HETATM   26  N   UNL     1     -11.925  13.436  64.766  1.00  0.00    -0.372 N  
HETATM   27  C   UNL     1     -10.446  13.381  65.138  1.00  0.00    -0.347 C  
ENDBRANCH   3  20
BRANCH   4  28
HETATM   28  O   UNL     1      -7.383   7.816  65.457  1.00  0.00    -0.069 OA 
BRANCH  28  29
HETATM   29  C   UNL     1      -6.507   7.045  66.145  1.00  0.00    -0.051 C  
HETATM   30  C   UNL     1      -6.884   6.886  67.592  1.00  0.00    -0.077 C  
HETATM   31  O   UNL     1      -5.543   6.464  65.636  1.00  0.00    -0.017 OA 
ENDBRANCH  28  29
ENDBRANCH   4  28
BRANCH  12  32
HETATM   32  O   UNL     1      -6.892  17.107  69.230  1.00  0.00    -0.234 OA 
BRANCH  32  33
HETATM   33  C   UNL     1      -5.773  17.285  69.987  1.00  0.00    -0.244 C  
HETATM   34  O   UNL     1      -5.283  16.353  70.599  1.00  0.00    -0.185 OA 
HETATM   35  C   UNL     1      -5.250  18.697  70.136  1.00  0.00    -0.213 C  
ENDBRANCH  32  33
ENDBRANCH  12  32
BRANCH  11  36
HETATM   36  N   UNL     1      -7.881  17.024  66.568  1.00  0.00    -0.266 NA 
HETATM   37  C   UNL     1      -8.025  19.335  67.930  1.00  0.00    -0.292 C  
HETATM   38  C   UNL     1      -7.292  18.327  66.950  1.00  0.00    -0.208 C  
HETATM   39  N   UNL     1      -9.571  19.384  67.856  1.00  0.00    -0.327 N  
HETATM   40  C   UNL     1     -10.032  20.488  66.901  1.00  0.00    -0.325 C  
HETATM   41  C   UNL     1     -10.136  18.001  67.484  1.00  0.00    -0.351 C  
HETATM   42  C   UNL     1     -10.145  19.772  69.243  1.00  0.00    -0.216 C  
HETATM   43  C   UNL     1      -9.340  17.284  66.355  1.00  0.00    -0.258 C  
ENDBRANCH  11  36
TORSDOF 6
ENDMDL
MODEL       60
REMARK 921   NORMALIZED FREE ENERGY PREDICTED BY IDOCK:    0.58 KCAL/MOL
REMARK 922        TOTAL FREE ENERGY PREDICTED BY IDOCK:   -0.95 KCAL/MOL
REMARK 923 INTER-LIGAND FREE ENERGY PREDICTED BY IDOCK:   -6.46 KCAL/MOL
REMARK 924 INTRA-LIGAND FREE ENERGY PREDICTED BY IDOCK:    5.51 KCAL/MOL
REMARK 927      BINDING AFFINITY PREDICTED BY RF-SCORE:    0.00 PKD
ROOT
HETATM    1  C   UNL     1     -11.060  15.238  69.600  1.00  0.00    -0.284 C  
HETATM    2  C   UNL     1      -9.964  15.229  70.505  1.00  0.00     0.358 C  
HETATM    3  C   UNL     1      -9.360  15.063  69.117  1.00  0.00    -0.189 C  
HETATM    4  C   UNL     1     -10.803  15.424  67.683  1.00  0.00    -0.304 C  
HETATM    5  C   UNL     1     -11.201  10.961  66.560  1.00  0.00    -0.009 C  
HETATM    6  C   UNL     1     -10.053  16.289  68.415  1.00  0.00    -0.237 C  
HETATM    7  C   UNL     1     -10.413  11.054  67.891  1.00  0.00    -0.223 C  
HETATM    8  C   UNL     1      -8.937  10.201  67.704  1.00  0.00    -0.134 C  
HETATM    9  C   UNL     1     -10.078  17.785  68.665  1.00  0.00    -0.384 C  
HETATM   10  C   UNL     1      -9.111  15.429  66.992  1.00  0.00    -0.247 C  
HETATM   11  C   UNL     1      -8.463   9.318  68.990  1.00  0.00    -0.132 C  
HETATM   12  C   UNL     1      -9.746   8.475  69.178  1.00  0.00    -0.170 C  
HETATM   13  C   UNL     1     -10.669   9.381  70.019  1.00  0.00    -0.270 C  
HETATM   14  C   UNL     1      -9.561  13.640  66.844  1.00  0.00    -0.262 C  
HETATM   15  C   UNL     1     -11.357  10.355  69.008  1.00  0.00    -0.279 C  
HETATM   16  C   UNL     1     -12.396  11.272  69.676  1.00  0.00    -0.262 C  
HETATM   17  C   UNL     1     -11.859  12.599  70.207  1.00  0.00    -0.295 C  
HETATM   18  C   UNL     1     -11.361  13.470  69.052  1.00  0.00    -0.336 C  
HETATM   19  C   UNL     1     -10.165  12.649  68.154  1.00  0.00    -0.240 C  
ENDROOT
BRANCH   3  20
HETATM   20  N   UNL     1      -7.761  15.252  69.147  1.00  0.00    -0.183 NA 
HETATM   21  C   UNL     1      -7.466  18.279  66.448  1.00  0.00    -0.251 C  
HETATM   22  C   UNL     1      -6.819  14.996  68.051  1.00  0.00    -0.141 C  
HETATM   23  C   UNL     1      -5.529  18.546  67.972  1.00  0.00    -0.169 C  
HETATM   24  C   UNL     1      -7.319  16.493  69.795  1.00  0.00     0.353 C  
HETATM   25  C   UNL     1      -6.285  16.192  67.176  1.00  0.00    -0.099 C  
HETATM   26  N   UNL     1      -6.710  17.646  67.624  1.00  0.00    -0.168 N  
HETATM   27  C   UNL     1      -7.606  17.656  68.859  1.00  0.00    -0.219 C  
ENDBRANCH   3  20
BRANCH   4  28
HETATM   28  O   UNL     1     -11.202  16.624  66.804  1.00  0.00     0.122 OA 
BRANCH  28  29
HETATM   29  C   UNL     1     -11.008  16.593  65.463  1.00  0.00    -0.059 C  
HETATM   30  C   UNL     1     -11.805  15.512  64.786  1.00  0.00    -0.112 C  
HETATM   31  O   UNL     1     -10.317  17.407  64.841  1.00  0.00    -0.135 OA 
ENDBRANCH  28  29
ENDBRANCH   4  28
BRANCH  12  32
HETATM   32  O   UNL     1      -9.493   7.113  69.526  1.00  0.00    -0.152 OA 
BRANCH  32  33
HETATM   33  C   UNL     1     -10.577   6.313  69.322  1.00  0.00    -0.273 C  
HETATM   34  O   UNL     1     -11.218   5.886  70.265  1.00  0.00    -0.332 OA 
HETATM   35  C   UNL     1     -10.867   5.881  67.902  1.00  0.00    -0.323 C  
ENDBRANCH  32  33
ENDBRANCH  12  32
BRANCH  11  36
HETATM   36  N   UNL     1      -7.117   8.637  69.208  1.00  0.00    -0.061 NA 
HETATM   37  C   UNL     1      -6.912   5.964  69.376  1.00  0.00    -0.064 C  
HETATM   38  C   UNL     1      -6.761   7.336  68.597  1.00  0.00    -0.060 C  
HETATM   39  N   UNL     1      -6.648   5.992  70.901  1.00  0.00    -0.044 N  
HETATM   40  C   UNL     1      -5.193   5.630  71.205  1.00  0.00    -0.009 C  
HETATM   41  C   UNL     1      -7.059   7.352  71.493  1.00  0.00    -0.066 C  
HETATM   42  C   UNL     1      -7.499   4.897  71.595  1.00  0.00    -0.079 C  
HETATM   43  C   UNL     1      -6.630   8.569  70.622  1.00  0.00    -0.039 C  
ENDBRANCH  11  36
TORSDOF 6
ENDMDL
MODEL       61
REMARK 921   NORMALIZED FREE ENERGY PREDICTED BY IDOCK:    0.59 KCAL/MOL
REMARK 922        TOTAL FREE ENERGY PREDICTED BY IDOCK:   -0.93 KCAL/MOL
REMARK 923 INTER-LIGAND FREE ENERGY PREDICTED BY IDOCK:   -5.52 KCAL/MOL
REMARK 924 INTRA-LIGAND FREE ENERGY PREDICTED BY IDOCK:    4.59 KCAL/MOL
REMARK 927      BINDING AFFINITY PREDICTED BY RF-SCORE:    0.00 PKD
ROOT
HETATM    1  C   UNL     1      -8.239  11.146  69.169  1.00  0.00    -0.007 C  
HETATM    2  C   UNL     1      -6.904  10.920  68.736  1.00  0.00    -0.070 C  
HETATM    3  C   UNL     1      -7.799  10.348  67.646  1.00  0.00    -0.105 C  
HETATM    4  C   UNL     1      -9.753  10.932  67.971  1.00  0.00    -0.165 C  
HETATM    5  C   UNL     1     -11.070   6.731  69.368  1.00  0.00    -0.310 C  
HETATM    6  C   UNL     1      -8.714  11.606  67.413  1.00  0.00    -0.155 C  
HETATM    7  C   UNL     1      -9.521   6.768  69.349  1.00  0.00    -0.147 C  
HETATM    8  C   UNL     1      -8.962   5.459  68.393  1.00  0.00    -0.113 C  
HETATM    9  C   UNL     1      -8.462  13.047  67.009  1.00  0.00    -0.142 C  
HETATM   10  C   UNL     1      -9.491  10.271  66.288  1.00  0.00    -0.223 C  
HETATM   11  C   UNL     1      -7.643   4.684  68.957  1.00  0.00    -0.060 C  
HETATM   12  C   UNL     1      -8.160   4.351  70.376  1.00  0.00    -0.066 C  
HETATM   13  C   UNL     1      -7.873   5.631  71.189  1.00  0.00    -0.110 C  
HETATM   14  C   UNL     1      -9.905   8.730  67.225  1.00  0.00    -0.260 C  
HETATM   15  C   UNL     1      -9.061   6.605  70.895  1.00  0.00    -0.154 C  
HETATM   16  C   UNL     1      -8.981   7.905  71.712  1.00  0.00    -0.172 C  
HETATM   17  C   UNL     1      -8.208   9.048  71.058  1.00  0.00    -0.220 C  
HETATM   18  C   UNL     1      -8.922   9.512  69.787  1.00  0.00    -0.214 C  
HETATM   19  C   UNL     1      -9.116   8.214  68.699  1.00  0.00    -0.143 C  
ENDROOT
BRANCH   3  20
HETATM   20  N   UNL     1      -6.957  10.003  66.317  1.00  0.00    -0.099 NA 
HETATM   21  C   UNL     1      -8.556   6.349  65.526  1.00  0.00    -0.109 C  
HETATM   22  C   UNL     1      -5.967   8.932  66.150  1.00  0.00    -0.055 C  
HETATM   23  C   UNL     1      -7.851   7.264  63.332  1.00  0.00    -0.110 C  
HETATM   24  C   UNL     1      -7.751  10.032  65.082  1.00  0.00    -0.137 C  
HETATM   25  C   UNL     1      -6.376   7.584  65.447  1.00  0.00    -0.038 C  
HETATM   26  N   UNL     1      -7.832   7.513  64.837  1.00  0.00    -0.122 N  
HETATM   27  C   UNL     1      -8.632   8.795  65.045  1.00  0.00    -0.169 C  
ENDBRANCH   3  20
BRANCH   4  28
HETATM   28  O   UNL     1     -10.673  12.042  67.429  1.00  0.00    -0.217 OA 
BRANCH  28  29
HETATM   29  C   UNL     1     -11.642  12.579  68.209  1.00  0.00    -0.328 C  
HETATM   30  C   UNL     1     -12.152  11.616  69.247  1.00  0.00    -0.323 C  
HETATM   31  O   UNL     1     -12.022  13.752  68.139  1.00  0.00    -0.362 OA 
ENDBRANCH  28  29
ENDBRANCH   4  28
BRANCH  12  32
HETATM   32  O   UNL     1      -7.777   3.055  70.838  1.00  0.00    -0.042 OA 
BRANCH  32  33
HETATM   33  C   UNL     1      -8.641   2.555  71.766  1.00  0.00    -0.064 C  
HETATM   34  O   UNL     1      -8.252   1.781  72.622  1.00  0.00    -0.052 OA 
HETATM   35  C   UNL     1     -10.106   2.898  71.609  1.00  0.00    -0.056 C  
ENDBRANCH  32  33
ENDBRANCH  12  32
BRANCH  11  36
HETATM   36  N   UNL     1      -6.796   3.642  68.237  1.00  0.00    -0.046 NA 
HETATM   37  C   UNL     1      -6.217   3.872  65.624  1.00  0.00    -0.031 C  
HETATM   38  C   UNL     1      -5.839   3.982  67.160  1.00  0.00    -0.023 C  
HETATM   39  N   UNL     1      -7.179   2.728  65.220  1.00  0.00    -0.061 N  
HETATM   40  C   UNL     1      -6.393   1.491  64.781  1.00  0.00    -0.018 C  
HETATM   41  C   UNL     1      -8.170   2.431  66.359  1.00  0.00    -0.088 C  
HETATM   42  C   UNL     1      -8.002   3.157  63.977  1.00  0.00    -0.082 C  
HETATM   43  C   UNL     1      -7.513   2.413  67.771  1.00  0.00    -0.056 C  
ENDBRANCH  11  36
TORSDOF 6
ENDMDL
MODEL       62
REMARK 921   NORMALIZED FREE ENERGY PREDICTED BY IDOCK:    0.68 KCAL/MOL
REMARK 922        TOTAL FREE ENERGY PREDICTED BY IDOCK:   -0.81 KCAL/MOL
REMARK 923 INTER-LIGAND FREE ENERGY PREDICTED BY IDOCK:   -6.72 KCAL/MOL
REMARK 924 INTRA-LIGAND FREE ENERGY PREDICTED BY IDOCK:    5.92 KCAL/MOL
REMARK 927      BINDING AFFINITY PREDICTED BY RF-SCORE:    0.00 PKD
ROOT
HETATM    1  C   UNL     1      -9.275   9.500  64.116  1.00  0.00    -0.142 C  
HETATM    2  C   UNL     1      -8.145  10.337  63.906  1.00  0.00    -0.138 C  
HETATM    3  C   UNL     1      -7.971   9.743  65.297  1.00  0.00    -0.123 C  
HETATM    4  C   UNL     1      -9.348   8.230  65.585  1.00  0.00     0.052 C  
HETATM    5  C   UNL     1     -11.932  10.752  68.466  1.00  0.00    -0.057 C  
HETATM    6  C   UNL     1      -8.160   8.225  64.926  1.00  0.00    -0.150 C  
HETATM    7  C   UNL     1     -10.940  11.703  67.752  1.00  0.00    -0.287 C  
HETATM    8  C   UNL     1     -10.078  12.580  68.947  1.00  0.00     0.034 C  
HETATM    9  C   UNL     1      -7.457   7.262  63.988  1.00  0.00    -0.100 C  
HETATM   10  C   UNL     1      -8.012   8.207  66.831  1.00  0.00    -0.104 C  
HETATM   11  C   UNL     1      -9.808  14.153  68.614  1.00  0.00    -0.206 C  
HETATM   12  C   UNL     1     -11.267  14.585  68.337  1.00  0.00    -0.271 C  
HETATM   13  C   UNL     1     -11.494  14.211  66.857  1.00  0.00    -0.373 C  
HETATM   14  C   UNL     1      -9.240   9.336  67.633  1.00  0.00    -0.139 C  
HETATM   15  C   UNL     1     -11.854  12.689  66.846  1.00  0.00    -0.425 C  
HETATM   16  C   UNL     1     -12.211  12.171  65.443  1.00  0.00    -0.134 C  
HETATM   17  C   UNL     1     -11.039  11.646  64.616  1.00  0.00    -0.342 C  
HETATM   18  C   UNL     1     -10.443  10.400  65.274  1.00  0.00    -0.178 C  
HETATM   19  C   UNL     1      -9.952  10.741  66.871  1.00  0.00    -0.240 C  
ENDROOT
BRANCH   3  20
HETATM   20  N   UNL     1      -6.489  10.009  65.868  1.00  0.00    -0.089 NA 
HETATM   21  C   UNL     1      -7.447  10.591  69.776  1.00  0.00    -0.119 C  
HETATM   22  C   UNL     1      -5.971  11.258  66.438  1.00  0.00    -0.128 C  
HETATM   23  C   UNL     1      -5.133   9.701  69.776  1.00  0.00    -0.034 C  
HETATM   24  C   UNL     1      -5.967   8.921  66.705  1.00  0.00    -0.053 C  
HETATM   25  C   UNL     1      -5.894  11.438  68.000  1.00  0.00    -0.042 C  
HETATM   26  N   UNL     1      -6.270  10.181  68.880  1.00  0.00    -0.043 N  
HETATM   27  C   UNL     1      -6.673   8.966  68.050  1.00  0.00    -0.069 C  
ENDBRANCH   3  20
BRANCH   4  28
HETATM   28  O   UNL     1      -9.329   6.693  65.486  1.00  0.00     0.165 OA 
BRANCH  28  29
HETATM   29  C   UNL     1     -10.089   5.938  66.316  1.00  0.00    -0.046 C  
HETATM   30  C   UNL     1     -10.363   4.566  65.765  1.00  0.00    -0.287 C  
HETATM   31  O   UNL     1     -10.460   6.296  67.439  1.00  0.00    -0.180 OA 
ENDBRANCH  28  29
ENDBRANCH   4  28
BRANCH  12  32
HETATM   32  O   UNL     1     -11.593  15.876  68.854  1.00  0.00    -0.371 OA 
BRANCH  32  33
HETATM   33  C   UNL     1     -12.013  15.828  70.149  1.00  0.00    -0.347 C  
HETATM   34  O   UNL     1     -11.528  16.567  70.986  1.00  0.00    -0.328 OA 
HETATM   35  C   UNL     1     -13.001  14.744  70.521  1.00  0.00    -0.336 C  
ENDBRANCH  32  33
ENDBRANCH  12  32
BRANCH  11  36
HETATM   36  N   UNL     1      -8.901  15.122  69.363  1.00  0.00    -0.206 NA 
HETATM   37  C   UNL     1      -7.724  17.188  68.111  1.00  0.00    -0.204 C  
HETATM   38  C   UNL     1      -8.837  16.569  69.056  1.00  0.00    -0.223 C  
HETATM   39  N   UNL     1      -6.323  16.530  68.157  1.00  0.00    -0.128 N  
HETATM   40  C   UNL     1      -5.417  17.256  69.154  1.00  0.00    -0.165 C  
HETATM   41  C   UNL     1      -6.444  15.024  68.450  1.00  0.00    -0.104 C  
HETATM   42  C   UNL     1      -5.631  16.690  66.779  1.00  0.00     0.008 C  
HETATM   43  C   UNL     1      -7.483  14.685  69.559  1.00  0.00    -0.074 C  
ENDBRANCH  11  36
TORSDOF 6
ENDMDL
MODEL       63
REMARK 921   NORMALIZED FREE ENERGY PREDICTED BY IDOCK:    0.86 KCAL/MOL
REMARK 922        TOTAL FREE ENERGY PREDICTED BY IDOCK:   -0.57 KCAL/MOL
REMARK 923 INTER-LIGAND FREE ENERGY PREDICTED BY IDOCK:    1.02 KCAL/MOL
REMARK 924 INTRA-LIGAND FREE ENERGY PREDICTED BY IDOCK:   -1.59 KCAL/MOL
REMARK 927      BINDING AFFINITY PREDICTED BY RF-SCORE:    0.00 PKD
ROOT
HETATM    1  C   UNL     1      -8.916  11.326  68.013  1.00  0.00    -0.156 C  
HETATM    2  C   UNL     1      -9.422  10.463  69.024  1.00  0.00    -0.205 C  
HETATM    3  C   UNL     1      -7.910  10.276  69.032  1.00  0.00    -0.114 C  
HETATM    4  C   UNL     1      -7.022  11.732  67.867  1.00  0.00    -0.085 C  
HETATM    5  C   UNL     1      -6.008   8.782  64.461  1.00  0.00    -0.065 C  
HETATM    6  C   UNL     1      -7.489  11.788  69.142  1.00  0.00     0.035 C  
HETATM    7  C   UNL     1      -7.016   8.091  65.412  1.00  0.00    -0.063 C  
HETATM    8  C   UNL     1      -6.351   6.589  65.904  1.00  0.00    -0.039 C  
HETATM    9  C   UNL     1      -7.760  12.900  70.138  1.00  0.00     2.489 C  
HETATM   10  C   UNL     1      -5.825  10.871  68.946  1.00  0.00    -0.040 C  
HETATM   11  C   UNL     1      -7.401   5.345  65.991  1.00  0.00    -0.078 C  
HETATM   12  C   UNL     1      -7.975   5.425  64.558  1.00  0.00    -0.116 C  
HETATM   13  C   UNL     1      -9.085   6.493  64.659  1.00  0.00     0.818 C  
HETATM   14  C   UNL     1      -5.797   9.797  67.439  1.00  0.00    -0.050 C  
HETATM   15  C   UNL     1      -8.365   7.876  64.538  1.00  0.00    -0.021 C  
HETATM   16  C   UNL     1      -9.347   9.060  64.521  1.00  0.00     0.300 C  
HETATM   17  C   UNL     1      -9.702   9.643  65.887  1.00  0.00    -0.343 C  
HETATM   18  C   UNL     1      -8.463  10.265  66.534  1.00  0.00    -0.126 C  
HETATM   19  C   UNL     1      -7.215   9.112  66.674  1.00  0.00    -0.085 C  
ENDROOT
BRANCH   3  20
HETATM   20  N   UNL     1      -7.428   9.455  70.331  1.00  0.00    -0.119 NA 
HETATM   21  C   UNL     1     -10.758   7.188  70.877  1.00  0.00    -0.231 C  
HETATM   22  C   UNL     1      -7.994   9.527  71.683  1.00  0.00     0.894 C  
HETATM   23  C   UNL     1      -8.881   5.856  71.797  1.00  0.00    -0.139 C  
HETATM   24  C   UNL     1      -7.148   8.037  70.071  1.00  0.00    -0.049 C  
HETATM   25  C   UNL     1      -9.005   8.423  72.173  1.00  0.00    -0.223 C  
HETATM   26  N   UNL     1      -9.258   7.207  71.197  1.00  0.00    -0.157 N  
HETATM   27  C   UNL     1      -8.469   7.308  69.895  1.00  0.00    -0.140 C  
ENDBRANCH   3  20
BRANCH   4  28
HETATM   28  O   UNL     1      -6.339  13.087  68.133  1.00  0.00    -0.078 OA 
BRANCH  28  29
HETATM   29  C   UNL     1      -6.812  14.222  67.565  1.00  0.00    -0.135 C  
HETATM   30  C   UNL     1      -5.886  15.393  67.747  1.00  0.00    -0.150 C  
HETATM   31  O   UNL     1      -7.852  14.287  66.900  1.00  0.00    -0.022 OA 
ENDBRANCH  28  29
ENDBRANCH   4  28
BRANCH  12  32
HETATM   32  O   UNL     1      -8.200   4.150  63.956  1.00  0.00    -0.089 OA 
BRANCH  32  33
HETATM   33  C   UNL     1      -7.246   3.832  63.036  1.00  0.00    -0.049 C  
HETATM   34  O   UNL     1      -7.023   2.669  62.752  1.00  0.00    -0.027 OA 
HETATM   35  C   UNL     1      -6.401   4.961  62.490  1.00  0.00    -0.025 C  
ENDBRANCH  32  33
ENDBRANCH  12  32
BRANCH  11  36
HETATM   36  N   UNL     1      -7.162   3.965  66.594  1.00  0.00    -0.067 NA 
HETATM   37  C   UNL     1      -7.717   3.450  69.172  1.00  0.00    -0.051 C  
HETATM   38  C   UNL     1      -8.045   3.370  67.623  1.00  0.00    -0.080 C  
HETATM   39  N   UNL     1      -6.222   3.400  69.574  1.00  0.00    -0.027 N  
HETATM   40  C   UNL     1      -5.796   1.965  69.891  1.00  0.00    -0.022 C  
HETATM   41  C   UNL     1      -5.350   4.054  68.488  1.00  0.00    -0.012 C  
HETATM   42  C   UNL     1      -6.013   4.192  70.891  1.00  0.00    -0.014 C  
HETATM   43  C   UNL     1      -5.764   3.668  67.038  1.00  0.00    -0.022 C  
ENDBRANCH  11  36
TORSDOF 6
ENDMDL
MODEL       64
REMARK 921   NORMALIZED FREE ENERGY PREDICTED BY IDOCK:    0.97 KCAL/MOL
REMARK 922        TOTAL FREE ENERGY PREDICTED BY IDOCK:   -0.42 KCAL/MOL
REMARK 923 INTER-LIGAND FREE ENERGY PREDICTED BY IDOCK:   -1.20 KCAL/MOL
REMARK 924 INTRA-LIGAND FREE ENERGY PREDICTED BY IDOCK:    0.77 KCAL/MOL
REMARK 927      BINDING AFFINITY PREDICTED BY RF-SCORE:    0.00 PKD
ROOT
HETATM    1  C   UNL     1      -6.736   9.651  67.018  1.00  0.00    -0.075 C  
HETATM    2  C   UNL     1      -7.355   9.084  68.166  1.00  0.00    -0.083 C  
HETATM    3  C   UNL     1      -8.447   9.184  67.109  1.00  0.00    -0.120 C  
HETATM    4  C   UNL     1      -7.606   9.650  65.281  1.00  0.00    -0.113 C  
HETATM    5  C   UNL     1      -9.165  13.997  65.357  1.00  0.00     0.711 C  
HETATM    6  C   UNL     1      -7.697   8.460  65.930  1.00  0.00    -0.086 C  
HETATM    7  C   UNL     1      -9.325  13.404  66.779  1.00  0.00    -0.260 C  
HETATM    8  C   UNL     1     -10.958  13.598  67.264  1.00  0.00    -0.299 C  
HETATM    9  C   UNL     1      -7.084   7.086  65.743  1.00  0.00    -0.069 C  
HETATM   10  C   UNL     1      -9.327   9.054  65.129  1.00  0.00    -0.099 C  
HETATM   11  C   UNL     1     -11.188  14.019  68.822  1.00  0.00    -0.271 C  
HETATM   12  C   UNL     1     -10.288  15.276  68.858  1.00  0.00    -0.243 C  
HETATM   13  C   UNL     1      -8.874  14.715  69.118  1.00  0.00    -0.024 C  
HETATM   14  C   UNL     1      -9.588  10.872  65.354  1.00  0.00    -0.271 C  
HETATM   15  C   UNL     1      -8.326  14.260  67.726  1.00  0.00    -0.174 C  
HETATM   16  C   UNL     1      -6.873  13.762  67.791  1.00  0.00    -0.182 C  
HETATM   17  C   UNL     1      -6.699  12.271  68.070  1.00  0.00    -0.081 C  
HETATM   18  C   UNL     1      -7.268  11.446  66.913  1.00  0.00    -0.144 C  
HETATM   19  C   UNL     1      -8.910  11.826  66.655  1.00  0.00    -0.189 C  
ENDROOT
BRANCH   3  20
HETATM   20  N   UNL     1      -9.759   8.358  67.542  1.00  0.00    -0.154 NA 
HETATM   21  C   UNL     1     -10.500  10.219  71.080  1.00  0.00     0.660 C  
HETATM   22  C   UNL     1      -9.896   7.449  68.686  1.00  0.00    -0.163 C  
HETATM   23  C   UNL     1     -12.702   9.426  70.264  1.00  0.00     0.537 C  
HETATM   24  C   UNL     1     -11.003   9.135  67.477  1.00  0.00     0.060 C  
HETATM   25  C   UNL     1     -10.577   7.952  70.014  1.00  0.00    -0.242 C  
HETATM   26  N   UNL     1     -11.202   9.403  69.987  1.00  0.00    -0.223 N  
HETATM   27  C   UNL     1     -11.026  10.107  68.645  1.00  0.00    -0.230 C  
ENDBRANCH   3  20
BRANCH   4  28
HETATM   28  O   UNL     1      -7.184   8.855  64.031  1.00  0.00    -0.093 OA 
BRANCH  28  29
HETATM   29  C   UNL     1      -5.953   9.021  63.489  1.00  0.00    -0.087 C  
HETATM   30  C   UNL     1      -5.240   7.717  63.257  1.00  0.00    -0.042 C  
HETATM   31  O   UNL     1      -5.485  10.112  63.145  1.00  0.00    -0.099 OA 
ENDBRANCH  28  29
ENDBRANCH   4  28
BRANCH  12  32
HETATM   32  O   UNL     1     -10.833  16.352  69.623  1.00  0.00    -0.318 OA 
BRANCH  32  33
HETATM   33  C   UNL     1     -10.335  17.563  69.246  1.00  0.00    -0.160 C  
HETATM   34  O   UNL     1     -10.359  18.509  70.013  1.00  0.00     0.592 OA 
HETATM   35  C   UNL     1      -9.878  17.713  67.812  1.00  0.00    -0.292 C  
ENDBRANCH  32  33
ENDBRANCH  12  32
BRANCH  11  36
HETATM   36  N   UNL     1     -12.502  14.054  69.593  1.00  0.00    -0.252 NA 
HETATM   37  C   UNL     1     -13.114  16.100  71.223  1.00  0.00     0.667 C  
HETATM   38  C   UNL     1     -13.251  15.303  69.859  1.00  0.00     0.403 C  
HETATM   39  N   UNL     1     -12.892  15.260  72.505  1.00  0.00    -0.342 N  
HETATM   40  C   UNL     1     -14.226  14.958  73.192  1.00  0.00     1.154 C  
HETATM   41  C   UNL     1     -12.088  13.988  72.182  1.00  0.00     0.272 C  
HETATM   42  C   UNL     1     -12.077  16.087  73.533  1.00  0.00    -0.468 C  
HETATM   43  C   UNL     1     -12.540  13.278  70.873  1.00  0.00    -0.306 C  
ENDBRANCH  11  36
TORSDOF 6
ENDMDL
MODEL       65
REMARK 921   NORMALIZED FREE ENERGY PREDICTED BY IDOCK:    0.98 KCAL/MOL
REMARK 922        TOTAL FREE ENERGY PREDICTED BY IDOCK:   -0.41 KCAL/MOL
REMARK 923 INTER-LIGAND FREE ENERGY PREDICTED BY IDOCK:    0.82 KCAL/MOL
REMARK 924 INTRA-LIGAND FREE ENERGY PREDICTED BY IDOCK:   -1.23 KCAL/MOL
REMARK 927      BINDING AFFINITY PREDICTED BY RF-SCORE:    0.00 PKD
ROOT
HETATM    1  C   UNL     1      -7.298  16.600  66.547  1.00  0.00    -0.273 C  
HETATM    2  C   UNL     1      -8.341  16.086  65.729  1.00  0.00     0.643 C  
HETATM    3  C   UNL     1      -8.931  16.213  67.127  1.00  0.00    -0.200 C  
HETATM    4  C   UNL     1      -7.641  17.287  68.332  1.00  0.00    -0.241 C  
HETATM    5  C   UNL     1      -6.306  13.555  70.705  1.00  0.00     0.180 C  
HETATM    6  C   UNL     1      -8.542  17.712  67.408  1.00  0.00    -0.229 C  
HETATM    7  C   UNL     1      -7.060  13.076  69.439  1.00  0.00     0.179 C  
HETATM    8  C   UNL     1      -8.317  12.019  69.928  1.00  0.00     2.305 C  
HETATM    9  C   UNL     1      -8.839  19.034  66.727  1.00  0.00    -0.321 C  
HETATM   10  C   UNL     1      -9.311  17.130  69.058  1.00  0.00    -0.143 C  
HETATM   11  C   UNL     1      -8.552  10.713  68.981  1.00  0.00    -0.146 C  
HETATM   12  C   UNL     1      -7.112  10.151  68.999  1.00  0.00    -0.072 C  
HETATM   13  C   UNL     1      -6.387  10.944  67.891  1.00  0.00    -0.057 C  
HETATM   14  C   UNL     1      -8.484  15.607  69.709  1.00  0.00     0.066 C  
HETATM   15  C   UNL     1      -5.956  12.299  68.541  1.00  0.00    -0.054 C  
HETATM   16  C   UNL     1      -5.126  13.179  67.591  1.00  0.00    -0.041 C  
HETATM   17  C   UNL     1      -5.926  14.139  66.713  1.00  0.00     2.187 C  
HETATM   18  C   UNL     1      -6.632  15.184  67.580  1.00  0.00    -0.167 C  
HETATM   19  C   UNL     1      -7.643  14.428  68.726  1.00  0.00    -0.131 C  
ENDROOT
BRANCH   3  20
HETATM   20  N   UNL     1     -10.531  16.033  67.107  1.00  0.00    -0.305 NA 
HETATM   21  C   UNL     1     -10.787  13.262  64.144  1.00  0.00    -0.343 C  
HETATM   22  C   UNL     1     -11.449  16.393  66.020  1.00  0.00     0.705 C  
HETATM   23  C   UNL     1     -12.756  12.874  65.598  1.00  0.00    -0.031 C  
HETATM   24  C   UNL     1     -10.994  14.743  67.633  1.00  0.00    -0.291 C  
HETATM   25  C   UNL     1     -11.971  15.285  65.031  1.00  0.00    -0.029 C  
HETATM   26  N   UNL     1     -11.564  13.793  65.356  1.00  0.00    -0.313 N  
HETATM   27  C   UNL     1     -10.694  13.666  66.603  1.00  0.00    -0.280 C  
ENDBRANCH   3  20
BRANCH   4  28
HETATM   28  O   UNL     1      -7.538  18.750  68.800  1.00  0.00    -0.311 OA 
BRANCH  28  29
HETATM   29  C   UNL     1      -6.691  19.097  69.800  1.00  0.00    -0.103 C  
HETATM   30  C   UNL     1      -6.330  20.557  69.774  1.00  0.00    -0.145 C  
HETATM   31  O   UNL     1      -6.310  18.328  70.688  1.00  0.00     0.346 OA 
ENDBRANCH  28  29
ENDBRANCH   4  28
BRANCH  12  32
HETATM   32  O   UNL     1      -7.050   8.727  69.078  1.00  0.00    -0.063 OA 
BRANCH  32  33
HETATM   33  C   UNL     1      -6.449   8.169  67.990  1.00  0.00    -0.056 C  
HETATM   34  O   UNL     1      -6.942   8.285  66.882  1.00  0.00    -0.068 OA 
HETATM   35  C   UNL     1      -5.232   7.304  68.233  1.00  0.00    -0.021 C  
ENDBRANCH  32  33
ENDBRANCH  12  32
BRANCH  11  36
HETATM   36  N   UNL     1      -9.710   9.723  69.028  1.00  0.00    -0.169 NA 
HETATM   37  C   UNL     1     -12.253  10.557  69.266  1.00  0.00     0.051 C  
HETATM   38  C   UNL     1     -11.033   9.999  68.422  1.00  0.00    -0.217 C  
HETATM   39  N   UNL     1     -12.364  10.081  70.736  1.00  0.00    -0.306 N  
HETATM   40  C   UNL     1     -13.274   8.855  70.840  1.00  0.00     0.182 C  
HETATM   41  C   UNL     1     -10.965   9.836  71.329  1.00  0.00    -0.261 C  
HETATM   42  C   UNL     1     -13.052  11.180  71.586  1.00  0.00    -0.424 C  
HETATM   43  C   UNL     1      -9.995   9.100  70.359  1.00  0.00    -0.218 C  
ENDBRANCH  11  36
TORSDOF 6
ENDMDL
MODEL       66
REMARK 921   NORMALIZED FREE ENERGY PREDICTED BY IDOCK:    1.00 KCAL/MOL
REMARK 922        TOTAL FREE ENERGY PREDICTED BY IDOCK:   -0.38 KCAL/MOL
REMARK 923 INTER-LIGAND FREE ENERGY PREDICTED BY IDOCK:   -7.71 KCAL/MOL
REMARK 924 INTRA-LIGAND FREE ENERGY PREDICTED BY IDOCK:    7.32 KCAL/MOL
REMARK 927      BINDING AFFINITY PREDICTED BY RF-SCORE:    0.00 PKD
ROOT
HETATM    1  C   UNL     1      -8.349   7.785  66.835  1.00  0.00    -0.124 C  
HETATM    2  C   UNL     1      -7.082   8.249  66.386  1.00  0.00    -0.071 C  
HETATM    3  C   UNL     1      -7.255   8.804  67.794  1.00  0.00    -0.084 C  
HETATM    4  C   UNL     1      -8.882   7.909  68.699  1.00  0.00    -0.134 C  
HETATM    5  C   UNL     1     -11.509  11.692  68.350  1.00  0.00    -0.360 C  
HETATM    6  C   UNL     1      -7.611   7.459  68.530  1.00  0.00    -0.114 C  
HETATM    7  C   UNL     1     -10.268  11.882  67.443  1.00  0.00    -0.214 C  
HETATM    8  C   UNL     1      -9.507  13.357  67.872  1.00  0.00    -0.216 C  
HETATM    9  C   UNL     1      -6.912   6.125  68.708  1.00  0.00    -0.076 C  
HETATM   10  C   UNL     1      -7.809   8.785  69.892  1.00  0.00    -0.093 C  
HETATM   11  C   UNL     1      -8.938  14.248  66.631  1.00  0.00    -0.186 C  
HETATM   12  C   UNL     1     -10.238  14.342  65.799  1.00  0.00    -0.334 C  
HETATM   13  C   UNL     1     -10.253  13.035  64.979  1.00  0.00    -0.287 C  
HETATM   14  C   UNL     1      -8.968  10.135  69.382  1.00  0.00    -0.205 C  
HETATM   15  C   UNL     1     -10.840  11.937  65.926  1.00  0.00    -0.342 C  
HETATM   16  C   UNL     1     -11.018  10.579  65.227  1.00  0.00     0.304 C  
HETATM   17  C   UNL     1      -9.815   9.641  65.294  1.00  0.00    -0.269 C  
HETATM   18  C   UNL     1      -9.549   9.223  66.742  1.00  0.00    -0.240 C  
HETATM   19  C   UNL     1      -9.303  10.593  67.727  1.00  0.00    -0.154 C  
ENDROOT
BRANCH   3  20
HETATM   20  N   UNL     1      -5.875   9.413  68.357  1.00  0.00    -0.041 NA 
HETATM   21  C   UNL     1      -7.267  13.042  69.550  1.00  0.00     0.373 C  
HETATM   22  C   UNL     1      -5.127  10.555  67.818  1.00  0.00    -0.033 C  
HETATM   23  C   UNL     1      -5.335  12.546  71.022  1.00  0.00    -0.151 C  
HETATM   24  C   UNL     1      -5.831   9.539  69.819  1.00  0.00    -0.036 C  
HETATM   25  C   UNL     1      -5.264  11.973  68.489  1.00  0.00    -0.049 C  
HETATM   26  N   UNL     1      -6.123  12.054  69.813  1.00  0.00    -0.132 N  
HETATM   27  C   UNL     1      -6.709  10.709  70.230  1.00  0.00    -0.094 C  
ENDBRANCH   3  20
BRANCH   4  28
HETATM   28  O   UNL     1      -9.087   6.745  69.687  1.00  0.00    -0.143 OA 
BRANCH  28  29
HETATM   29  C   UNL     1     -10.147   5.910  69.560  1.00  0.00    -0.203 C  
HETATM   30  C   UNL     1     -10.056   4.715  70.468  1.00  0.00    -0.263 C  
HETATM   31  O   UNL     1     -11.125   6.132  68.838  1.00  0.00    -0.349 OA 
ENDBRANCH  28  29
ENDBRANCH   4  28
BRANCH  12  32
HETATM   32  O   UNL     1     -10.444  15.620  65.195  1.00  0.00    -0.397 OA 
BRANCH  32  33
HETATM   33  C   UNL     1     -11.630  15.698  64.529  1.00  0.00    -0.262 C  
HETATM   34  O   UNL     1     -11.786  16.508  63.634  1.00  0.00    -0.871 OA 
HETATM   35  C   UNL     1     -12.768  14.836  65.031  1.00  0.00     0.041 C  
ENDBRANCH  32  33
ENDBRANCH  12  32
BRANCH  11  36
HETATM   36  N   UNL     1      -8.038  15.476  66.700  1.00  0.00    -0.217 NA 
HETATM   37  C   UNL     1      -8.012  17.070  68.863  1.00  0.00    -0.217 C  
HETATM   38  C   UNL     1      -7.390  15.933  67.951  1.00  0.00    -0.134 C  
HETATM   39  N   UNL     1      -8.770  18.211  68.140  1.00  0.00    -0.270 N  
HETATM   40  C   UNL     1      -7.837  19.392  67.866  1.00  0.00    -0.290 C  
HETATM   41  C   UNL     1      -9.449  17.681  66.864  1.00  0.00    -0.276 C  
HETATM   42  C   UNL     1      -9.879  18.767  69.069  1.00  0.00    -0.300 C  
HETATM   43  C   UNL     1      -8.554  16.714  66.035  1.00  0.00    -0.194 C  
ENDBRANCH  11  36
TORSDOF 6
ENDMDL
MODEL       67
REMARK 921   NORMALIZED FREE ENERGY PREDICTED BY IDOCK:    1.01 KCAL/MOL
REMARK 922        TOTAL FREE ENERGY PREDICTED BY IDOCK:   -0.37 KCAL/MOL
REMARK 923 INTER-LIGAND FREE ENERGY PREDICTED BY IDOCK:   -5.81 KCAL/MOL
REMARK 924 INTRA-LIGAND FREE ENERGY PREDICTED BY IDOCK:    5.44 KCAL/MOL
REMARK 927      BINDING AFFINITY PREDICTED BY RF-SCORE:    0.00 PKD
ROOT
HETATM    1  C   UNL     1     -11.038   6.902  71.288  1.00  0.00    -0.293 C  
HETATM    2  C   UNL     1     -11.488   6.168  70.157  1.00  0.00    -0.365 C  
HETATM    3  C   UNL     1      -9.971   6.032  70.167  1.00  0.00    -0.178 C  
HETATM    4  C   UNL     1      -9.221   6.743  71.956  1.00  0.00    -0.141 C  
HETATM    5  C   UNL     1      -7.507  10.578  70.034  1.00  0.00    -0.013 C  
HETATM    6  C   UNL     1      -9.791   5.547  71.654  1.00  0.00    -0.221 C  
HETATM    7  C   UNL     1      -8.474   9.920  69.018  1.00  0.00    -0.136 C  
HETATM    8  C   UNL     1      -7.632   9.698  67.540  1.00  0.00    -0.095 C  
HETATM    9  C   UNL     1     -10.305   4.369  72.459  1.00  0.00    -0.252 C  
HETATM   10  C   UNL     1      -7.998   5.752  71.027  1.00  0.00    -0.115 C  
HETATM   11  C   UNL     1      -8.488  10.004  66.186  1.00  0.00    -0.127 C  
HETATM   12  C   UNL     1      -8.952  11.439  66.524  1.00  0.00    -0.189 C  
HETATM   13  C   UNL     1     -10.213  11.232  67.389  1.00  0.00    -0.217 C  
HETATM   14  C   UNL     1      -7.690   7.445  70.346  1.00  0.00    -0.093 C  
HETATM   15  C   UNL     1      -9.701  10.965  68.842  1.00  0.00    -0.198 C  
HETATM   16  C   UNL     1     -10.845  10.832  69.862  1.00  0.00    -0.264 C  
HETATM   17  C   UNL     1     -11.390   9.420  70.061  1.00  0.00    -0.172 C  
HETATM   18  C   UNL     1     -10.315   8.517  70.668  1.00  0.00    -0.232 C  
HETATM   19  C   UNL     1      -8.923   8.495  69.683  1.00  0.00    -0.145 C  
ENDROOT
BRANCH   3  20
HETATM   20  N   UNL     1      -9.477   4.899  69.135  1.00  0.00    -0.129 NA 
HETATM   21  C   UNL     1      -5.940   6.582  68.046  1.00  0.00    -0.020 C  
HETATM   22  C   UNL     1      -9.295   5.041  67.686  1.00  0.00    -0.126 C  
HETATM   23  C   UNL     1      -5.629   4.137  67.787  1.00  0.00    -0.021 C  
HETATM   24  C   UNL     1      -8.344   4.102  69.621  1.00  0.00    -0.057 C  
HETATM   25  C   UNL     1      -7.856   5.279  67.093  1.00  0.00    -0.100 C  
HETATM   26  N   UNL     1      -6.649   5.223  68.110  1.00  0.00    -0.048 N  
HETATM   27  C   UNL     1      -7.087   4.954  69.546  1.00  0.00    -0.055 C  
ENDBRANCH   3  20
BRANCH   4  28
HETATM   28  O   UNL     1      -8.772   6.111  73.287  1.00  0.00    -0.124 OA 
BRANCH  28  29
HETATM   29  C   UNL     1      -7.672   6.570  73.933  1.00  0.00    -0.089 C  
HETATM   30  C   UNL     1      -7.869   7.943  74.513  1.00  0.00    -0.270 C  
HETATM   31  O   UNL     1      -6.640   5.912  74.103  1.00  0.00    -0.073 OA 
ENDBRANCH  28  29
ENDBRANCH   4  28
BRANCH  12  32
HETATM   32  O   UNL     1      -8.934  12.328  65.406  1.00  0.00     0.233 OA 
BRANCH  32  33
HETATM   33  C   UNL     1     -10.172  12.813  65.106  1.00  0.00    -0.278 C  
HETATM   34  O   UNL     1     -10.645  13.738  65.740  1.00  0.00    -0.281 OA 
HETATM   35  C   UNL     1     -10.972  12.077  64.053  1.00  0.00    -0.442 C  
ENDBRANCH  32  33
ENDBRANCH  12  32
BRANCH  11  36
HETATM   36  N   UNL     1      -8.095   9.695  64.746  1.00  0.00    -0.130 NA 
HETATM   37  C   UNL     1      -7.777   7.167  63.894  1.00  0.00    -0.116 C  
HETATM   38  C   UNL     1      -8.601   8.517  64.005  1.00  0.00     0.054 C  
HETATM   39  N   UNL     1      -6.235   7.291  63.824  1.00  0.00    -0.044 N  
HETATM   40  C   UNL     1      -5.761   7.320  62.369  1.00  0.00    -0.049 C  
HETATM   41  C   UNL     1      -5.757   8.511  64.631  1.00  0.00    -0.059 C  
HETATM   42  C   UNL     1      -5.585   6.028  64.445  1.00  0.00    -0.018 C  
HETATM   43  C   UNL     1      -6.635   9.780  64.425  1.00  0.00    -0.118 C  
ENDBRANCH  11  36
TORSDOF 6
ENDMDL
MODEL       68
REMARK 921   NORMALIZED FREE ENERGY PREDICTED BY IDOCK:    1.06 KCAL/MOL
REMARK 922        TOTAL FREE ENERGY PREDICTED BY IDOCK:   -0.31 KCAL/MOL
REMARK 923 INTER-LIGAND FREE ENERGY PREDICTED BY IDOCK:   -1.28 KCAL/MOL
REMARK 924 INTRA-LIGAND FREE ENERGY PREDICTED BY IDOCK:    0.97 KCAL/MOL
REMARK 927      BINDING AFFINITY PREDICTED BY RF-SCORE:    0.00 PKD
ROOT
HETATM    1  C   UNL     1      -9.763   9.473  71.102  1.00  0.00    -0.134 C  
HETATM    2  C   UNL     1     -10.727   8.597  70.531  1.00  0.00    -0.252 C  
HETATM    3  C   UNL     1      -9.467   7.763  70.724  1.00  0.00    -0.161 C  
HETATM    4  C   UNL     1      -8.109   8.810  71.877  1.00  0.00    -0.025 C  
HETATM    5  C   UNL     1      -5.334   9.703  68.295  1.00  0.00    -0.036 C  
HETATM    6  C   UNL     1      -9.203   8.090  72.241  1.00  0.00    -0.243 C  
HETATM    7  C   UNL     1      -6.687   9.193  67.740  1.00  0.00    -0.065 C  
HETATM    8  C   UNL     1      -6.377   7.871  66.693  1.00  0.00    -0.050 C  
HETATM    9  C   UNL     1      -9.997   7.918  73.521  1.00  0.00    -0.170 C  
HETATM   10  C   UNL     1      -7.690   7.036  71.737  1.00  0.00    -0.093 C  
HETATM   11  C   UNL     1      -7.279   7.816  65.336  1.00  0.00    -0.068 C  
HETATM   12  C   UNL     1      -6.970   9.231  64.795  1.00  0.00    -0.091 C  
HETATM   13  C   UNL     1      -7.970  10.143  65.537  1.00  0.00    -0.146 C  
HETATM   14  C   UNL     1      -6.818   7.735  70.262  1.00  0.00    -0.046 C  
HETATM   15  C   UNL     1      -7.327  10.444  66.930  1.00  0.00    -0.106 C  
HETATM   16  C   UNL     1      -8.157  11.431  67.769  1.00  0.00    -0.121 C  
HETATM   17  C   UNL     1      -9.216  10.800  68.671  1.00  0.00    -0.184 C  
HETATM   18  C   UNL     1      -8.551   9.944  69.751  1.00  0.00    -0.219 C  
HETATM   19  C   UNL     1      -7.566   8.745  69.044  1.00  0.00    -0.090 C  
ENDROOT
BRANCH   3  20
HETATM   20  N   UNL     1      -9.767   6.194  70.523  1.00  0.00    -0.171 NA 
HETATM   21  C   UNL     1     -11.034   6.315  66.662  1.00  0.00    -0.142 C  
HETATM   22  C   UNL     1     -11.072   5.564  70.295  1.00  0.00    -0.007 C  
HETATM   23  C   UNL     1     -10.066   4.055  66.981  1.00  0.00     0.154 C  
HETATM   24  C   UNL     1      -8.815   5.513  69.636  1.00  0.00    -0.111 C  
HETATM   25  C   UNL     1     -11.509   5.163  68.836  1.00  0.00     2.735 C  
HETATM   26  N   UNL     1     -10.433   5.352  67.695  1.00  0.00    -0.181 N  
HETATM   27  C   UNL     1      -9.113   5.923  68.203  1.00  0.00    -0.117 C  
ENDBRANCH   3  20
BRANCH   4  28
HETATM   28  O   UNL     1      -7.710   8.821  73.365  1.00  0.00    -0.394 OA 
BRANCH  28  29
HETATM   29  C   UNL     1      -6.415   8.979  73.731  1.00  0.00     0.182 C  
HETATM   30  C   UNL     1      -5.644   7.687  73.709  1.00  0.00    -0.049 C  
HETATM   31  O   UNL     1      -5.890  10.069  73.983  1.00  0.00    -0.252 OA 
ENDBRANCH  28  29
ENDBRANCH   4  28
BRANCH  12  32
HETATM   32  O   UNL     1      -6.803   9.282  63.377  1.00  0.00    -0.090 OA 
BRANCH  32  33
HETATM   33  C   UNL     1      -6.601  10.549  62.920  1.00  0.00    -0.066 C  
HETATM   34  O   UNL     1      -5.518  11.090  63.052  1.00  0.00    -0.133 OA 
HETATM   35  C   UNL     1      -7.799  11.290  62.368  1.00  0.00     0.013 C  
ENDBRANCH  32  33
ENDBRANCH  12  32
BRANCH  11  36
HETATM   36  N   UNL     1      -7.389   6.672  64.335  1.00  0.00    -0.080 NA 
HETATM   37  C   UNL     1      -7.434   4.109  65.141  1.00  0.00    -0.073 C  
HETATM   38  C   UNL     1      -8.140   5.426  64.612  1.00  0.00    -0.125 C  
HETATM   39  N   UNL     1      -5.998   3.832  64.632  1.00  0.00    -0.021 N  
HETATM   40  C   UNL     1      -6.026   2.930  63.396  1.00  0.00    -0.010 C  
HETATM   41  C   UNL     1      -5.250   5.155  64.387  1.00  0.00    -0.009 C  
HETATM   42  C   UNL     1      -5.212   3.037  65.706  1.00  0.00    -0.009 C  
HETATM   43  C   UNL     1      -6.113   6.240  63.680  1.00  0.00    -0.022 C  
ENDBRANCH  11  36
TORSDOF 6
ENDMDL
MODEL       69
REMARK 921   NORMALIZED FREE ENERGY PREDICTED BY IDOCK:    1.06 KCAL/MOL
REMARK 922        TOTAL FREE ENERGY PREDICTED BY IDOCK:   -0.30 KCAL/MOL
REMARK 923 INTER-LIGAND FREE ENERGY PREDICTED BY IDOCK:   -4.59 KCAL/MOL
REMARK 924 INTRA-LIGAND FREE ENERGY PREDICTED BY IDOCK:    4.29 KCAL/MOL
REMARK 927      BINDING AFFINITY PREDICTED BY RF-SCORE:    0.00 PKD
ROOT
HETATM    1  C   UNL     1      -7.408   7.432  66.613  1.00  0.00    -0.084 C  
HETATM    2  C   UNL     1      -6.249   8.197  66.917  1.00  0.00    -0.055 C  
HETATM    3  C   UNL     1      -7.230   8.454  68.054  1.00  0.00    -0.091 C  
HETATM    4  C   UNL     1      -8.807   7.126  67.927  1.00  0.00    -0.124 C  
HETATM    5  C   UNL     1     -11.768  10.350  66.452  1.00  0.00     1.801 C  
HETATM    6  C   UNL     1      -7.553   6.959  68.424  1.00  0.00    -0.111 C  
HETATM    7  C   UNL     1     -10.334  10.925  66.339  1.00  0.00    -0.306 C  
HETATM    8  C   UNL     1     -10.285  12.419  67.179  1.00  0.00    -0.226 C  
HETATM    9  C   UNL     1      -6.725   5.770  68.872  1.00  0.00    -0.060 C  
HETATM   10  C   UNL     1      -8.726   7.966  69.548  1.00  0.00    -0.134 C  
HETATM   11  C   UNL     1      -9.420  13.603  66.466  1.00  0.00    -0.259 C  
HETATM   12  C   UNL     1     -10.112  13.595  65.084  1.00  0.00    -0.275 C  
HETATM   13  C   UNL     1      -9.390  12.471  64.310  1.00  0.00     0.561 C  
HETATM   14  C   UNL     1      -9.776   9.142  68.578  1.00  0.00    -0.166 C  
HETATM   15  C   UNL     1     -10.072  11.135  64.753  1.00  0.00    -0.351 C  
HETATM   16  C   UNL     1      -9.532   9.911  63.995  1.00  0.00    -0.231 C  
HETATM   17  C   UNL     1      -8.329   9.219  64.632  1.00  0.00    -0.167 C  
HETATM   18  C   UNL     1      -8.721   8.612  65.981  1.00  0.00    -0.196 C  
HETATM   19  C   UNL     1      -9.349   9.810  67.018  1.00  0.00    -0.178 C  
ENDROOT
BRANCH   3  20
HETATM   20  N   UNL     1      -6.515   9.205  69.286  1.00  0.00    -0.045 NA 
HETATM   21  C   UNL     1      -7.526   6.602  72.241  1.00  0.00    -0.094 C  
HETATM   22  C   UNL     1      -7.169   9.827  70.443  1.00  0.00    -0.142 C  
HETATM   23  C   UNL     1      -5.394   7.642  72.961  1.00  0.00    -0.040 C  
HETATM   24  C   UNL     1      -5.329   8.509  69.802  1.00  0.00    -0.029 C  
HETATM   25  C   UNL     1      -7.246   9.055  71.813  1.00  0.00     0.087 C  
HETATM   26  N   UNL     1      -6.484   7.674  71.895  1.00  0.00    -0.042 N  
HETATM   27  C   UNL     1      -5.788   7.294  70.592  1.00  0.00    -0.027 C  
ENDBRANCH   3  20
BRANCH   4  28
HETATM   28  O   UNL     1      -9.174   5.790  68.599  1.00  0.00    -0.117 OA 
BRANCH  28  29
HETATM   29  C   UNL     1      -9.671   4.762  67.869  1.00  0.00    -0.149 C  
HETATM   30  C   UNL     1      -9.392   3.421  68.488  1.00  0.00    -0.231 C  
HETATM   31  O   UNL     1     -10.349   4.900  66.845  1.00  0.00    -0.224 OA 
ENDBRANCH  28  29
ENDBRANCH   4  28
BRANCH  12  32
HETATM   32  O   UNL     1     -10.305  14.897  64.529  1.00  0.00    -0.171 OA 
BRANCH  32  33
HETATM   33  C   UNL     1     -11.612  15.154  64.246  1.00  0.00    -0.184 C  
HETATM   34  O   UNL     1     -11.948  16.236  63.797  1.00  0.00    -0.973 OA 
HETATM   35  C   UNL     1     -12.629  14.101  64.628  1.00  0.00    -0.285 C  
ENDBRANCH  32  33
ENDBRANCH  12  32
BRANCH  11  36
HETATM   36  N   UNL     1      -9.015  14.947  67.060  1.00  0.00    -0.222 NA 
HETATM   37  C   UNL     1      -9.269  15.450  69.687  1.00  0.00    -0.185 C  
HETATM   38  C   UNL     1      -8.410  15.087  68.405  1.00  0.00    -0.154 C  
HETATM   39  N   UNL     1     -10.472  16.402  69.478  1.00  0.00    -0.299 N  
HETATM   40  C   UNL     1     -10.065  17.854  69.741  1.00  0.00     0.519 C  
HETATM   41  C   UNL     1     -11.082  16.199  68.079  1.00  0.00    -0.317 C  
HETATM   42  C   UNL     1     -11.572  16.086  70.524  1.00  0.00    -0.362 C  
HETATM   43  C   UNL     1     -10.021  16.050  66.950  1.00  0.00    -0.251 C  
ENDBRANCH  11  36
TORSDOF 6
ENDMDL
MODEL       70
REMARK 921   NORMALIZED FREE ENERGY PREDICTED BY IDOCK:    1.14 KCAL/MOL
REMARK 922        TOTAL FREE ENERGY PREDICTED BY IDOCK:   -0.20 KCAL/MOL
REMARK 923 INTER-LIGAND FREE ENERGY PREDICTED BY IDOCK:   -1.39 KCAL/MOL
REMARK 924 INTRA-LIGAND FREE ENERGY PREDICTED BY IDOCK:    1.20 KCAL/MOL
REMARK 927      BINDING AFFINITY PREDICTED BY RF-SCORE:    0.00 PKD
ROOT
HETATM    1  C   UNL     1      -6.987   7.827  67.861  1.00  0.00    -0.077 C  
HETATM    2  C   UNL     1      -6.051   8.841  68.201  1.00  0.00    -0.051 C  
HETATM    3  C   UNL     1      -7.201   8.987  69.188  1.00  0.00    -0.067 C  
HETATM    4  C   UNL     1      -8.456   7.353  69.042  1.00  0.00    -0.129 C  
HETATM    5  C   UNL     1     -11.778   9.744  66.901  1.00  0.00     2.491 C  
HETATM    6  C   UNL     1      -7.269   7.496  69.688  1.00  0.00    -0.077 C  
HETATM    7  C   UNL     1     -10.483  10.594  66.879  1.00  0.00    -0.304 C  
HETATM    8  C   UNL     1     -10.838  12.133  67.546  1.00  0.00    -0.283 C  
HETATM    9  C   UNL     1      -6.288   6.551  70.354  1.00  0.00    -0.043 C  
HETATM   10  C   UNL     1      -8.753   8.330  70.557  1.00  0.00    -0.140 C  
HETATM   11  C   UNL     1     -10.138  13.404  66.803  1.00  0.00    -0.260 C  
HETATM   12  C   UNL     1     -10.630  13.130  65.363  1.00  0.00    -0.299 C  
HETATM   13  C   UNL     1      -9.608  12.119  64.804  1.00  0.00     0.026 C  
HETATM   14  C   UNL     1      -9.879   9.171  69.353  1.00  0.00    -0.173 C  
HETATM   15  C   UNL     1     -10.064  10.714  65.317  1.00  0.00    -0.363 C  
HETATM   16  C   UNL     1      -9.201   9.567  64.765  1.00  0.00    -0.267 C  
HETATM   17  C   UNL     1      -7.978   9.201  65.603  1.00  0.00    -0.107 C  
HETATM   18  C   UNL     1      -8.414   8.646  66.961  1.00  0.00    -0.110 C  
HETATM   19  C   UNL     1      -9.394   9.774  67.783  1.00  0.00    -0.148 C  
ENDROOT
BRANCH   3  20
HETATM   20  N   UNL     1      -6.814   9.976  70.398  1.00  0.00    -0.166 NA 
HETATM   21  C   UNL     1      -5.822  13.251  68.202  1.00  0.00    -0.105 C  
HETATM   22  C   UNL     1      -5.488  10.528  70.700  1.00  0.00    -0.085 C  
HETATM   23  C   UNL     1      -6.615  14.120  70.384  1.00  0.00     0.044 C  
HETATM   24  C   UNL     1      -7.776  11.064  70.612  1.00  0.00     2.517 C  
HETATM   25  C   UNL     1      -5.126  11.995  70.256  1.00  0.00    -0.094 C  
HETATM   26  N   UNL     1      -6.286  12.849  69.608  1.00  0.00    -0.114 N  
HETATM   27  C   UNL     1      -7.604  12.087  69.501  1.00  0.00     0.553 C  
ENDBRANCH   3  20
BRANCH   4  28
HETATM   28  O   UNL     1      -8.637   6.034  69.816  1.00  0.00    -0.127 OA 
BRANCH  28  29
HETATM   29  C   UNL     1      -9.787   5.324  69.713  1.00  0.00    -0.211 C  
HETATM   30  C   UNL     1      -9.697   3.974  70.369  1.00  0.00    -0.263 C  
HETATM   31  O   UNL     1     -10.829   5.756  69.207  1.00  0.00    -0.311 OA 
ENDBRANCH  28  29
ENDBRANCH   4  28
BRANCH  12  32
HETATM   32  O   UNL     1     -11.002  14.309  64.648  1.00  0.00    -0.391 OA 
BRANCH  32  33
HETATM   33  C   UNL     1     -12.222  14.194  64.052  1.00  0.00    -0.332 C  
HETATM   34  O   UNL     1     -12.963  15.157  63.965  1.00  0.00    -0.512 OA 
HETATM   35  C   UNL     1     -12.662  12.811  63.626  1.00  0.00    -0.259 C  
ENDBRANCH  32  33
ENDBRANCH  12  32
BRANCH  11  36
HETATM   36  N   UNL     1     -10.086  14.850  67.282  1.00  0.00    -0.235 NA 
HETATM   37  C   UNL     1      -8.678  16.714  65.953  1.00  0.00    -0.066 C  
HETATM   38  C   UNL     1     -10.038  16.006  66.358  1.00  0.00    -0.300 C  
HETATM   39  N   UNL     1      -7.573  16.777  67.036  1.00  0.00    -0.180 N  
HETATM   40  C   UNL     1      -7.650  18.095  67.811  1.00  0.00    -0.222 C  
HETATM   41  C   UNL     1      -7.646  15.543  67.952  1.00  0.00    -0.133 C  
HETATM   42  C   UNL     1      -6.180  16.779  66.356  1.00  0.00     0.163 C  
HETATM   43  C   UNL     1      -9.097  15.154  68.364  1.00  0.00    -0.185 C  
ENDBRANCH  11  36
TORSDOF 6
ENDMDL
MODEL       71
REMARK 921   NORMALIZED FREE ENERGY PREDICTED BY IDOCK:    1.45 KCAL/MOL
REMARK 922        TOTAL FREE ENERGY PREDICTED BY IDOCK:    0.22 KCAL/MOL
REMARK 923 INTER-LIGAND FREE ENERGY PREDICTED BY IDOCK:   -5.52 KCAL/MOL
REMARK 924 INTRA-LIGAND FREE ENERGY PREDICTED BY IDOCK:    5.74 KCAL/MOL
REMARK 927      BINDING AFFINITY PREDICTED BY RF-SCORE:    0.00 PKD
ROOT
HETATM    1  C   UNL     1      -9.807   5.249  70.594  1.00  0.00    -0.264 C  
HETATM    2  C   UNL     1     -10.519   4.984  69.392  1.00  0.00    -0.114 C  
HETATM    3  C   UNL     1      -9.094   5.314  68.969  1.00  0.00    -0.115 C  
HETATM    4  C   UNL     1      -7.868   5.360  70.631  1.00  0.00    -0.090 C  
HETATM    5  C   UNL     1      -7.504   9.965  70.579  1.00  0.00    -0.057 C  
HETATM    6  C   UNL     1      -8.334   4.307  69.910  1.00  0.00    -0.077 C  
HETATM    7  C   UNL     1      -8.664   9.563  69.635  1.00  0.00    -0.189 C  
HETATM    8  C   UNL     1      -8.377  10.268  68.098  1.00  0.00    -0.118 C  
HETATM    9  C   UNL     1      -8.357   2.803  70.100  1.00  0.00    -0.077 C  
HETATM   10  C   UNL     1      -6.926   5.286  69.067  1.00  0.00    -0.056 C  
HETATM   11  C   UNL     1      -9.690  10.864  67.337  1.00  0.00    -0.168 C  
HETATM   12  C   UNL     1     -10.202  11.800  68.457  1.00  0.00    -0.210 C  
HETATM   13  C   UNL     1     -11.033  10.872  69.369  1.00  0.00    -0.304 C  
HETATM   14  C   UNL     1      -7.121   7.113  69.289  1.00  0.00    -0.079 C  
HETATM   15  C   UNL     1     -10.009  10.164  70.314  1.00  0.00    -0.081 C  
HETATM   16  C   UNL     1     -10.687   9.267  71.364  1.00  0.00    -0.432 C  
HETATM   17  C   UNL     1     -10.922   7.819  70.941  1.00  0.00    -0.260 C  
HETATM   18  C   UNL     1      -9.585   7.106  70.728  1.00  0.00    -0.168 C  
HETATM   19  C   UNL     1      -8.643   7.929  69.569  1.00  0.00    -0.137 C  
ENDROOT
BRANCH   3  20
HETATM   20  N   UNL     1      -8.842   4.948  67.422  1.00  0.00    -0.103 NA 
HETATM   21  C   UNL     1      -6.603   8.183  66.397  1.00  0.00    -0.051 C  
HETATM   22  C   UNL     1      -9.336   5.678  66.248  1.00  0.00    -0.157 C  
HETATM   23  C   UNL     1      -5.879   6.358  64.884  1.00  0.00    -0.022 C  
HETATM   24  C   UNL     1      -7.460   4.556  67.118  1.00  0.00    -0.081 C  
HETATM   25  C   UNL     1      -8.386   6.676  65.485  1.00  0.00    -0.144 C  
HETATM   26  N   UNL     1      -6.883   6.737  65.968  1.00  0.00    -0.062 N  
HETATM   27  C   UNL     1      -6.590   5.802  67.137  1.00  0.00    -0.056 C  
ENDBRANCH   3  20
BRANCH   4  28
HETATM   28  O   UNL     1      -6.893   4.377  71.305  1.00  0.00    -0.033 OA 
BRANCH  28  29
HETATM   29  C   UNL     1      -6.469   4.585  72.575  1.00  0.00    -0.037 C  
HETATM   30  C   UNL     1      -7.498   5.279  73.424  1.00  0.00    -0.095 C  
HETATM   31  O   UNL     1      -5.389   4.185  73.023  1.00  0.00     0.000 OA 
ENDBRANCH  28  29
ENDBRANCH   4  28
BRANCH  12  32
HETATM   32  O   UNL     1     -10.707  13.047  67.979  1.00  0.00    -0.221 OA 
BRANCH  32  33
HETATM   33  C   UNL     1     -10.826  13.976  68.970  1.00  0.00    -0.243 C  
HETATM   34  O   UNL     1     -11.923  14.292  69.393  1.00  0.00    -0.304 OA 
HETATM   35  C   UNL     1      -9.565  14.679  69.422  1.00  0.00     0.054 C  
ENDBRANCH  32  33
ENDBRANCH  12  32
BRANCH  11  36
HETATM   36  N   UNL     1      -9.792  11.347  65.895  1.00  0.00    -0.217 NA 
HETATM   37  C   UNL     1     -10.540  13.860  65.310  1.00  0.00    -0.361 C  
HETATM   38  C   UNL     1      -9.447  12.725  65.478  1.00  0.00     0.115 C  
HETATM   39  N   UNL     1     -11.934  13.419  64.798  1.00  0.00    -0.372 N  
HETATM   40  C   UNL     1     -12.022  13.563  63.277  1.00  0.00    -0.123 C  
HETATM   41  C   UNL     1     -12.259  11.994  65.281  1.00  0.00     0.049 C  
HETATM   42  C   UNL     1     -13.019  14.370  65.366  1.00  0.00    -0.119 C  
HETATM   43  C   UNL     1     -11.059  11.009  65.172  1.00  0.00     0.060 C  
ENDBRANCH  11  36
TORSDOF 6
ENDMDL
MODEL       72
REMARK 921   NORMALIZED FREE ENERGY PREDICTED BY IDOCK:    1.57 KCAL/MOL
REMARK 922        TOTAL FREE ENERGY PREDICTED BY IDOCK:    0.39 KCAL/MOL
REMARK 923 INTER-LIGAND FREE ENERGY PREDICTED BY IDOCK:   -7.20 KCAL/MOL
REMARK 924 INTRA-LIGAND FREE ENERGY PREDICTED BY IDOCK:    7.59 KCAL/MOL
REMARK 927      BINDING AFFINITY PREDICTED BY RF-SCORE:    0.00 PKD
ROOT
HETATM    1  C   UNL     1      -8.587   9.264  64.179  1.00  0.00    -0.207 C  
HETATM    2  C   UNL     1      -7.264   9.743  63.982  1.00  0.00    -0.128 C  
HETATM    3  C   UNL     1      -7.391   9.472  65.475  1.00  0.00    -0.094 C  
HETATM    4  C   UNL     1      -9.136   8.431  65.847  1.00  0.00    -0.171 C  
HETATM    5  C   UNL     1     -11.252  12.090  67.709  1.00  0.00    -0.331 C  
HETATM    6  C   UNL     1      -7.930   7.996  65.398  1.00  0.00    -0.121 C  
HETATM    7  C   UNL     1      -9.980  12.590  66.980  1.00  0.00    -0.217 C  
HETATM    8  C   UNL     1      -9.045  13.502  68.090  1.00  0.00    -0.199 C  
HETATM    9  C   UNL     1      -7.410   6.703  64.799  1.00  0.00    -0.084 C  
HETATM   10  C   UNL     1      -7.984   8.397  67.265  1.00  0.00    -0.105 C  
HETATM   11  C   UNL     1      -8.343  14.845  67.488  1.00  0.00    -0.180 C  
HETATM   12  C   UNL     1      -9.604  15.523  66.903  1.00  0.00    -0.228 C  
HETATM   13  C   UNL     1      -9.770  14.872  65.514  1.00  0.00    -0.275 C  
HETATM   14  C   UNL     1      -8.951   9.936  67.616  1.00  0.00    -0.133 C  
HETATM   15  C   UNL     1     -10.511  13.516  65.759  1.00  0.00    -0.293 C  
HETATM   16  C   UNL     1     -10.847  12.776  64.453  1.00  0.00    -0.395 C  
HETATM   17  C   UNL     1      -9.775  11.814  63.946  1.00  0.00    -0.226 C  
HETATM   18  C   UNL     1      -9.593  10.657  64.931  1.00  0.00    -0.323 C  
HETATM   19  C   UNL     1      -9.193  11.245  66.480  1.00  0.00    -0.200 C  
ENDROOT
BRANCH   3  20
HETATM   20  N   UNL     1      -5.956   9.518  66.203  1.00  0.00    -0.061 NA 
HETATM   21  C   UNL     1      -7.131  11.144  69.740  1.00  0.00    -0.003 C  
HETATM   22  C   UNL     1      -5.202  10.712  66.600  1.00  0.00    -0.052 C  
HETATM   23  C   UNL     1      -5.127   9.780  70.260  1.00  0.00    -0.036 C  
HETATM   24  C   UNL     1      -5.813   8.552  67.300  1.00  0.00    -0.043 C  
HETATM   25  C   UNL     1      -5.242  11.209  68.094  1.00  0.00    -0.039 C  
HETATM   26  N   UNL     1      -6.010  10.294  69.127  1.00  0.00    -0.037 N  
HETATM   27  C   UNL     1      -6.618   9.048  68.489  1.00  0.00    -0.055 C  
ENDBRANCH   3  20
BRANCH   4  28
HETATM   28  O   UNL     1      -9.507   6.953  66.069  1.00  0.00    -0.064 OA 
BRANCH  28  29
HETATM   29  C   UNL     1     -10.658   6.617  66.702  1.00  0.00    -0.154 C  
HETATM   30  C   UNL     1     -11.334   5.425  66.082  1.00  0.00     0.595 C  
HETATM   31  O   UNL     1     -11.078   7.171  67.723  1.00  0.00    -0.142 OA 
ENDBRANCH  28  29
ENDBRANCH   4  28
BRANCH  12  32
HETATM   32  O   UNL     1      -9.633  16.939  67.087  1.00  0.00    -0.235 OA 
BRANCH  32  33
HETATM   33  C   UNL     1     -10.428  17.567  66.175  1.00  0.00    -0.288 C  
HETATM   34  O   UNL     1     -10.806  16.983  65.176  1.00  0.00    -0.617 OA 
HETATM   35  C   UNL     1     -10.709  19.038  66.391  1.00  0.00    -0.410 C  
ENDBRANCH  32  33
ENDBRANCH  12  32
BRANCH  11  36
HETATM   36  N   UNL     1      -7.296  15.728  68.155  1.00  0.00    -0.120 NA 
HETATM   37  C   UNL     1      -7.767  18.327  68.651  1.00  0.00    -0.302 C  
HETATM   38  C   UNL     1      -7.639  16.813  69.103  1.00  0.00    -0.181 C  
HETATM   39  N   UNL     1      -6.815  18.804  67.526  1.00  0.00    -0.201 N  
HETATM   40  C   UNL     1      -5.549  19.428  68.118  1.00  0.00    -0.199 C  
HETATM   41  C   UNL     1      -6.512  17.651  66.552  1.00  0.00    -0.222 C  
HETATM   42  C   UNL     1      -7.495  19.939  66.718  1.00  0.00    -0.254 C  
HETATM   43  C   UNL     1      -6.236  16.292  67.259  1.00  0.00    -0.170 C  
ENDBRANCH  11  36
TORSDOF 6
ENDMDL
MODEL       73
REMARK 921   NORMALIZED FREE ENERGY PREDICTED BY IDOCK:    1.79 KCAL/MOL
REMARK 922        TOTAL FREE ENERGY PREDICTED BY IDOCK:    0.68 KCAL/MOL
REMARK 923 INTER-LIGAND FREE ENERGY PREDICTED BY IDOCK:    1.75 KCAL/MOL
REMARK 924 INTRA-LIGAND FREE ENERGY PREDICTED BY IDOCK:   -1.07 KCAL/MOL
REMARK 927      BINDING AFFINITY PREDICTED BY RF-SCORE:    0.00 PKD
ROOT
HETATM    1  C   UNL     1      -9.849  12.282  68.379  1.00  0.00    -0.199 C  
HETATM    2  C   UNL     1      -9.222  11.768  69.546  1.00  0.00     1.099 C  
HETATM    3  C   UNL     1      -8.129  11.859  68.490  1.00  0.00    -0.130 C  
HETATM    4  C   UNL     1      -8.820  12.929  66.863  1.00  0.00    -0.187 C  
HETATM    5  C   UNL     1      -9.197   9.174  64.200  1.00  0.00     0.193 C  
HETATM    6  C   UNL     1      -8.344  13.358  68.062  1.00  0.00    -0.165 C  
HETATM    7  C   UNL     1      -9.011   8.708  65.666  1.00  0.00    -0.231 C  
HETATM    8  C   UNL     1      -7.685   7.622  65.722  1.00  0.00    -0.100 C  
HETATM    9  C   UNL     1      -8.310  14.688  68.789  1.00  0.00    -0.163 C  
HETATM   10  C   UNL     1      -7.003  12.733  66.853  1.00  0.00     0.358 C  
HETATM   11  C   UNL     1      -7.869   6.331  66.701  1.00  0.00    -0.104 C  
HETATM   12  C   UNL     1      -9.199   5.791  66.126  1.00  0.00    -0.156 C  
HETATM   13  C   UNL     1     -10.283   6.616  66.851  1.00  0.00    -0.287 C  
HETATM   14  C   UNL     1      -7.540  11.210  65.947  1.00  0.00     0.085 C  
HETATM   15  C   UNL     1     -10.395   7.965  66.068  1.00  0.00     0.866 C  
HETATM   16  C   UNL     1     -11.512   8.875  66.606  1.00  0.00     2.530 C  
HETATM   17  C   UNL     1     -11.100   9.840  67.715  1.00  0.00    -0.142 C  
HETATM   18  C   UNL     1     -10.087  10.857  67.184  1.00  0.00    -0.235 C  
HETATM   19  C   UNL     1      -8.725  10.064  66.535  1.00  0.00    -0.142 C  
ENDROOT
BRANCH   3  20
HETATM   20  N   UNL     1      -6.669  11.655  69.138  1.00  0.00    -0.101 NA 
HETATM   21  C   UNL     1      -7.605   8.750  71.823  1.00  0.00    -0.038 C  
HETATM   22  C   UNL     1      -6.263  11.953  70.517  1.00  0.00     0.196 C  
HETATM   23  C   UNL     1      -5.216   8.400  71.259  1.00  0.00    -0.029 C  
HETATM   24  C   UNL     1      -6.029  10.383  68.781  1.00  0.00    -0.040 C  
HETATM   25  C   UNL     1      -6.174  10.793  71.578  1.00  0.00     0.925 C  
HETATM   26  N   UNL     1      -6.411   9.324  71.049  1.00  0.00    -0.080 N  
HETATM   27  C   UNL     1      -6.710   9.266  69.554  1.00  0.00    -0.047 C  
ENDBRANCH   3  20
BRANCH   4  28
HETATM   28  O   UNL     1      -8.699  14.384  66.375  1.00  0.00    -0.104 OA 
BRANCH  28  29
HETATM   29  C   UNL     1      -9.571  14.882  65.464  1.00  0.00    -0.145 C  
HETATM   30  C   UNL     1     -10.544  13.848  64.967  1.00  0.00    -0.418 C  
HETATM   31  O   UNL     1      -9.624  16.069  65.127  1.00  0.00    -0.281 OA 
ENDBRANCH  28  29
ENDBRANCH   4  28
BRANCH  12  32
HETATM   32  O   UNL     1      -9.254   4.366  66.045  1.00  0.00    -0.124 OA 
BRANCH  32  33
HETATM   33  C   UNL     1      -9.665   3.928  64.821  1.00  0.00    -0.187 C  
HETATM   34  O   UNL     1     -10.837   4.000  64.499  1.00  0.00    -0.273 OA 
HETATM   35  C   UNL     1      -8.639   3.242  63.947  1.00  0.00    -0.089 C  
ENDBRANCH  32  33
ENDBRANCH  12  32
BRANCH  11  36
HETATM   36  N   UNL     1      -6.806   5.323  67.123  1.00  0.00    -0.059 NA 
HETATM   37  C   UNL     1      -7.378   3.313  68.812  1.00  0.00    -0.049 C  
HETATM   38  C   UNL     1      -7.100   3.892  67.362  1.00  0.00    -0.063 C  
HETATM   39  N   UNL     1      -6.601   3.961  69.985  1.00  0.00    -0.032 N  
HETATM   40  C   UNL     1      -5.315   3.184  70.276  1.00  0.00    -0.012 C  
HETATM   41  C   UNL     1      -6.345   5.452  69.702  1.00  0.00    -0.030 C  
HETATM   42  C   UNL     1      -7.444   3.863  71.282  1.00  0.00    -0.044 C  
HETATM   43  C   UNL     1      -5.901   5.744  68.239  1.00  0.00    -0.016 C  
ENDBRANCH  11  36
TORSDOF 6
ENDMDL
MODEL       74
REMARK 921   NORMALIZED FREE ENERGY PREDICTED BY IDOCK:    1.81 KCAL/MOL
REMARK 922        TOTAL FREE ENERGY PREDICTED BY IDOCK:    0.71 KCAL/MOL
REMARK 923 INTER-LIGAND FREE ENERGY PREDICTED BY IDOCK:    0.17 KCAL/MOL
REMARK 924 INTRA-LIGAND FREE ENERGY PREDICTED BY IDOCK:    0.54 KCAL/MOL
REMARK 927      BINDING AFFINITY PREDICTED BY RF-SCORE:    0.00 PKD
ROOT
HETATM    1  C   UNL     1     -10.243  12.764  66.279  1.00  0.00    -0.264 C  
HETATM    2  C   UNL     1     -11.339  12.423  67.117  1.00  0.00    -0.390 C  
HETATM    3  C   UNL     1     -10.126  12.519  68.033  1.00  0.00    -0.220 C  
HETATM    4  C   UNL     1      -8.544  13.361  67.007  1.00  0.00    -0.158 C  
HETATM    5  C   UNL     1      -6.272   9.355  66.662  1.00  0.00    -0.065 C  
HETATM    6  C   UNL     1      -9.619  13.944  67.599  1.00  0.00    -0.215 C  
HETATM    7  C   UNL     1      -7.724   9.048  67.104  1.00  0.00    -0.099 C  
HETATM    8  C   UNL     1      -7.665   8.102  68.533  1.00  0.00    -0.112 C  
HETATM    9  C   UNL     1     -10.226  15.334  67.593  1.00  0.00    -0.242 C  
HETATM   10  C   UNL     1      -8.275  13.338  68.814  1.00  0.00     0.084 C  
HETATM   11  C   UNL     1      -8.759   6.897  68.630  1.00  0.00    -0.122 C  
HETATM   12  C   UNL     1      -8.435   6.182  67.298  1.00  0.00    -0.104 C  
HETATM   13  C   UNL     1      -9.248   6.965  66.246  1.00  0.00    -0.157 C  
HETATM   14  C   UNL     1      -7.583  11.694  68.321  1.00  0.00    -0.120 C  
HETATM   15  C   UNL     1      -8.388   8.218  65.879  1.00  0.00    -0.132 C  
HETATM   16  C   UNL     1      -9.014   9.064  64.758  1.00  0.00    -0.146 C  
HETATM   17  C   UNL     1      -9.970  10.163  65.217  1.00  0.00    -0.381 C  
HETATM   18  C   UNL     1      -9.214  11.217  66.028  1.00  0.00    -0.224 C  
HETATM   19  C   UNL     1      -8.431  10.500  67.363  1.00  0.00    -0.122 C  
ENDROOT
BRANCH   3  20
HETATM   20  N   UNL     1     -10.561  12.517  69.584  1.00  0.00     0.424 NA 
HETATM   21  C   UNL     1     -13.383   9.595  69.411  1.00  0.00     3.326 C  
HETATM   22  C   UNL     1     -11.864  12.901  70.138  1.00  0.00    -0.245 C  
HETATM   23  C   UNL     1     -12.486   9.528  71.721  1.00  0.00    -0.401 C  
HETATM   24  C   UNL     1     -10.129  11.324  70.323  1.00  0.00     1.700 C  
HETATM   25  C   UNL     1     -12.914  11.792  70.522  1.00  0.00     0.206 C  
HETATM   26  N   UNL     1     -12.439  10.290  70.401  1.00  0.00    -0.254 N  
HETATM   27  C   UNL     1     -11.003  10.153  69.904  1.00  0.00    -0.293 C  
ENDBRANCH   3  20
BRANCH   4  28
HETATM   28  O   UNL     1      -7.930  14.770  66.899  1.00  0.00    -0.159 OA 
BRANCH  28  29
HETATM   29  C   UNL     1      -6.627  14.980  67.205  1.00  0.00     0.116 C  
HETATM   30  C   UNL     1      -5.831  13.705  67.268  1.00  0.00     0.407 C  
HETATM   31  O   UNL     1      -6.115  16.097  67.343  1.00  0.00    -0.148 OA 
ENDBRANCH  28  29
ENDBRANCH   4  28
BRANCH  12  32
HETATM   32  O   UNL     1      -8.476   4.757  67.386  1.00  0.00    -0.105 OA 
BRANCH  32  33
HETATM   33  C   UNL     1      -7.478   4.162  66.673  1.00  0.00    -0.080 C  
HETATM   34  O   UNL     1      -6.394   4.703  66.556  1.00  0.00    -0.034 OA 
HETATM   35  C   UNL     1      -7.815   2.883  65.938  1.00  0.00    -0.081 C  
ENDBRANCH  32  33
ENDBRANCH  12  32
BRANCH  11  36
HETATM   36  N   UNL     1      -9.094   6.039  69.844  1.00  0.00    -0.140 NA 
HETATM   37  C   UNL     1     -10.382   7.063  71.969  1.00  0.00    -0.198 C  
HETATM   38  C   UNL     1     -10.335   6.208  70.635  1.00  0.00    -0.214 C  
HETATM   39  N   UNL     1      -9.113   7.045  72.857  1.00  0.00    -0.132 N  
HETATM   40  C   UNL     1      -9.222   5.962  73.933  1.00  0.00    -0.127 C  
HETATM   41  C   UNL     1      -7.851   6.897  71.989  1.00  0.00    -0.095 C  
HETATM   42  C   UNL     1      -9.001   8.384  73.629  1.00  0.00     0.001 C  
HETATM   43  C   UNL     1      -7.997   5.850  70.846  1.00  0.00    -0.111 C  
ENDBRANCH  11  36
TORSDOF 6
ENDMDL
MODEL       75
REMARK 921   NORMALIZED FREE ENERGY PREDICTED BY IDOCK:    2.14 KCAL/MOL
REMARK 922        TOTAL FREE ENERGY PREDICTED BY IDOCK:    1.16 KCAL/MOL
REMARK 923 INTER-LIGAND FREE ENERGY PREDICTED BY IDOCK:   -4.32 KCAL/MOL
REMARK 924 INTRA-LIGAND FREE ENERGY PREDICTED BY IDOCK:    5.48 KCAL/MOL
REMARK 927      BINDING AFFINITY PREDICTED BY RF-SCORE:    0.00 PKD
ROOT
HETATM    1  C   UNL     1      -8.914  11.322  68.309  1.00  0.00    -0.172 C  
HETATM    2  C   UNL     1      -7.538  11.089  68.579  1.00  0.00    -0.114 C  
HETATM    3  C   UNL     1      -7.892  10.187  67.404  1.00  0.00    -0.102 C  
HETATM    4  C   UNL     1      -9.758  10.693  66.676  1.00  0.00    -0.184 C  
HETATM    5  C   UNL     1     -11.769   6.919  68.424  1.00  0.00     0.767 C  
HETATM    6  C   UNL     1      -8.546  11.271  66.469  1.00  0.00    -0.170 C  
HETATM    7  C   UNL     1     -10.369   7.063  69.072  1.00  0.00    -0.208 C  
HETATM    8  C   UNL     1      -9.516   5.594  68.844  1.00  0.00    -0.157 C  
HETATM    9  C   UNL     1      -8.069  12.570  65.848  1.00  0.00     1.297 C  
HETATM   10  C   UNL     1      -8.818   9.635  65.520  1.00  0.00    -0.204 C  
HETATM   11  C   UNL     1      -8.620   5.091  70.110  1.00  0.00    -0.098 C  
HETATM   12  C   UNL     1      -9.723   5.105  71.194  1.00  0.00    -0.174 C  
HETATM   13  C   UNL     1      -9.756   6.570  71.676  1.00  0.00    -0.174 C  
HETATM   14  C   UNL     1      -9.681   8.367  66.556  1.00  0.00    -0.330 C  
HETATM   15  C   UNL     1     -10.642   7.344  70.646  1.00  0.00    -0.234 C  
HETATM   16  C   UNL     1     -10.863   8.815  71.035  1.00  0.00    -0.321 C  
HETATM   17  C   UNL     1      -9.823   9.800  70.506  1.00  0.00    -0.228 C  
HETATM   18  C   UNL     1      -9.882   9.862  68.978  1.00  0.00    -0.193 C  
HETATM   19  C   UNL     1      -9.646   8.314  68.305  1.00  0.00    -0.158 C  
ENDROOT
BRANCH   3  20
HETATM   20  N   UNL     1      -6.572   9.569  66.721  1.00  0.00    -0.067 NA 
HETATM   21  C   UNL     1      -7.922   5.779  66.130  1.00  0.00    -0.102 C  
HETATM   22  C   UNL     1      -5.699   8.523  67.268  1.00  0.00    -0.039 C  
HETATM   23  C   UNL     1      -6.235   6.176  64.357  1.00  0.00    -0.030 C  
HETATM   24  C   UNL     1      -6.719   9.280  65.288  1.00  0.00    -0.074 C  
HETATM   25  C   UNL     1      -5.851   7.034  66.779  1.00  0.00    -0.026 C  
HETATM   26  N   UNL     1      -6.877   6.773  65.605  1.00  0.00    -0.054 N  
HETATM   27  C   UNL     1      -7.583   8.039  65.133  1.00  0.00    -0.098 C  
ENDBRANCH   3  20
BRANCH   4  28
HETATM   28  O   UNL     1     -10.288  11.552  65.513  1.00  0.00    -0.253 OA 
BRANCH  28  29
HETATM   29  C   UNL     1     -11.505  12.143  65.589  1.00  0.00    -0.355 C  
HETATM   30  C   UNL     1     -12.066  12.493  64.238  1.00  0.00    -0.507 C  
HETATM   31  O   UNL     1     -12.133  12.311  66.640  1.00  0.00    -0.612 OA 
ENDBRANCH  28  29
ENDBRANCH   4  28
BRANCH  12  32
HETATM   32  O   UNL     1      -9.649   4.006  72.104  1.00  0.00    -0.133 OA 
BRANCH  32  33
HETATM   33  C   UNL     1     -10.510   4.138  73.152  1.00  0.00    -0.175 C  
HETATM   34  O   UNL     1     -11.576   4.709  73.009  1.00  0.00    -0.218 OA 
HETATM   35  C   UNL     1     -10.036   3.665  74.508  1.00  0.00    -0.197 C  
ENDBRANCH  32  33
ENDBRANCH  12  32
BRANCH  11  36
HETATM   36  N   UNL     1      -7.598   3.961  70.139  1.00  0.00    -0.048 NA 
HETATM   37  C   UNL     1      -5.384   4.040  68.619  1.00  0.00    -0.012 C  
HETATM   38  C   UNL     1      -6.140   4.187  70.004  1.00  0.00    -0.019 C  
HETATM   39  N   UNL     1      -5.905   2.952  67.648  1.00  0.00    -0.022 N  
HETATM   40  C   UNL     1      -5.134   1.644  67.837  1.00  0.00    -0.004 C  
HETATM   41  C   UNL     1      -7.426   2.775  67.806  1.00  0.00    -0.057 C  
HETATM   42  C   UNL     1      -5.629   3.386  66.186  1.00  0.00    -0.018 C  
HETATM   43  C   UNL     1      -7.905   2.769  69.287  1.00  0.00    -0.045 C  
ENDBRANCH  11  36
TORSDOF 6
ENDMDL
MODEL       76
REMARK 921   NORMALIZED FREE ENERGY PREDICTED BY IDOCK:    2.36 KCAL/MOL
REMARK 922        TOTAL FREE ENERGY PREDICTED BY IDOCK:    1.46 KCAL/MOL
REMARK 923 INTER-LIGAND FREE ENERGY PREDICTED BY IDOCK:    1.62 KCAL/MOL
REMARK 924 INTRA-LIGAND FREE ENERGY PREDICTED BY IDOCK:   -0.16 KCAL/MOL
REMARK 927      BINDING AFFINITY PREDICTED BY RF-SCORE:    0.00 PKD
ROOT
HETATM    1  C   UNL     1      -9.576   8.454  66.998  1.00  0.00    -0.248 C  
HETATM    2  C   UNL     1     -10.377   8.905  65.913  1.00  0.00     0.464 C  
HETATM    3  C   UNL     1      -9.090   9.716  65.848  1.00  0.00    -0.178 C  
HETATM    4  C   UNL     1      -7.693   8.911  67.139  1.00  0.00    -0.095 C  
HETATM    5  C   UNL     1      -8.112  12.360  70.184  1.00  0.00     3.332 C  
HETATM    6  C   UNL     1      -8.062   8.525  65.890  1.00  0.00    -0.116 C  
HETATM    7  C   UNL     1      -9.296  12.449  69.190  1.00  0.00     0.597 C  
HETATM    8  C   UNL     1      -9.323  14.029  68.523  1.00  0.00    -0.182 C  
HETATM    9  C   UNL     1      -7.811   7.304  65.026  1.00  0.00    -0.125 C  
HETATM   10  C   UNL     1      -6.952  10.079  65.945  1.00  0.00    -0.113 C  
HETATM   11  C   UNL     1     -10.801  14.690  68.329  1.00  0.00    -0.245 C  
HETATM   12  C   UNL     1     -11.320  14.527  69.777  1.00  0.00    -0.260 C  
HETATM   13  C   UNL     1     -11.865  13.084  69.819  1.00  0.00    -0.381 C  
HETATM   14  C   UNL     1      -7.420  11.218  67.327  1.00  0.00    -0.126 C  
HETATM   15  C   UNL     1     -10.628  12.161  70.069  1.00  0.00     1.179 C  
HETATM   16  C   UNL     1     -11.012  10.681  70.238  1.00  0.00    -0.237 C  
HETATM   17  C   UNL     1     -11.053   9.860  68.951  1.00  0.00    -0.181 C  
HETATM   18  C   UNL     1      -9.652   9.759  68.343  1.00  0.00    -0.157 C  
HETATM   19  C   UNL     1      -9.012  11.311  68.050  1.00  0.00    -0.156 C  
ENDROOT
BRANCH   3  20
HETATM   20  N   UNL     1      -8.974  10.519  64.457  1.00  0.00    -0.199 NA 
HETATM   21  C   UNL     1     -12.896  11.481  63.991  1.00  0.00     0.377 C  
HETATM   22  C   UNL     1      -9.542  10.131  63.161  1.00  0.00    -0.173 C  
HETATM   23  C   UNL     1     -11.624  13.266  62.832  1.00  0.00     1.010 C  
HETATM   24  C   UNL     1      -9.179  11.968  64.585  1.00  0.00     0.394 C  
HETATM   25  C   UNL     1     -10.888  10.780  62.665  1.00  0.00     1.187 C  
HETATM   26  N   UNL     1     -11.494  11.932  63.560  1.00  0.00    -0.436 N  
HETATM   27  C   UNL     1     -10.660  12.228  64.803  1.00  0.00    -0.297 C  
ENDBRANCH   3  20
BRANCH   4  28
HETATM   28  O   UNL     1      -6.492   7.957  67.003  1.00  0.00    -0.053 OA 
BRANCH  28  29
HETATM   29  C   UNL     1      -6.118   7.166  68.037  1.00  0.00    -0.034 C  
HETATM   30  C   UNL     1      -5.586   5.833  67.587  1.00  0.00    -0.012 C  
HETATM   31  O   UNL     1      -6.132   7.516  69.223  1.00  0.00    -0.029 OA 
ENDBRANCH  28  29
ENDBRANCH   4  28
BRANCH  12  32
HETATM   32  O   UNL     1     -12.080  15.641  70.245  1.00  0.00    -0.363 OA 
BRANCH  32  33
HETATM   33  C   UNL     1     -12.372  15.553  71.573  1.00  0.00    -0.401 C  
HETATM   34  O   UNL     1     -12.889  14.549  72.028  1.00  0.00    -0.313 OA 
HETATM   35  C   UNL     1     -12.147  16.787  72.419  1.00  0.00     0.151 C  
ENDBRANCH  32  33
ENDBRANCH  12  32
BRANCH  11  36
HETATM   36  N   UNL     1     -11.159  15.966  67.577  1.00  0.00    -0.281 NA 
HETATM   37  C   UNL     1      -9.279  17.442  66.351  1.00  0.00    -0.249 C  
HETATM   38  C   UNL     1     -10.469  16.395  66.339  1.00  0.00    -0.286 C  
HETATM   39  N   UNL     1      -9.350  18.570  67.410  1.00  0.00    -0.277 N  
HETATM   40  C   UNL     1     -10.012  19.820  66.824  1.00  0.00    -0.427 C  
HETATM   41  C   UNL     1     -10.050  18.068  68.685  1.00  0.00    -0.394 C  
HETATM   42  C   UNL     1      -7.914  19.008  67.799  1.00  0.00    -0.263 C  
HETATM   43  C   UNL     1     -11.314  17.203  68.406  1.00  0.00     0.211 C  
ENDBRANCH  11  36
TORSDOF 6
ENDMDL
MODEL       77
REMARK 921   NORMALIZED FREE ENERGY PREDICTED BY IDOCK:    2.38 KCAL/MOL
REMARK 922        TOTAL FREE ENERGY PREDICTED BY IDOCK:    1.49 KCAL/MOL
REMARK 923 INTER-LIGAND FREE ENERGY PREDICTED BY IDOCK:   -5.46 KCAL/MOL
REMARK 924 INTRA-LIGAND FREE ENERGY PREDICTED BY IDOCK:    6.94 KCAL/MOL
REMARK 927      BINDING AFFINITY PREDICTED BY RF-SCORE:    0.00 PKD
ROOT
HETATM    1  C   UNL     1      -7.442   7.334  64.467  1.00  0.00    -0.092 C  
HETATM    2  C   UNL     1      -6.161   7.941  64.569  1.00  0.00    -0.048 C  
HETATM    3  C   UNL     1      -6.611   7.673  65.999  1.00  0.00    -0.046 C  
HETATM    4  C   UNL     1      -8.288   6.466  65.985  1.00  0.00    -0.132 C  
HETATM    5  C   UNL     1     -11.121   9.913  67.180  1.00  0.00    -0.006 C  
HETATM    6  C   UNL     1      -6.974   6.149  65.846  1.00  0.00    -0.061 C  
HETATM    7  C   UNL     1      -9.766  10.530  66.754  1.00  0.00    -0.220 C  
HETATM    8  C   UNL     1      -9.210  11.541  68.022  1.00  0.00    -0.175 C  
HETATM    9  C   UNL     1      -6.208   4.909  65.428  1.00  0.00    -0.034 C  
HETATM   10  C   UNL     1      -7.506   6.560  67.634  1.00  0.00    -0.097 C  
HETATM   11  C   UNL     1      -8.517  12.942  67.557  1.00  0.00    -0.186 C  
HETATM   12  C   UNL     1      -9.663  13.486  66.673  1.00  0.00    -0.280 C  
HETATM   13  C   UNL     1      -9.433  12.808  65.305  1.00  0.00     0.217 C  
HETATM   14  C   UNL     1      -8.670   7.998  67.699  1.00  0.00    -0.126 C  
HETATM   15  C   UNL     1     -10.078  11.388  65.413  1.00  0.00    -0.308 C  
HETATM   16  C   UNL     1     -10.025  10.606  64.090  1.00  0.00    -0.406 C  
HETATM   17  C   UNL     1      -8.777   9.751  63.879  1.00  0.00    -0.236 C  
HETATM   18  C   UNL     1      -8.724   8.627  64.916  1.00  0.00    -0.126 C  
HETATM   19  C   UNL     1      -8.759   9.266  66.497  1.00  0.00    -0.145 C  
ENDROOT
BRANCH   3  20
HETATM   20  N   UNL     1      -5.400   7.868  67.042  1.00  0.00    -0.031 NA 
HETATM   21  C   UNL     1      -7.576   7.978  70.474  1.00  0.00    -0.076 C  
HETATM   22  C   UNL     1      -5.139   9.039  67.886  1.00  0.00    -0.034 C  
HETATM   23  C   UNL     1      -5.352   7.093  71.117  1.00  0.00    -0.027 C  
HETATM   24  C   UNL     1      -5.132   6.687  67.873  1.00  0.00    -0.008 C  
HETATM   25  C   UNL     1      -5.571   9.030  69.400  1.00  0.00    -0.035 C  
HETATM   26  N   UNL     1      -6.161   7.677  69.964  1.00  0.00    -0.027 N  
HETATM   27  C   UNL     1      -6.231   6.571  68.916  1.00  0.00    -0.030 C  
ENDBRANCH   3  20
BRANCH   4  28
HETATM   28  O   UNL     1      -8.559   4.960  66.163  1.00  0.00    -0.115 OA 
BRANCH  28  29
HETATM   29  C   UNL     1      -9.497   4.334  65.411  1.00  0.00    -0.177 C  
HETATM   30  C   UNL     1      -8.898   3.430  64.369  1.00  0.00    -0.105 C  
HETATM   31  O   UNL     1     -10.715   4.425  65.600  1.00  0.00    -0.240 OA 
ENDBRANCH  28  29
ENDBRANCH   4  28
BRANCH  12  32
HETATM   32  O   UNL     1      -9.868  14.893  66.798  1.00  0.00    -0.234 OA 
BRANCH  32  33
HETATM   33  C   UNL     1     -11.155  15.258  66.537  1.00  0.00    -0.271 C  
HETATM   34  O   UNL     1     -11.436  16.420  66.309  1.00  0.00     0.398 OA 
HETATM   35  C   UNL     1     -12.221  14.193  66.669  1.00  0.00    -0.450 C  
ENDBRANCH  32  33
ENDBRANCH  12  32
BRANCH  11  36
HETATM   36  N   UNL     1      -7.745  13.931  68.423  1.00  0.00    -0.132 NA 
HETATM   37  C   UNL     1      -8.676  16.409  68.885  1.00  0.00    -0.253 C  
HETATM   38  C   UNL     1      -8.406  14.908  69.318  1.00  0.00    -0.114 C  
HETATM   39  N   UNL     1      -7.624  17.071  67.961  1.00  0.00    -0.177 N  
HETATM   40  C   UNL     1      -6.588  17.838  68.785  1.00  0.00    -0.227 C  
HETATM   41  C   UNL     1      -6.987  16.022  67.032  1.00  0.00    -0.174 C  
HETATM   42  C   UNL     1      -8.314  18.136  67.070  1.00  0.00    -0.240 C  
HETATM   43  C   UNL     1      -6.641  14.683  67.746  1.00  0.00    -0.171 C  
ENDBRANCH  11  36
TORSDOF 6
ENDMDL
MODEL       78
REMARK 921   NORMALIZED FREE ENERGY PREDICTED BY IDOCK:    2.42 KCAL/MOL
REMARK 922        TOTAL FREE ENERGY PREDICTED BY IDOCK:    1.54 KCAL/MOL
REMARK 923 INTER-LIGAND FREE ENERGY PREDICTED BY IDOCK:   -4.77 KCAL/MOL
REMARK 924 INTRA-LIGAND FREE ENERGY PREDICTED BY IDOCK:    6.31 KCAL/MOL
REMARK 927      BINDING AFFINITY PREDICTED BY RF-SCORE:    0.00 PKD
ROOT
HETATM    1  C   UNL     1      -8.965  11.258  68.534  1.00  0.00    -0.166 C  
HETATM    2  C   UNL     1      -7.621  11.136  68.984  1.00  0.00    -0.119 C  
HETATM    3  C   UNL     1      -7.734  10.241  67.756  1.00  0.00    -0.090 C  
HETATM    4  C   UNL     1      -9.525  10.605  66.792  1.00  0.00    -0.162 C  
HETATM    5  C   UNL     1     -11.406   6.625  68.188  1.00  0.00    -0.079 C  
HETATM    6  C   UNL     1      -8.352  11.291  66.760  1.00  0.00    -0.156 C  
HETATM    7  C   UNL     1     -10.124   6.869  69.022  1.00  0.00    -0.175 C  
HETATM    8  C   UNL     1      -9.120   5.486  68.886  1.00  0.00    -0.133 C  
HETATM    9  C   UNL     1      -7.914  12.644  66.232  1.00  0.00     0.835 C  
HETATM   10  C   UNL     1      -8.349   9.666  65.756  1.00  0.00    -0.132 C  
HETATM   11  C   UNL     1      -8.360   5.026  70.253  1.00  0.00    -0.092 C  
HETATM   12  C   UNL     1      -9.594   4.913  71.178  1.00  0.00    -0.170 C  
HETATM   13  C   UNL     1      -9.822   6.356  71.676  1.00  0.00    -0.184 C  
HETATM   14  C   UNL     1      -9.225   8.299  66.644  1.00  0.00    -0.224 C  
HETATM   15  C   UNL     1     -10.628   7.080  70.548  1.00  0.00    -0.245 C  
HETATM   16  C   UNL     1     -11.028   8.515  70.930  1.00  0.00    -0.292 C  
HETATM   17  C   UNL     1     -10.019   9.601  70.562  1.00  0.00    -0.318 C  
HETATM   18  C   UNL     1      -9.879   9.701  69.042  1.00  0.00    -0.183 C  
HETATM   19  C   UNL     1      -9.419   8.199  68.381  1.00  0.00    -0.146 C  
ENDROOT
BRANCH   3  20
HETATM   20  N   UNL     1      -6.285   9.758  67.248  1.00  0.00    -0.066 NA 
HETATM   21  C   UNL     1      -7.161   5.846  66.569  1.00  0.00    -0.074 C  
HETATM   22  C   UNL     1      -5.383   8.812  67.915  1.00  0.00    -0.035 C  
HETATM   23  C   UNL     1      -5.322   6.405  65.004  1.00  0.00    -0.021 C  
HETATM   24  C   UNL     1      -6.228   9.448  65.814  1.00  0.00    -0.060 C  
HETATM   25  C   UNL     1      -5.323   7.312  67.438  1.00  0.00    -0.021 C  
HETATM   26  N   UNL     1      -6.167   6.939  66.155  1.00  0.00    -0.041 N  
HETATM   27  C   UNL     1      -6.936   8.124  65.578  1.00  0.00    -0.063 C  
ENDBRANCH   3  20
BRANCH   4  28
HETATM   28  O   UNL     1      -9.969  11.449  65.583  1.00  0.00    -0.219 OA 
BRANCH  28  29
HETATM   29  C   UNL     1     -11.184  12.049  65.568  1.00  0.00    -0.321 C  
HETATM   30  C   UNL     1     -11.397  12.901  64.347  1.00  0.00    -0.402 C  
HETATM   31  O   UNL     1     -12.063  11.863  66.418  1.00  0.00    -0.552 OA 
ENDBRANCH  28  29
ENDBRANCH   4  28
BRANCH  12  32
HETATM   32  O   UNL     1      -9.544   3.799  72.070  1.00  0.00    -0.129 OA 
BRANCH  32  33
HETATM   33  C   UNL     1     -10.367   3.956  73.146  1.00  0.00    -0.168 C  
HETATM   34  O   UNL     1     -10.065   4.712  74.051  1.00  0.00    -0.153 OA 
HETATM   35  C   UNL     1     -11.588   3.067  73.225  1.00  0.00    -0.004 C  
ENDBRANCH  32  33
ENDBRANCH  12  32
BRANCH  11  36
HETATM   36  N   UNL     1      -7.254   3.987  70.400  1.00  0.00    -0.041 NA 
HETATM   37  C   UNL     1      -7.601   1.775  71.885  1.00  0.00    -0.040 C  
HETATM   38  C   UNL     1      -7.519   2.533  70.495  1.00  0.00    -0.036 C  
HETATM   39  N   UNL     1      -6.671   2.282  73.015  1.00  0.00    -0.021 N  
HETATM   40  C   UNL     1      -5.360   1.493  73.031  1.00  0.00     0.000 C  
HETATM   41  C   UNL     1      -6.449   3.800  72.889  1.00  0.00    -0.024 C  
HETATM   42  C   UNL     1      -7.332   2.013  74.391  1.00  0.00    -0.032 C  
HETATM   43  C   UNL     1      -6.205   4.278  71.428  1.00  0.00    -0.018 C  
ENDBRANCH  11  36
TORSDOF 6
ENDMDL
MODEL       79
REMARK 921   NORMALIZED FREE ENERGY PREDICTED BY IDOCK:    2.43 KCAL/MOL
REMARK 922        TOTAL FREE ENERGY PREDICTED BY IDOCK:    1.55 KCAL/MOL
REMARK 923 INTER-LIGAND FREE ENERGY PREDICTED BY IDOCK:    0.72 KCAL/MOL
REMARK 924 INTRA-LIGAND FREE ENERGY PREDICTED BY IDOCK:    0.83 KCAL/MOL
REMARK 927      BINDING AFFINITY PREDICTED BY RF-SCORE:    0.00 PKD
ROOT
HETATM    1  C   UNL     1     -11.105  11.026  66.622  1.00  0.00    -0.201 C  
HETATM    2  C   UNL     1     -11.852  12.080  67.215  1.00  0.00    -0.257 C  
HETATM    3  C   UNL     1     -10.970  12.735  66.161  1.00  0.00    -0.283 C  
HETATM    4  C   UNL     1     -10.103  11.281  64.977  1.00  0.00    -0.279 C  
HETATM    5  C   UNL     1      -5.925  11.840  66.868  1.00  0.00    -0.140 C  
HETATM    6  C   UNL     1     -11.349  11.819  64.938  1.00  0.00    -0.299 C  
HETATM    7  C   UNL     1      -6.961  12.562  67.766  1.00  0.00    -0.121 C  
HETATM    8  C   UNL     1      -6.452  14.186  67.976  1.00  0.00    -0.154 C  
HETATM    9  C   UNL     1     -12.643  11.480  64.223  1.00  0.00     0.322 C  
HETATM   10  C   UNL     1      -9.975  12.950  64.244  1.00  0.00    -0.135 C  
HETATM   11  C   UNL     1      -6.659  14.804  69.471  1.00  0.00    -0.153 C  
HETATM   12  C   UNL     1      -5.906  13.720  70.276  1.00  0.00    -0.152 C  
HETATM   13  C   UNL     1      -6.958  12.611  70.486  1.00  0.00     1.873 C  
HETATM   14  C   UNL     1      -8.436  12.883  65.271  1.00  0.00     2.377 C  
HETATM   15  C   UNL     1      -6.954  11.759  69.175  1.00  0.00    -0.091 C  
HETATM   16  C   UNL     1      -7.887  10.538  69.254  1.00  0.00    -0.144 C  
HETATM   17  C   UNL     1      -9.325  10.777  68.800  1.00  0.00    -0.186 C  
HETATM   18  C   UNL     1      -9.361  11.110  67.306  1.00  0.00    -0.170 C  
HETATM   19  C   UNL     1      -8.387  12.468  66.971  1.00  0.00    -0.144 C  
ENDROOT
BRANCH   3  20
HETATM   20  N   UNL     1     -11.414  14.259  65.890  1.00  0.00    -0.329 NA 
HETATM   21  C   UNL     1     -11.030  15.678  69.680  1.00  0.00    -0.288 C  
HETATM   22  C   UNL     1     -12.608  14.939  66.405  1.00  0.00     0.572 C  
HETATM   23  C   UNL     1     -10.640  17.622  68.192  1.00  0.00    -0.356 C  
HETATM   24  C   UNL     1     -10.313  15.227  65.980  1.00  0.00    -0.312 C  
HETATM   25  C   UNL     1     -12.496  15.885  67.658  1.00  0.00     1.605 C  
HETATM   26  N   UNL     1     -11.044  16.152  68.221  1.00  0.00    -0.345 N  
HETATM   27  C   UNL     1      -9.956  15.416  67.445  1.00  0.00    -0.229 C  
ENDBRANCH   3  20
BRANCH   4  28
HETATM   28  O   UNL     1     -10.404  10.661  63.600  1.00  0.00    -0.268 OA 
BRANCH  28  29
HETATM   29  C   UNL     1      -9.405  10.158  62.835  1.00  0.00    -0.292 C  
HETATM   30  C   UNL     1      -8.418  11.208  62.404  1.00  0.00    -0.282 C  
HETATM   31  O   UNL     1      -9.263   8.958  62.577  1.00  0.00     0.023 OA 
ENDBRANCH  28  29
ENDBRANCH   4  28
BRANCH  12  32
HETATM   32  O   UNL     1      -5.126  14.241  71.353  1.00  0.00    -0.119 OA 
BRANCH  32  33
HETATM   33  C   UNL     1      -5.489  13.721  72.559  1.00  0.00    -0.082 C  
HETATM   34  O   UNL     1      -5.277  12.550  72.818  1.00  0.00    -0.355 OA 
HETATM   35  C   UNL     1      -6.270  14.615  73.497  1.00  0.00     0.911 C  
ENDBRANCH  32  33
ENDBRANCH  12  32
BRANCH  11  36
HETATM   36  N   UNL     1      -6.510  16.257  69.907  1.00  0.00    -0.153 NA 
HETATM   37  C   UNL     1      -7.564  18.265  68.466  1.00  0.00    -0.300 C  
HETATM   38  C   UNL     1      -7.567  17.274  69.704  1.00  0.00     0.566 C  
HETATM   39  N   UNL     1      -6.183  18.738  67.951  1.00  0.00    -0.198 N  
HETATM   40  C   UNL     1      -5.789  20.067  68.601  1.00  0.00    -0.250 C  
HETATM   41  C   UNL     1      -5.126  17.638  68.158  1.00  0.00    -0.137 C  
HETATM   42  C   UNL     1      -6.269  19.031  66.431  1.00  0.00    -0.179 C  
HETATM   43  C   UNL     1      -5.223  16.930  69.541  1.00  0.00    -0.144 C  
ENDBRANCH  11  36
TORSDOF 6
ENDMDL
MODEL       80
REMARK 921   NORMALIZED FREE ENERGY PREDICTED BY IDOCK:    2.51 KCAL/MOL
REMARK 922        TOTAL FREE ENERGY PREDICTED BY IDOCK:    1.65 KCAL/MOL
REMARK 923 INTER-LIGAND FREE ENERGY PREDICTED BY IDOCK:   -1.14 KCAL/MOL
REMARK 924 INTRA-LIGAND FREE ENERGY PREDICTED BY IDOCK:    2.79 KCAL/MOL
REMARK 927      BINDING AFFINITY PREDICTED BY RF-SCORE:    0.00 PKD
ROOT
HETATM    1  C   UNL     1      -9.320   6.796  68.353  1.00  0.00    -0.124 C  
HETATM    2  C   UNL     1      -8.047   7.162  67.836  1.00  0.00    -0.119 C  
HETATM    3  C   UNL     1      -8.142   7.810  69.210  1.00  0.00    -0.127 C  
HETATM    4  C   UNL     1      -9.781   7.062  70.221  1.00  0.00    -0.175 C  
HETATM    5  C   UNL     1     -12.218  10.954  69.716  1.00  0.00    -0.381 C  
HETATM    6  C   UNL     1      -8.542   6.535  70.041  1.00  0.00    -0.140 C  
HETATM    7  C   UNL     1     -11.001  11.020  68.760  1.00  0.00    -0.270 C  
HETATM    8  C   UNL     1     -10.149  12.475  69.072  1.00  0.00     0.153 C  
HETATM    9  C   UNL     1      -7.908   5.178  70.281  1.00  0.00    -0.079 C  
HETATM   10  C   UNL     1      -8.624   7.950  71.322  1.00  0.00    -0.138 C  
HETATM   11  C   UNL     1      -9.578  13.256  67.760  1.00  0.00    -0.214 C  
HETATM   12  C   UNL     1     -10.900  13.369  66.964  1.00  0.00    -0.273 C  
HETATM   13  C   UNL     1     -11.011  12.017  66.229  1.00  0.00    -0.340 C  
HETATM   14  C   UNL     1      -9.728   9.328  70.765  1.00  0.00    -0.348 C  
HETATM   15  C   UNL     1     -11.621  11.013  67.262  1.00  0.00    -0.021 C  
HETATM   16  C   UNL     1     -11.894   9.626  66.656  1.00  0.00     3.889 C  
HETATM   17  C   UNL     1     -10.740   8.630  66.744  1.00  0.00    -0.086 C  
HETATM   18  C   UNL     1     -10.446   8.288  68.206  1.00  0.00    -0.211 C  
HETATM   19  C   UNL     1     -10.095   9.700  69.095  1.00  0.00    -0.196 C  
ENDROOT
BRANCH   3  20
HETATM   20  N   UNL     1      -6.714   8.378  69.690  1.00  0.00    -0.037 NA 
HETATM   21  C   UNL     1      -6.644  11.782  67.468  1.00  0.00    -0.097 C  
HETATM   22  C   UNL     1      -5.506   8.542  68.873  1.00  0.00    -0.039 C  
HETATM   23  C   UNL     1      -5.276  12.264  69.479  1.00  0.00    -0.068 C  
HETATM   24  C   UNL     1      -6.801   9.567  70.547  1.00  0.00    -0.112 C  
HETATM   25  C   UNL     1      -5.136   9.957  68.291  1.00  0.00    -0.036 C  
HETATM   26  N   UNL     1      -6.042  11.171  68.740  1.00  0.00    -0.043 N  
HETATM   27  C   UNL     1      -7.171  10.760  69.681  1.00  0.00    -0.125 C  
ENDBRANCH   3  20
BRANCH   4  28
HETATM   28  O   UNL     1     -10.012   5.974  71.286  1.00  0.00    -0.179 OA 
BRANCH  28  29
HETATM   29  C   UNL     1     -11.266   5.555  71.585  1.00  0.00    -0.065 C  
HETATM   30  C   UNL     1     -12.290   6.650  71.456  1.00  0.00    -0.365 C  
HETATM   31  O   UNL     1     -11.564   4.388  71.860  1.00  0.00     0.930 OA 
ENDBRANCH  28  29
ENDBRANCH   4  28
BRANCH  12  32
HETATM   32  O   UNL     1     -11.059  14.617  66.288  1.00  0.00    -0.325 OA 
BRANCH  32  33
HETATM   33  C   UNL     1     -12.164  14.641  65.491  1.00  0.00    -0.199 C  
HETATM   34  O   UNL     1     -13.276  14.742  65.977  1.00  0.00     0.471 OA 
HETATM   35  C   UNL     1     -11.960  14.410  64.010  1.00  0.00    -0.288 C  
ENDBRANCH  32  33
ENDBRANCH  12  32
BRANCH  11  36
HETATM   36  N   UNL     1      -8.614  14.436  67.723  1.00  0.00    -0.161 NA 
HETATM   37  C   UNL     1      -9.455  16.945  68.184  1.00  0.00    -0.251 C  
HETATM   38  C   UNL     1      -8.733  15.605  68.624  1.00  0.00    -0.193 C  
HETATM   39  N   UNL     1      -9.321  17.356  66.697  1.00  0.00    -0.256 N  
HETATM   40  C   UNL     1      -8.141  18.312  66.504  1.00  0.00    -0.269 C  
HETATM   41  C   UNL     1      -9.229  16.109  65.800  1.00  0.00    -0.148 C  
HETATM   42  C   UNL     1     -10.576  18.158  66.265  1.00  0.00    -0.274 C  
HETATM   43  C   UNL     1      -8.303  14.996  66.370  1.00  0.00     0.189 C  
ENDBRANCH  11  36
TORSDOF 6
ENDMDL
MODEL       81
REMARK 921   NORMALIZED FREE ENERGY PREDICTED BY IDOCK:    3.11 KCAL/MOL
REMARK 922        TOTAL FREE ENERGY PREDICTED BY IDOCK:    2.47 KCAL/MOL
REMARK 923 INTER-LIGAND FREE ENERGY PREDICTED BY IDOCK:   -4.27 KCAL/MOL
REMARK 924 INTRA-LIGAND FREE ENERGY PREDICTED BY IDOCK:    6.75 KCAL/MOL
REMARK 927      BINDING AFFINITY PREDICTED BY RF-SCORE:    0.00 PKD
ROOT
HETATM    1  C   UNL     1      -9.354   5.098  71.081  1.00  0.00    -0.194 C  
HETATM    2  C   UNL     1     -10.495   5.058  70.233  1.00  0.00    -0.243 C  
HETATM    3  C   UNL     1      -9.291   4.848  69.324  1.00  0.00    -0.128 C  
HETATM    4  C   UNL     1      -7.603   4.520  70.469  1.00  0.00    -0.053 C  
HETATM    5  C   UNL     1      -5.842   8.695  69.571  1.00  0.00    -0.030 C  
HETATM    6  C   UNL     1      -8.605   3.673  70.115  1.00  0.00    -0.105 C  
HETATM    7  C   UNL     1      -7.327   8.694  69.130  1.00  0.00    -0.076 C  
HETATM    8  C   UNL     1      -7.403   9.195  67.492  1.00  0.00    -0.084 C  
HETATM    9  C   UNL     1      -9.035   2.282  70.539  1.00  0.00    -0.153 C  
HETATM   10  C   UNL     1      -7.361   4.060  68.717  1.00  0.00    -0.055 C  
HETATM   11  C   UNL     1      -8.640  10.188  67.113  1.00  0.00    -0.125 C  
HETATM   12  C   UNL     1      -8.390  11.284  68.175  1.00  0.00    -0.143 C  
HETATM   13  C   UNL     1      -9.087  10.744  69.442  1.00  0.00     0.018 C  
HETATM   14  C   UNL     1      -6.873   5.845  68.697  1.00  0.00    -0.066 C  
HETATM   15  C   UNL     1      -8.073   9.754  70.104  1.00  0.00    -0.202 C  
HETATM   16  C   UNL     1      -8.576   9.194  71.445  1.00  0.00    -0.063 C  
HETATM   17  C   UNL     1      -9.393   7.907  71.357  1.00  0.00    -0.174 C  
HETATM   18  C   UNL     1      -8.522   6.761  70.839  1.00  0.00    -0.136 C  
HETATM   19  C   UNL     1      -7.851   7.156  69.322  1.00  0.00    -0.117 C  
ENDROOT
BRANCH   3  20
HETATM   20  N   UNL     1      -9.741   4.360  67.857  1.00  0.00    -0.153 NA 
HETATM   21  C   UNL     1      -6.049   3.794  66.253  1.00  0.00    -0.028 C  
HETATM   22  C   UNL     1      -9.521   5.058  66.585  1.00  0.00    -0.146 C  
HETATM   23  C   UNL     1      -7.548   2.220  65.061  1.00  0.00    -0.068 C  
HETATM   24  C   UNL     1      -9.493   2.936  67.599  1.00  0.00    -0.119 C  
HETATM   25  C   UNL     1      -8.333   4.626  65.646  1.00  0.00    -0.116 C  
HETATM   26  N   UNL     1      -7.508   3.352  66.082  1.00  0.00    -0.076 N  
HETATM   27  C   UNL     1      -8.001   2.737  67.389  1.00  0.00    -0.073 C  
ENDBRANCH   3  20
BRANCH   4  28
HETATM   28  O   UNL     1      -6.817   3.281  70.938  1.00  0.00    -0.031 OA 
BRANCH  28  29
HETATM   29  C   UNL     1      -5.893   3.381  71.924  1.00  0.00    -0.009 C  
HETATM   30  C   UNL     1      -5.489   4.804  72.198  1.00  0.00    -0.004 C  
HETATM   31  O   UNL     1      -5.475   2.425  72.587  1.00  0.00     0.000 OA 
ENDBRANCH  28  29
ENDBRANCH   4  28
BRANCH  12  32
HETATM   32  O   UNL     1      -8.609  12.611  67.694  1.00  0.00    -0.158 OA 
BRANCH  32  33
HETATM   33  C   UNL     1      -7.480  13.372  67.732  1.00  0.00    -0.160 C  
HETATM   34  O   UNL     1      -7.510  14.542  67.397  1.00  0.00    -0.183 OA 
HETATM   35  C   UNL     1      -6.182  12.677  68.080  1.00  0.00    -0.094 C  
ENDBRANCH  32  33
ENDBRANCH  12  32
BRANCH  11  36
HETATM   36  N   UNL     1      -9.094  10.622  65.725  1.00  0.00    -0.179 NA 
HETATM   37  C   UNL     1      -9.884  13.143  65.236  1.00  0.00    -0.076 C  
HETATM   38  C   UNL     1      -8.822  11.967  65.170  1.00  0.00     0.627 C  
HETATM   39  N   UNL     1     -11.376  12.746  65.119  1.00  0.00    -0.302 N  
HETATM   40  C   UNL     1     -11.848  12.839  63.666  1.00  0.00    -0.532 C  
HETATM   41  C   UNL     1     -11.612  11.355  65.734  1.00  0.00     0.252 C  
HETATM   42  C   UNL     1     -12.246  13.763  65.901  1.00  0.00    -0.466 C  
HETATM   43  C   UNL     1     -10.515  10.314  65.366  1.00  0.00    -0.055 C  
ENDBRANCH  11  36
TORSDOF 6
ENDMDL
MODEL       82
REMARK 921   NORMALIZED FREE ENERGY PREDICTED BY IDOCK:    3.12 KCAL/MOL
REMARK 922        TOTAL FREE ENERGY PREDICTED BY IDOCK:    2.49 KCAL/MOL
REMARK 923 INTER-LIGAND FREE ENERGY PREDICTED BY IDOCK:   -4.26 KCAL/MOL
REMARK 924 INTRA-LIGAND FREE ENERGY PREDICTED BY IDOCK:    6.75 KCAL/MOL
REMARK 927      BINDING AFFINITY PREDICTED BY RF-SCORE:    0.00 PKD
ROOT
HETATM    1  C   UNL     1      -7.552   7.926  67.970  1.00  0.00    -0.113 C  
HETATM    2  C   UNL     1      -6.658   8.583  67.080  1.00  0.00    -0.058 C  
HETATM    3  C   UNL     1      -6.703   9.442  68.337  1.00  0.00    -0.058 C  
HETATM    4  C   UNL     1      -7.676   8.418  69.845  1.00  0.00    -0.092 C  
HETATM    5  C   UNL     1     -11.470  11.037  69.556  1.00  0.00    -0.370 C  
HETATM    6  C   UNL     1      -6.397   8.319  69.397  1.00  0.00    -0.038 C  
HETATM    7  C   UNL     1     -10.603  11.305  68.301  1.00  0.00    -0.228 C  
HETATM    8  C   UNL     1     -10.332  12.994  68.183  1.00  0.00    -0.244 C  
HETATM    9  C   UNL     1      -5.255   7.346  69.617  1.00  0.00    -0.015 C  
HETATM   10  C   UNL     1      -6.746   9.864  70.466  1.00  0.00    -0.124 C  
HETATM   11  C   UNL     1     -10.395  13.618  66.679  1.00  0.00    -0.275 C  
HETATM   12  C   UNL     1     -11.793  13.099  66.271  1.00  0.00    -0.401 C  
HETATM   13  C   UNL     1     -11.528  11.664  65.768  1.00  0.00    -0.175 C  
HETATM   14  C   UNL     1      -8.385  10.626  70.069  1.00  0.00     0.549 C  
HETATM   15  C   UNL     1     -11.473  10.762  67.044  1.00  0.00     0.134 C  
HETATM   16  C   UNL     1     -11.311   9.269  66.713  1.00  0.00     1.372 C  
HETATM   17  C   UNL     1      -9.872   8.771  66.601  1.00  0.00    -0.335 C  
HETATM   18  C   UNL     1      -9.169   8.875  67.956  1.00  0.00    -0.147 C  
HETATM   19  C   UNL     1      -9.210  10.479  68.532  1.00  0.00    -0.168 C  
ENDROOT
BRANCH   3  20
HETATM   20  N   UNL     1      -5.537  10.552  68.331  1.00  0.00    -0.037 NA 
HETATM   21  C   UNL     1      -7.743  13.745  69.543  1.00  0.00     0.513 C  
HETATM   22  C   UNL     1      -5.436  11.725  67.454  1.00  0.00    -0.094 C  
HETATM   23  C   UNL     1      -5.430  14.195  70.313  1.00  0.00    -0.113 C  
HETATM   24  C   UNL     1      -5.128  10.996  69.669  1.00  0.00    -0.041 C  
HETATM   25  C   UNL     1      -5.879  13.141  67.981  1.00  0.00    -0.116 C  
HETATM   26  N   UNL     1      -6.296  13.237  69.502  1.00  0.00    -0.113 N  
HETATM   27  C   UNL     1      -6.214  11.899  70.231  1.00  0.00    -0.026 C  
ENDBRANCH   3  20
BRANCH   4  28
HETATM   28  O   UNL     1      -7.241   7.574  71.058  1.00  0.00    -0.064 OA 
BRANCH  28  29
HETATM   29  C   UNL     1      -8.076   7.395  72.109  1.00  0.00    -0.097 C  
HETATM   30  C   UNL     1      -8.853   6.110  72.021  1.00  0.00    -0.139 C  
HETATM   31  O   UNL     1      -8.146   8.155  73.081  1.00  0.00    -0.161 OA 
ENDBRANCH  28  29
ENDBRANCH   4  28
BRANCH  12  32
HETATM   32  O   UNL     1     -12.559  14.039  65.516  1.00  0.00    -0.489 OA 
BRANCH  32  33
HETATM   33  C   UNL     1     -12.186  14.084  64.206  1.00  0.00    -0.418 C  
HETATM   34  O   UNL     1     -12.400  15.077  63.535  1.00  0.00    -0.415 OA 
HETATM   35  C   UNL     1     -11.621  12.819  63.599  1.00  0.00    -0.572 C  
ENDBRANCH  32  33
ENDBRANCH  12  32
BRANCH  11  36
HETATM   36  N   UNL     1      -9.990  15.018  66.233  1.00  0.00    -0.265 NA 
HETATM   37  C   UNL     1      -7.636  16.091  66.959  1.00  0.00    -0.230 C  
HETATM   38  C   UNL     1      -8.594  15.390  65.908  1.00  0.00     0.503 C  
HETATM   39  N   UNL     1      -8.294  17.077  67.957  1.00  0.00    -0.206 N  
HETATM   40  C   UNL     1      -8.224  18.511  67.426  1.00  0.00    -0.251 C  
HETATM   41  C   UNL     1      -9.731  16.633  68.283  1.00  0.00    -0.244 C  
HETATM   42  C   UNL     1      -7.489  17.088  69.282  1.00  0.00    -0.092 C  
HETATM   43  C   UNL     1     -10.536  16.155  67.040  1.00  0.00    -0.306 C  
ENDBRANCH  11  36
TORSDOF 6
ENDMDL
MODEL       83
REMARK 921   NORMALIZED FREE ENERGY PREDICTED BY IDOCK:    3.45 KCAL/MOL
REMARK 922        TOTAL FREE ENERGY PREDICTED BY IDOCK:    2.93 KCAL/MOL
REMARK 923 INTER-LIGAND FREE ENERGY PREDICTED BY IDOCK:    3.69 KCAL/MOL
REMARK 924 INTRA-LIGAND FREE ENERGY PREDICTED BY IDOCK:   -0.76 KCAL/MOL
REMARK 927      BINDING AFFINITY PREDICTED BY RF-SCORE:    0.00 PKD
ROOT
HETATM    1  C   UNL     1     -10.004   9.790  65.642  1.00  0.00    -0.352 C  
HETATM    2  C   UNL     1     -10.868  10.916  65.558  1.00  0.00    -0.106 C  
HETATM    3  C   UNL     1      -9.652  11.257  64.707  1.00  0.00    -0.235 C  
HETATM    4  C   UNL     1      -8.489   9.570  64.446  1.00  0.00    -0.181 C  
HETATM    5  C   UNL     1      -5.197  11.055  67.325  1.00  0.00    -0.043 C  
HETATM    6  C   UNL     1      -9.625   9.963  63.812  1.00  0.00    -0.065 C  
HETATM    7  C   UNL     1      -6.448  11.946  67.525  1.00  0.00    -0.111 C  
HETATM    8  C   UNL     1      -5.979  13.584  67.335  1.00  0.00     0.118 C  
HETATM    9  C   UNL     1     -10.607   9.305  62.862  1.00  0.00     5.078 C  
HETATM   10  C   UNL     1      -8.052  10.910  63.282  1.00  0.00     0.146 C  
HETATM   11  C   UNL     1      -6.662  14.640  68.373  1.00  0.00    -0.100 C  
HETATM   12  C   UNL     1      -6.274  13.945  69.698  1.00  0.00    -0.124 C  
HETATM   13  C   UNL     1      -7.377  12.885  69.902  1.00  0.00     1.064 C  
HETATM   14  C   UNL     1      -6.964  11.309  64.726  1.00  0.00     1.223 C  
HETATM   15  C   UNL     1      -6.957  11.653  69.036  1.00  0.00    -0.111 C  
HETATM   16  C   UNL     1      -7.908  10.455  69.202  1.00  0.00    -0.134 C  
HETATM   17  C   UNL     1      -9.092  10.415  68.239  1.00  0.00    -0.145 C  
HETATM   18  C   UNL     1      -8.599  10.234  66.802  1.00  0.00    -0.129 C  
HETATM   19  C   UNL     1      -7.517  11.481  66.377  1.00  0.00     0.047 C  
ENDROOT
BRANCH   3  20
HETATM   20  N   UNL     1      -9.916  12.567  63.807  1.00  0.00    -0.316 NA 
HETATM   21  C   UNL     1     -13.117  14.048  65.829  1.00  0.00    -0.077 C  
HETATM   22  C   UNL     1     -11.087  12.842  62.967  1.00  0.00     0.746 C  
HETATM   23  C   UNL     1     -11.998  16.012  64.810  1.00  0.00     0.287 C  
HETATM   24  C   UNL     1      -9.577  13.829  64.477  1.00  0.00     1.030 C  
HETATM   25  C   UNL     1     -12.234  13.782  63.498  1.00  0.00    -0.179 C  
HETATM   26  N   UNL     1     -11.987  14.489  64.889  1.00  0.00    -0.410 N  
HETATM   27  C   UNL     1     -10.644  14.125  65.517  1.00  0.00    -0.326 C  
ENDBRANCH   3  20
BRANCH   4  28
HETATM   28  O   UNL     1      -8.324   8.510  63.341  1.00  0.00    -0.163 OA 
BRANCH  28  29
HETATM   29  C   UNL     1      -7.428   7.503  63.478  1.00  0.00    -0.101 C  
HETATM   30  C   UNL     1      -6.507   7.701  64.651  1.00  0.00    -0.044 C  
HETATM   31  O   UNL     1      -7.408   6.487  62.774  1.00  0.00    -0.052 OA 
ENDBRANCH  28  29
ENDBRANCH   4  28
BRANCH  12  32
HETATM   32  O   UNL     1      -5.892  14.852  70.733  1.00  0.00    -0.147 OA 
BRANCH  32  33
HETATM   33  C   UNL     1      -5.523  14.212  71.878  1.00  0.00    -0.217 C  
HETATM   34  O   UNL     1      -5.397  14.829  72.920  1.00  0.00    -0.133 OA 
HETATM   35  C   UNL     1      -5.157  12.748  71.771  1.00  0.00    -0.087 C  
ENDBRANCH  32  33
ENDBRANCH  12  32
BRANCH  11  36
HETATM   36  N   UNL     1      -6.615  16.162  68.318  1.00  0.00    -0.120 NA 
HETATM   37  C   UNL     1      -8.860  17.635  68.412  1.00  0.00    -0.281 C  
HETATM   38  C   UNL     1      -7.552  17.027  69.070  1.00  0.00    -0.194 C  
HETATM   39  N   UNL     1      -8.775  18.018  66.914  1.00  0.00    -0.244 N  
HETATM   40  C   UNL     1      -8.401  19.493  66.753  1.00  0.00    -0.300 C  
HETATM   41  C   UNL     1      -7.812  17.075  66.171  1.00  0.00    -0.260 C  
HETATM   42  C   UNL     1     -10.175  17.874  66.262  1.00  0.00    -0.363 C  
HETATM   43  C   UNL     1      -6.503  16.774  66.956  1.00  0.00    -0.194 C  
ENDBRANCH  11  36
TORSDOF 6
ENDMDL
MODEL       84
REMARK 921   NORMALIZED FREE ENERGY PREDICTED BY IDOCK:    3.57 KCAL/MOL
REMARK 922        TOTAL FREE ENERGY PREDICTED BY IDOCK:    3.09 KCAL/MOL
REMARK 923 INTER-LIGAND FREE ENERGY PREDICTED BY IDOCK:   -5.76 KCAL/MOL
REMARK 924 INTRA-LIGAND FREE ENERGY PREDICTED BY IDOCK:    8.85 KCAL/MOL
REMARK 927      BINDING AFFINITY PREDICTED BY RF-SCORE:    0.00 PKD
ROOT
HETATM    1  C   UNL     1      -9.267  15.546  68.800  1.00  0.00    -0.210 C  
HETATM    2  C   UNL     1      -8.926  15.930  67.474  1.00  0.00    -0.201 C  
HETATM    3  C   UNL     1     -10.106  14.976  67.343  1.00  0.00    -0.228 C  
HETATM    4  C   UNL     1     -10.931  14.629  69.205  1.00  0.00    -0.262 C  
HETATM    5  C   UNL     1      -9.237  10.340  69.466  1.00  0.00    -0.191 C  
HETATM    6  C   UNL     1     -11.086  15.678  68.355  1.00  0.00    -0.326 C  
HETATM    7  C   UNL     1      -8.522  11.070  68.301  1.00  0.00    -0.138 C  
HETATM    8  C   UNL     1      -8.690  10.118  66.885  1.00  0.00    -0.135 C  
HETATM    9  C   UNL     1     -11.699  17.061  68.457  1.00  0.00     0.745 C  
HETATM   10  C   UNL     1     -12.026  14.095  67.843  1.00  0.00    -0.378 C  
HETATM   11  C   UNL     1      -7.374  10.041  65.925  1.00  0.00    -0.115 C  
HETATM   12  C   UNL     1      -6.347   9.564  66.977  1.00  0.00    -0.066 C  
HETATM   13  C   UNL     1      -5.885  10.865  67.667  1.00  0.00    -0.043 C  
HETATM   14  C   UNL     1     -11.018  12.568  68.121  1.00  0.00    -0.260 C  
HETATM   15  C   UNL     1      -6.968  11.189  68.748  1.00  0.00    -0.088 C  
HETATM   16  C   UNL     1      -6.609  12.415  69.603  1.00  0.00    -0.006 C  
HETATM   17  C   UNL     1      -7.098  13.758  69.068  1.00  0.00    -0.088 C  
HETATM   18  C   UNL     1      -8.628  13.804  69.072  1.00  0.00     0.261 C  
HETATM   19  C   UNL     1      -9.269  12.518  68.154  1.00  0.00    -0.209 C  
ENDROOT
BRANCH   3  20
HETATM   20  N   UNL     1     -10.715  14.997  65.852  1.00  0.00    -0.318 NA 
HETATM   21  C   UNL     1     -10.876  10.986  65.212  1.00  0.00    -0.102 C  
HETATM   22  C   UNL     1     -10.053  14.555  64.620  1.00  0.00     0.140 C  
HETATM   23  C   UNL     1     -12.682  11.961  63.822  1.00  0.00    -0.350 C  
HETATM   24  C   UNL     1     -12.106  14.534  65.769  1.00  0.00    -0.279 C  
HETATM   25  C   UNL     1     -10.372  13.133  64.022  1.00  0.00    -0.151 C  
HETATM   26  N   UNL     1     -11.509  12.300  64.736  1.00  0.00    -0.321 N  
HETATM   27  C   UNL     1     -12.121  13.023  65.932  1.00  0.00    -0.444 C  
ENDBRANCH   3  20
BRANCH   4  28
HETATM   28  O   UNL     1     -12.130  15.185  69.996  1.00  0.00    -0.308 OA 
BRANCH  28  29
HETATM   29  C   UNL     1     -12.248  14.952  71.325  1.00  0.00    -0.325 C  
HETATM   30  C   UNL     1     -12.961  13.663  71.628  1.00  0.00    -0.448 C  
HETATM   31  O   UNL     1     -11.761  15.671  72.205  1.00  0.00    -0.407 OA 
ENDBRANCH  28  29
ENDBRANCH   4  28
BRANCH  12  32
HETATM   32  O   UNL     1      -5.421   8.597  66.480  1.00  0.00    -0.034 OA 
BRANCH  32  33
HETATM   33  C   UNL     1      -5.253   7.548  67.334  1.00  0.00    -0.026 C  
HETATM   34  O   UNL     1      -5.188   6.409  66.910  1.00  0.00    -0.008 OA 
HETATM   35  C   UNL     1      -5.280   7.846  68.817  1.00  0.00    -0.026 C  
ENDBRANCH  32  33
ENDBRANCH  12  32
BRANCH  11  36
HETATM   36  N   UNL     1      -7.281   9.466  64.516  1.00  0.00    -0.101 NA 
HETATM   37  C   UNL     1      -8.115   6.971  63.966  1.00  0.00    -0.011 C  
HETATM   38  C   UNL     1      -8.295   8.546  63.950  1.00  0.00    -0.087 C  
HETATM   39  N   UNL     1      -6.672   6.430  63.808  1.00  0.00    -0.039 N  
HETATM   40  C   UNL     1      -6.368   6.124  62.340  1.00  0.00    -0.030 C  
HETATM   41  C   UNL     1      -5.660   7.405  64.436  1.00  0.00    -0.033 C  
HETATM   42  C   UNL     1      -6.544   5.074  64.548  1.00  0.00    -0.043 C  
HETATM   43  C   UNL     1      -5.953   8.901  64.118  1.00  0.00    -0.071 C  
ENDBRANCH  11  36
TORSDOF 6
ENDMDL
MODEL       85
REMARK 921   NORMALIZED FREE ENERGY PREDICTED BY IDOCK:    4.17 KCAL/MOL
REMARK 922        TOTAL FREE ENERGY PREDICTED BY IDOCK:    3.90 KCAL/MOL
REMARK 923 INTER-LIGAND FREE ENERGY PREDICTED BY IDOCK:   -1.89 KCAL/MOL
REMARK 924 INTRA-LIGAND FREE ENERGY PREDICTED BY IDOCK:    5.79 KCAL/MOL
REMARK 927      BINDING AFFINITY PREDICTED BY RF-SCORE:    0.00 PKD
ROOT
HETATM    1  C   UNL     1     -10.598  10.374  65.459  1.00  0.00    -0.088 C  
HETATM    2  C   UNL     1     -11.452   9.935  66.507  1.00  0.00     1.480 C  
HETATM    3  C   UNL     1     -10.397  10.812  67.168  1.00  0.00    -0.224 C  
HETATM    4  C   UNL     1      -9.312  11.808  65.718  1.00  0.00    -0.185 C  
HETATM    5  C   UNL     1      -5.561   9.183  66.328  1.00  0.00    -0.049 C  
HETATM    6  C   UNL     1     -10.536  12.079  66.244  1.00  0.00    -0.273 C  
HETATM    7  C   UNL     1      -6.751   8.495  67.042  1.00  0.00    -0.062 C  
HETATM    8  C   UNL     1      -6.305   8.203  68.672  1.00  0.00    -0.053 C  
HETATM    9  C   UNL     1     -11.672  13.018  65.888  1.00  0.00    -0.442 C  
HETATM   10  C   UNL     1      -9.067  12.514  67.386  1.00  0.00    -0.185 C  
HETATM   11  C   UNL     1      -6.789   6.776  69.294  1.00  0.00    -0.061 C  
HETATM   12  C   UNL     1      -6.188   5.840  68.220  1.00  0.00    -0.032 C  
HETATM   13  C   UNL     1      -7.250   5.822  67.101  1.00  0.00    -0.075 C  
HETATM   14  C   UNL     1      -7.744  11.221  67.339  1.00  0.00    -0.128 C  
HETATM   15  C   UNL     1      -6.996   7.105  66.244  1.00  0.00    -0.065 C  
HETATM   16  C   UNL     1      -7.916   7.192  65.014  1.00  0.00    -0.129 C  
HETATM   17  C   UNL     1      -9.248   7.905  65.237  1.00  0.00     0.375 C  
HETATM   18  C   UNL     1      -9.011   9.381  65.563  1.00  0.00    -0.248 C  
HETATM   19  C   UNL     1      -8.005   9.539  66.931  1.00  0.00    -0.109 C  
ENDROOT
BRANCH   3  20
HETATM   20  N   UNL     1     -10.798  11.169  68.686  1.00  0.00    -0.194 NA 
HETATM   21  C   UNL     1     -11.880   7.446  69.910  1.00  0.00     0.266 C  
HETATM   22  C   UNL     1     -12.133  11.095  69.290  1.00  0.00    -0.308 C  
HETATM   23  C   UNL     1     -11.090   8.619  71.946  1.00  0.00    -0.346 C  
HETATM   24  C   UNL     1      -9.858  10.651  69.689  1.00  0.00    -0.013 C  
HETATM   25  C   UNL     1     -12.531   9.852  70.171  1.00  0.00     0.141 C  
HETATM   26  N   UNL     1     -11.395   8.793  70.462  1.00  0.00    -0.253 N  
HETATM   27  C   UNL     1     -10.062   9.150  69.812  1.00  0.00    -0.199 C  
ENDBRANCH   3  20
BRANCH   4  28
HETATM   28  O   UNL     1      -9.349  13.214  65.091  1.00  0.00     0.278 OA 
BRANCH  28  29
HETATM   29  C   UNL     1      -9.094  14.312  65.842  1.00  0.00     0.261 C  
HETATM   30  C   UNL     1     -10.089  15.417  65.612  1.00  0.00    -0.406 C  
HETATM   31  O   UNL     1      -8.194  14.386  66.685  1.00  0.00     0.003 OA 
ENDBRANCH  28  29
ENDBRANCH   4  28
BRANCH  12  32
HETATM   32  O   UNL     1      -5.624   4.640  68.753  1.00  0.00    -0.011 OA 
BRANCH  32  33
HETATM   33  C   UNL     1      -5.451   3.679  67.804  1.00  0.00    -0.020 C  
HETATM   34  O   UNL     1      -5.377   2.504  68.118  1.00  0.00    -0.012 OA 
HETATM   35  C   UNL     1      -5.229   4.138  66.379  1.00  0.00    -0.009 C  
ENDBRANCH  32  33
ENDBRANCH  12  32
BRANCH  11  36
HETATM   36  N   UNL     1      -6.738   6.328  70.749  1.00  0.00    -0.059 NA 
HETATM   37  C   UNL     1      -6.354   3.751  71.407  1.00  0.00    -0.015 C  
HETATM   38  C   UNL     1      -5.850   5.244  71.230  1.00  0.00    -0.017 C  
HETATM   39  N   UNL     1      -7.822   3.557  71.859  1.00  0.00    -0.061 N  
HETATM   40  C   UNL     1      -7.907   3.422  73.381  1.00  0.00    -0.070 C  
HETATM   41  C   UNL     1      -8.708   4.691  71.312  1.00  0.00    -0.118 C  
HETATM   42  C   UNL     1      -8.365   2.219  71.295  1.00  0.00    -0.057 C  
HETATM   43  C   UNL     1      -8.057   6.101  71.420  1.00  0.00    -0.118 C  
ENDBRANCH  11  36
TORSDOF 6
ENDMDL
MODEL       86
REMARK 921   NORMALIZED FREE ENERGY PREDICTED BY IDOCK:    4.35 KCAL/MOL
REMARK 922        TOTAL FREE ENERGY PREDICTED BY IDOCK:    4.15 KCAL/MOL
REMARK 923 INTER-LIGAND FREE ENERGY PREDICTED BY IDOCK:    4.14 KCAL/MOL
REMARK 924 INTRA-LIGAND FREE ENERGY PREDICTED BY IDOCK:    0.01 KCAL/MOL
REMARK 927      BINDING AFFINITY PREDICTED BY RF-SCORE:    0.00 PKD
ROOT
HETATM    1  C   UNL     1      -9.681  13.720  69.201  1.00  0.00     0.263 C  
HETATM    2  C   UNL     1      -9.299  13.514  67.847  1.00  0.00    -0.215 C  
HETATM    3  C   UNL     1     -10.773  13.141  67.927  1.00  0.00    -0.235 C  
HETATM    4  C   UNL     1     -11.545  13.739  69.747  1.00  0.00    -0.257 C  
HETATM    5  C   UNL     1     -11.762   9.426  71.387  1.00  0.00    -0.448 C  
HETATM    6  C   UNL     1     -11.308  14.451  68.615  1.00  0.00    -0.298 C  
HETATM    7  C   UNL     1     -10.887   9.412  70.110  1.00  0.00    -0.287 C  
HETATM    8  C   UNL     1     -11.524   8.239  69.033  1.00  0.00     0.786 C  
HETATM    9  C   UNL     1     -11.286  15.926  68.259  1.00  0.00    -0.354 C  
HETATM   10  C   UNL     1     -12.849  13.325  68.534  1.00  0.00     1.485 C  
HETATM   11  C   UNL     1     -10.423   7.343  68.231  1.00  0.00    -0.189 C  
HETATM   12  C   UNL     1      -9.618   6.823  69.444  1.00  0.00    -0.146 C  
HETATM   13  C   UNL     1      -8.617   7.958  69.745  1.00  0.00    -0.133 C  
HETATM   14  C   UNL     1     -12.546  11.678  69.323  1.00  0.00     0.349 C  
HETATM   15  C   UNL     1      -9.397   9.006  70.605  1.00  0.00    -0.283 C  
HETATM   16  C   UNL     1      -8.508  10.168  71.078  1.00  0.00     1.673 C  
HETATM   17  C   UNL     1      -8.433  11.367  70.136  1.00  0.00     2.406 C  
HETATM   18  C   UNL     1      -9.803  12.039  70.022  1.00  0.00     2.383 C  
HETATM   19  C   UNL     1     -10.976  10.922  69.488  1.00  0.00    -0.306 C  
ENDROOT
BRANCH   3  20
HETATM   20  N   UNL     1     -11.413  12.966  66.460  1.00  0.00    -0.323 NA 
HETATM   21  C   UNL     1      -8.470  10.716  64.786  1.00  0.00    -0.100 C  
HETATM   22  C   UNL     1     -10.890  13.498  65.196  1.00  0.00    -0.330 C  
HETATM   23  C   UNL     1     -10.552  10.094  63.592  1.00  0.00     1.461 C  
HETATM   24  C   UNL     1     -11.889  11.606  66.174  1.00  0.00     0.278 C  
HETATM   25  C   UNL     1     -10.067  12.565  64.230  1.00  0.00    -0.271 C  
HETATM   26  N   UNL     1      -9.961  11.041  64.632  1.00  0.00    -0.275 N  
HETATM   27  C   UNL     1     -10.682  10.713  65.936  1.00  0.00    -0.035 C  
ENDBRANCH   3  20
BRANCH   4  28
HETATM   28  O   UNL     1     -12.353  14.949  70.253  1.00  0.00    -0.312 OA 
BRANCH  28  29
HETATM   29  C   UNL     1     -12.366  15.269  71.570  1.00  0.00    -0.352 C  
HETATM   30  C   UNL     1     -13.469  14.579  72.325  1.00  0.00    -0.518 C  
HETATM   31  O   UNL     1     -11.523  15.985  72.120  1.00  0.00    -0.388 OA 
ENDBRANCH  28  29
ENDBRANCH   4  28
BRANCH  12  32
HETATM   32  O   UNL     1      -9.209   5.460  69.321  1.00  0.00    -0.112 OA 
BRANCH  32  33
HETATM   33  C   UNL     1      -8.901   4.898  70.524  1.00  0.00    -0.115 C  
HETATM   34  O   UNL     1      -8.144   5.459  71.295  1.00  0.00    -0.110 OA 
HETATM   35  C   UNL     1      -9.431   3.508  70.799  1.00  0.00    -0.240 C  
ENDBRANCH  32  33
ENDBRANCH  12  32
BRANCH  11  36
HETATM   36  N   UNL     1     -10.667   6.390  67.067  1.00  0.00    -0.325 NA 
HETATM   37  C   UNL     1      -9.532   3.956  66.992  1.00  0.00    -0.200 C  
HETATM   38  C   UNL     1     -10.765   4.921  67.233  1.00  0.00     0.233 C  
HETATM   39  N   UNL     1      -8.534   4.359  65.878  1.00  0.00    -0.113 N  
HETATM   40  C   UNL     1      -8.903   3.686  64.554  1.00  0.00    -0.118 C  
HETATM   41  C   UNL     1      -8.446   5.891  65.764  1.00  0.00    -0.148 C  
HETATM   42  C   UNL     1      -7.121   3.828  66.231  1.00  0.00    -0.063 C  
HETATM   43  C   UNL     1      -9.827   6.605  65.847  1.00  0.00     0.421 C  
ENDBRANCH  11  36
TORSDOF 6
ENDMDL
MODEL       87
REMARK 921   NORMALIZED FREE ENERGY PREDICTED BY IDOCK:    4.42 KCAL/MOL
REMARK 922        TOTAL FREE ENERGY PREDICTED BY IDOCK:    4.24 KCAL/MOL
REMARK 923 INTER-LIGAND FREE ENERGY PREDICTED BY IDOCK:   -2.66 KCAL/MOL
REMARK 924 INTRA-LIGAND FREE ENERGY PREDICTED BY IDOCK:    6.90 KCAL/MOL
REMARK 927      BINDING AFFINITY PREDICTED BY RF-SCORE:    0.00 PKD
ROOT
HETATM    1  C   UNL     1      -5.442   5.676  69.192  1.00  0.00    -0.007 C  
HETATM    2  C   UNL     1      -5.413   6.701  70.177  1.00  0.00    -0.018 C  
HETATM    3  C   UNL     1      -6.864   6.246  70.090  1.00  0.00    -0.054 C  
HETATM    4  C   UNL     1      -6.985   4.517  68.966  1.00  0.00    -0.051 C  
HETATM    5  C   UNL     1      -8.866   6.675  65.341  1.00  0.00     0.065 C  
HETATM    6  C   UNL     1      -6.632   4.699  70.266  1.00  0.00    -0.036 C  
HETATM    7  C   UNL     1      -8.305   7.751  66.303  1.00  0.00    -0.131 C  
HETATM    8  C   UNL     1      -9.563   8.857  66.668  1.00  0.00    -0.281 C  
HETATM    9  C   UNL     1      -6.003   3.832  71.339  1.00  0.00    -0.014 C  
HETATM   10  C   UNL     1      -8.507   4.838  69.925  1.00  0.00    -0.086 C  
HETATM   11  C   UNL     1      -9.128  10.426  66.740  1.00  0.00    -0.143 C  
HETATM   12  C   UNL     1      -8.466  10.546  65.348  1.00  0.00    -0.170 C  
HETATM   13  C   UNL     1      -7.026  10.038  65.573  1.00  0.00    -0.124 C  
HETATM   14  C   UNL     1      -8.862   5.757  68.358  1.00  0.00    -0.109 C  
HETATM   15  C   UNL     1      -7.102   8.478  65.494  1.00  0.00    -0.082 C  
HETATM   16  C   UNL     1      -5.722   7.808  65.601  1.00  0.00    -0.037 C  
HETATM   17  C   UNL     1      -5.262   7.467  67.016  1.00  0.00    -0.022 C  
HETATM   18  C   UNL     1      -6.180   6.407  67.630  1.00  0.00    -0.032 C  
HETATM   19  C   UNL     1      -7.798   6.943  67.633  1.00  0.00    -0.112 C  
ENDROOT
BRANCH   3  20
HETATM   20  N   UNL     1      -7.736   6.833  71.310  1.00  0.00    -0.092 NA 
HETATM   21  C   UNL     1     -10.972   8.079  69.187  1.00  0.00     0.078 C  
HETATM   22  C   UNL     1      -8.107   8.235  71.539  1.00  0.00    -0.130 C  
HETATM   23  C   UNL     1     -11.820   7.546  71.454  1.00  0.00    -0.294 C  
HETATM   24  C   UNL     1      -8.921   6.030  71.637  1.00  0.00    -0.142 C  
HETATM   25  C   UNL     1      -9.539   8.747  71.132  1.00  0.00    -0.242 C  
HETATM   26  N   UNL     1     -10.559   7.662  70.605  1.00  0.00    -0.218 N  
HETATM   27  C   UNL     1      -9.969   6.255  70.560  1.00  0.00    -0.186 C  
ENDBRANCH   3  20
BRANCH   4  28
HETATM   28  O   UNL     1      -7.068   3.010  69.274  1.00  0.00    -0.044 OA 
BRANCH  28  29
HETATM   29  C   UNL     1      -7.959   2.221  68.625  1.00  0.00    -0.052 C  
HETATM   30  C   UNL     1      -9.227   2.014  69.406  1.00  0.00    -0.181 C  
HETATM   31  O   UNL     1      -7.793   1.776  67.484  1.00  0.00    -0.059 OA 
ENDBRANCH  28  29
ENDBRANCH   4  28
BRANCH  12  32
HETATM   32  O   UNL     1      -8.741  11.781  64.685  1.00  0.00     0.463 OA 
BRANCH  32  33
HETATM   33  C   UNL     1      -9.459  11.609  63.539  1.00  0.00    -0.172 C  
HETATM   34  O   UNL     1      -8.895  11.502  62.465  1.00  0.00    -0.319 OA 
HETATM   35  C   UNL     1     -10.966  11.686  63.643  1.00  0.00    -0.507 C  
ENDBRANCH  32  33
ENDBRANCH  12  32
BRANCH  11  36
HETATM   36  N   UNL     1      -9.956  11.601  67.246  1.00  0.00    -0.190 NA 
HETATM   37  C   UNL     1     -10.485  11.916  69.861  1.00  0.00     0.989 C  
HETATM   38  C   UNL     1      -9.694  12.278  68.536  1.00  0.00    -0.138 C  
HETATM   39  N   UNL     1     -11.970  11.507  69.700  1.00  0.00    -0.332 N  
HETATM   40  C   UNL     1     -12.887  12.720  69.872  1.00  0.00     0.633 C  
HETATM   41  C   UNL     1     -12.186  10.783  68.359  1.00  0.00     0.500 C  
HETATM   42  C   UNL     1     -12.364  10.527  70.836  1.00  0.00    -0.390 C  
HETATM   43  C   UNL     1     -11.444  11.448  67.163  1.00  0.00    -0.190 C  
ENDBRANCH  11  36
TORSDOF 6
ENDMDL
MODEL       88
REMARK 921   NORMALIZED FREE ENERGY PREDICTED BY IDOCK:    4.89 KCAL/MOL
REMARK 922        TOTAL FREE ENERGY PREDICTED BY IDOCK:    4.87 KCAL/MOL
REMARK 923 INTER-LIGAND FREE ENERGY PREDICTED BY IDOCK:   -0.39 KCAL/MOL
REMARK 924 INTRA-LIGAND FREE ENERGY PREDICTED BY IDOCK:    5.26 KCAL/MOL
REMARK 927      BINDING AFFINITY PREDICTED BY RF-SCORE:    0.00 PKD
ROOT
HETATM    1  C   UNL     1      -7.958  17.965  67.049  1.00  0.00    -0.234 C  
HETATM    2  C   UNL     1      -7.978  17.459  65.720  1.00  0.00     0.161 C  
HETATM    3  C   UNL     1      -9.186  16.849  66.419  1.00  0.00    -0.279 C  
HETATM    4  C   UNL     1      -9.482  17.781  68.238  1.00  0.00    -0.290 C  
HETATM    5  C   UNL     1      -7.953  14.156  70.660  1.00  0.00     2.560 C  
HETATM    6  C   UNL     1      -9.822  18.173  66.983  1.00  0.00    -0.324 C  
HETATM    7  C   UNL     1      -7.556  13.947  69.177  1.00  0.00     0.064 C  
HETATM    8  C   UNL     1      -8.143  12.417  68.673  1.00  0.00    -0.020 C  
HETATM    9  C   UNL     1     -10.328  19.460  66.360  1.00  0.00    -0.575 C  
HETATM   10  C   UNL     1     -10.929  16.796  67.711  1.00  0.00    -0.217 C  
HETATM   11  C   UNL     1      -7.145  11.558  67.711  1.00  0.00    -0.079 C  
HETATM   12  C   UNL     1      -5.888  11.569  68.612  1.00  0.00    -0.042 C  
HETATM   13  C   UNL     1      -5.204  12.913  68.284  1.00  0.00    -0.072 C  
HETATM   14  C   UNL     1      -9.944  15.532  68.638  1.00  0.00    -0.208 C  
HETATM   15  C   UNL     1      -5.936  13.993  69.147  1.00  0.00    -0.091 C  
HETATM   16  C   UNL     1      -5.307  15.390  69.013  1.00  0.00    -0.098 C  
HETATM   17  C   UNL     1      -5.871  16.261  67.893  1.00  0.00    -0.143 C  
HETATM   18  C   UNL     1      -7.338  16.597  68.171  1.00  0.00    -0.172 C  
HETATM   19  C   UNL     1      -8.256  15.171  68.348  1.00  0.00    -0.145 C  
ENDROOT
BRANCH   3  20
HETATM   20  N   UNL     1     -10.178  16.144  65.365  1.00  0.00    -0.538 NA 
HETATM   21  C   UNL     1     -10.864  12.693  67.403  1.00  0.00    -0.243 C  
HETATM   22  C   UNL     1      -9.925  14.923  64.591  1.00  0.00     0.443 C  
HETATM   23  C   UNL     1     -12.890  13.075  66.027  1.00  0.00     0.455 C  
HETATM   24  C   UNL     1     -11.573  16.068  65.817  1.00  0.00     0.558 C  
HETATM   25  C   UNL     1     -10.521  13.547  65.072  1.00  0.00    -0.376 C  
HETATM   26  N   UNL     1     -11.485  13.589  66.323  1.00  0.00    -0.316 N  
HETATM   27  C   UNL     1     -11.677  14.993  66.886  1.00  0.00    -0.172 C  
ENDBRANCH   3  20
BRANCH   4  28
HETATM   28  O   UNL     1     -10.396  18.906  68.760  1.00  0.00    -0.325 OA 
BRANCH  28  29
HETATM   29  C   UNL     1      -9.940  19.798  69.672  1.00  0.00     0.075 C  
HETATM   30  C   UNL     1      -8.459  19.683  69.908  1.00  0.00     0.806 C  
HETATM   31  O   UNL     1     -10.637  20.669  70.203  1.00  0.00     0.459 OA 
ENDBRANCH  28  29
ENDBRANCH   4  28
BRANCH  12  32
HETATM   32  O   UNL     1      -5.173  10.333  68.617  1.00  0.00    -0.039 OA 
BRANCH  32  33
HETATM   33  C   UNL     1      -5.544   9.520  69.645  1.00  0.00    -0.033 C  
HETATM   34  O   UNL     1      -5.573   8.311  69.500  1.00  0.00    -0.029 OA 
HETATM   35  C   UNL     1      -6.034  10.181  70.915  1.00  0.00    -0.070 C  
ENDBRANCH  32  33
ENDBRANCH  12  32
BRANCH  11  36
HETATM   36  N   UNL     1      -7.464  10.284  66.938  1.00  0.00    -0.099 NA 
HETATM   37  C   UNL     1      -6.739   9.989  64.368  1.00  0.00    -0.128 C  
HETATM   38  C   UNL     1      -6.557   9.710  65.918  1.00  0.00    -0.080 C  
HETATM   39  N   UNL     1      -8.190  10.142  63.850  1.00  0.00    -0.160 N  
HETATM   40  C   UNL     1      -8.726   8.802  63.340  1.00  0.00     0.042 C  
HETATM   41  C   UNL     1      -9.085  10.768  64.934  1.00  0.00    -0.198 C  
HETATM   42  C   UNL     1      -8.204  11.087  62.621  1.00  0.00    -0.078 C  
HETATM   43  C   UNL     1      -8.841  10.188  66.358  1.00  0.00    -0.143 C  
ENDBRANCH  11  36
TORSDOF 6
ENDMDL
MODEL       89
REMARK 921   NORMALIZED FREE ENERGY PREDICTED BY IDOCK:    4.97 KCAL/MOL
REMARK 922        TOTAL FREE ENERGY PREDICTED BY IDOCK:    4.98 KCAL/MOL
REMARK 923 INTER-LIGAND FREE ENERGY PREDICTED BY IDOCK:    2.22 KCAL/MOL
REMARK 924 INTRA-LIGAND FREE ENERGY PREDICTED BY IDOCK:    2.76 KCAL/MOL
REMARK 927      BINDING AFFINITY PREDICTED BY RF-SCORE:    0.00 PKD
ROOT
HETATM    1  C   UNL     1      -8.453  16.354  69.616  1.00  0.00     0.421 C  
HETATM    2  C   UNL     1      -7.935  16.770  68.359  1.00  0.00    -0.224 C  
HETATM    3  C   UNL     1      -9.278  16.115  68.061  1.00  0.00    -0.195 C  
HETATM    4  C   UNL     1     -10.301  15.793  69.827  1.00  0.00    -0.306 C  
HETATM    5  C   UNL     1      -9.588  11.231  69.733  1.00  0.00     0.922 C  
HETATM    6  C   UNL     1     -10.161  16.922  69.083  1.00  0.00    -0.292 C  
HETATM    7  C   UNL     1      -8.644  11.887  68.694  1.00  0.00    -0.037 C  
HETATM    8  C   UNL     1      -8.899  11.126  67.179  1.00  0.00    -0.143 C  
HETATM    9  C   UNL     1     -10.471  18.392  69.295  1.00  0.00     0.330 C  
HETATM   10  C   UNL     1     -11.375  15.638  68.356  1.00  0.00    -0.365 C  
HETATM   11  C   UNL     1      -7.560  10.848  66.293  1.00  0.00    -0.136 C  
HETATM   12  C   UNL     1      -6.743  10.064  67.346  1.00  0.00    -0.073 C  
HETATM   13  C   UNL     1      -6.070  11.164  68.193  1.00  0.00    -0.049 C  
HETATM   14  C   UNL     1     -10.741  13.908  68.530  1.00  0.00    -0.268 C  
HETATM   15  C   UNL     1      -7.141  11.620  69.239  1.00  0.00    -0.055 C  
HETATM   16  C   UNL     1      -6.596  12.655  70.237  1.00  0.00     0.486 C  
HETATM   17  C   UNL     1      -6.744  14.116  69.818  1.00  0.00    -0.065 C  
HETATM   18  C   UNL     1      -8.224  14.497  69.739  1.00  0.00     0.438 C  
HETATM   19  C   UNL     1      -9.051  13.471  68.657  1.00  0.00    -0.008 C  
ENDROOT
BRANCH   3  20
HETATM   20  N   UNL     1      -9.749  16.404  66.549  1.00  0.00    -0.254 NA 
HETATM   21  C   UNL     1     -10.269  20.426  66.842  1.00  0.00    -0.276 C  
HETATM   22  C   UNL     1     -11.066  16.877  66.107  1.00  0.00     0.335 C  
HETATM   23  C   UNL     1      -9.695  19.994  64.470  1.00  0.00     3.597 C  
HETATM   24  C   UNL     1      -8.755  17.123  65.741  1.00  0.00     0.227 C  
HETATM   25  C   UNL     1     -11.282  18.400  65.769  1.00  0.00     0.855 C  
HETATM   26  N   UNL     1     -10.003  19.326  65.806  1.00  0.00    -0.182 N  
HETATM   27  C   UNL     1      -8.730  18.576  66.188  1.00  0.00    -0.118 C  
ENDBRANCH   3  20
BRANCH   4  28
HETATM   28  O   UNL     1     -11.412  16.526  70.602  1.00  0.00    -0.280 OA 
BRANCH  28  29
HETATM   29  C   UNL     1     -11.801  16.094  71.826  1.00  0.00    -0.506 C  
HETATM   30  C   UNL     1     -12.104  14.622  71.853  1.00  0.00    -0.375 C  
HETATM   31  O   UNL     1     -11.832  16.804  72.837  1.00  0.00    -0.460 OA 
ENDBRANCH  28  29
ENDBRANCH   4  28
BRANCH  12  32
HETATM   32  O   UNL     1      -6.009   8.966  66.804  1.00  0.00    -0.051 OA 
BRANCH  32  33
HETATM   33  C   UNL     1      -6.148   7.830  67.544  1.00  0.00    -0.049 C  
HETATM   34  O   UNL     1      -5.250   7.008  67.592  1.00  0.00    -0.011 OA 
HETATM   35  C   UNL     1      -7.494   7.576  68.186  1.00  0.00    -0.105 C  
ENDBRANCH  32  33
ENDBRANCH  12  32
BRANCH  11  36
HETATM   36  N   UNL     1      -7.481  10.395  64.839  1.00  0.00    -0.110 NA 
HETATM   37  C   UNL     1      -8.452   8.013  64.062  1.00  0.00     0.137 C  
HETATM   38  C   UNL     1      -8.539   9.591  64.185  1.00  0.00    -0.201 C  
HETATM   39  N   UNL     1      -7.041   7.404  63.868  1.00  0.00    -0.061 N  
HETATM   40  C   UNL     1      -6.735   7.211  62.381  1.00  0.00    -0.060 C  
HETATM   41  C   UNL     1      -5.982   8.257  64.589  1.00  0.00    -0.056 C  
HETATM   42  C   UNL     1      -7.002   5.982  64.485  1.00  0.00    -0.051 C  
HETATM   43  C   UNL     1      -6.183   9.790  64.403  1.00  0.00    -0.110 C  
ENDBRANCH  11  36
TORSDOF 6
ENDMDL
MODEL       90
REMARK 921   NORMALIZED FREE ENERGY PREDICTED BY IDOCK:    5.21 KCAL/MOL
REMARK 922        TOTAL FREE ENERGY PREDICTED BY IDOCK:    5.30 KCAL/MOL
REMARK 923 INTER-LIGAND FREE ENERGY PREDICTED BY IDOCK:   -0.20 KCAL/MOL
REMARK 924 INTRA-LIGAND FREE ENERGY PREDICTED BY IDOCK:    5.50 KCAL/MOL
REMARK 927      BINDING AFFINITY PREDICTED BY RF-SCORE:    0.00 PKD
ROOT
HETATM    1  C   UNL     1      -9.538   7.911  69.002  1.00  0.00    -0.155 C  
HETATM    2  C   UNL     1     -10.606   8.641  69.592  1.00  0.00    -0.219 C  
HETATM    3  C   UNL     1     -10.374   9.272  68.226  1.00  0.00    -0.217 C  
HETATM    4  C   UNL     1      -9.101   8.082  67.116  1.00  0.00    -0.137 C  
HETATM    5  C   UNL     1      -5.544  10.995  67.558  1.00  0.00    -0.045 C  
HETATM    6  C   UNL     1     -10.433   7.964  67.353  1.00  0.00    -0.360 C  
HETATM    7  C   UNL     1      -6.633  11.408  68.579  1.00  0.00    -0.062 C  
HETATM    8  C   UNL     1      -6.997  13.066  68.338  1.00  0.00    -0.100 C  
HETATM    9  C   UNL     1     -11.472   6.883  67.124  1.00  0.00     0.337 C  
HETATM   10  C   UNL     1      -9.968   9.324  66.094  1.00  0.00    -0.348 C  
HETATM   11  C   UNL     1      -7.234  13.942  69.692  1.00  0.00     0.233 C  
HETATM   12  C   UNL     1      -5.910  13.610  70.418  1.00  0.00    -0.161 C  
HETATM   13  C   UNL     1      -6.197  12.267  71.122  1.00  0.00     1.205 C  
HETATM   14  C   UNL     1      -8.463  10.267  66.616  1.00  0.00    -0.124 C  
HETATM   15  C   UNL     1      -5.980  11.157  70.042  1.00  0.00    -0.125 C  
HETATM   16  C   UNL     1      -6.131   9.736  70.608  1.00  0.00    -0.088 C  
HETATM   17  C   UNL     1      -7.542   9.155  70.564  1.00  0.00    -0.130 C  
HETATM   18  C   UNL     1      -7.994   8.970  69.114  1.00  0.00    -0.101 C  
HETATM   19  C   UNL     1      -7.923  10.450  68.270  1.00  0.00    -0.111 C  
ENDROOT
BRANCH   3  20
HETATM   20  N   UNL     1     -11.572  10.274  67.832  1.00  0.00    -0.252 NA 
HETATM   21  C   UNL     1      -9.329  13.413  66.549  1.00  0.00    -0.215 C  
HETATM   22  C   UNL     1     -11.901  11.553  68.470  1.00  0.00    -0.297 C  
HETATM   23  C   UNL     1     -11.463  13.556  65.297  1.00  0.00    -0.299 C  
HETATM   24  C   UNL     1     -11.729  10.477  66.386  1.00  0.00     1.656 C  
HETATM   25  C   UNL     1     -11.433  12.905  67.812  1.00  0.00    -0.323 C  
HETATM   26  N   UNL     1     -10.729  12.803  66.401  1.00  0.00    -0.259 N  
HETATM   27  C   UNL     1     -10.600  11.369  65.898  1.00  0.00    -0.263 C  
ENDBRANCH   3  20
BRANCH   4  28
HETATM   28  O   UNL     1      -9.272   7.011  66.022  1.00  0.00    -0.127 OA 
BRANCH  28  29
HETATM   29  C   UNL     1      -8.206   6.580  65.306  1.00  0.00    -0.135 C  
HETATM   30  C   UNL     1      -6.919   6.649  66.081  1.00  0.00    -0.062 C  
HETATM   31  O   UNL     1      -8.278   6.105  64.167  1.00  0.00    -0.112 OA 
ENDBRANCH  28  29
ENDBRANCH   4  28
BRANCH  12  32
HETATM   32  O   UNL     1      -5.336  14.722  71.106  1.00  0.00    -0.133 OA 
BRANCH  32  33
HETATM   33  C   UNL     1      -5.767  14.816  72.396  1.00  0.00     0.299 C  
HETATM   34  O   UNL     1      -6.478  15.741  72.746  1.00  0.00     2.749 OA 
HETATM   35  C   UNL     1      -5.226  13.809  73.386  1.00  0.00    -0.207 C  
ENDBRANCH  32  33
ENDBRANCH  12  32
BRANCH  11  36
HETATM   36  N   UNL     1      -7.776  15.363  69.800  1.00  0.00    -0.153 NA 
HETATM   37  C   UNL     1      -9.840  16.191  68.292  1.00  0.00    -0.224 C  
HETATM   38  C   UNL     1      -9.213  15.692  69.660  1.00  0.00    -0.189 C  
HETATM   39  N   UNL     1      -8.942  17.072  67.391  1.00  0.00    -0.210 N  
HETATM   40  C   UNL     1      -9.188  18.557  67.669  1.00  0.00    -0.281 C  
HETATM   41  C   UNL     1      -7.463  16.674  67.550  1.00  0.00    -0.153 C  
HETATM   42  C   UNL     1      -9.331  16.861  65.905  1.00  0.00    -0.094 C  
HETATM   43  C   UNL     1      -7.042  16.413  69.026  1.00  0.00    -0.208 C  
ENDBRANCH  11  36
TORSDOF 6
ENDMDL
MODEL       91
REMARK 921   NORMALIZED FREE ENERGY PREDICTED BY IDOCK:    5.75 KCAL/MOL
REMARK 922        TOTAL FREE ENERGY PREDICTED BY IDOCK:    6.04 KCAL/MOL
REMARK 923 INTER-LIGAND FREE ENERGY PREDICTED BY IDOCK:    2.26 KCAL/MOL
REMARK 924 INTRA-LIGAND FREE ENERGY PREDICTED BY IDOCK:    3.78 KCAL/MOL
REMARK 927      BINDING AFFINITY PREDICTED BY RF-SCORE:    0.00 PKD
ROOT
HETATM    1  C   UNL     1     -11.015  14.435  68.141  1.00  0.00    -0.265 C  
HETATM    2  C   UNL     1     -10.547  14.518  69.481  1.00  0.00    -0.126 C  
HETATM    3  C   UNL     1      -9.310  14.298  68.620  1.00  0.00    -0.172 C  
HETATM    4  C   UNL     1      -9.802  14.524  66.626  1.00  0.00    -0.273 C  
HETATM    5  C   UNL     1      -9.545   9.993  65.763  1.00  0.00    -0.291 C  
HETATM    6  C   UNL     1      -9.543  15.456  67.580  1.00  0.00    -0.206 C  
HETATM    7  C   UNL     1      -9.562  10.190  67.299  1.00  0.00    -0.189 C  
HETATM    8  C   UNL     1      -8.200   9.384  67.961  1.00  0.00    -0.114 C  
HETATM    9  C   UNL     1      -9.698  16.961  67.680  1.00  0.00    -0.249 C  
HETATM   10  C   UNL     1      -7.997  14.554  66.911  1.00  0.00     0.059 C  
HETATM   11  C   UNL     1      -8.459   8.593  69.363  1.00  0.00    -0.126 C  
HETATM   12  C   UNL     1      -9.650   7.714  68.916  1.00  0.00    -0.150 C  
HETATM   13  C   UNL     1     -10.879   8.630  69.096  1.00  0.00    -0.060 C  
HETATM   14  C   UNL     1      -8.299  12.743  66.673  1.00  0.00     0.107 C  
HETATM   15  C   UNL     1     -10.946   9.520  67.811  1.00  0.00    -0.165 C  
HETATM   16  C   UNL     1     -12.184  10.432  67.782  1.00  0.00     2.258 C  
HETATM   17  C   UNL     1     -12.004  11.806  68.424  1.00  0.00    -0.250 C  
HETATM   18  C   UNL     1     -10.982  12.629  67.637  1.00  0.00    -0.275 C  
HETATM   19  C   UNL     1      -9.492  11.806  67.545  1.00  0.00    -0.174 C  
ENDROOT
BRANCH   3  20
HETATM   20  N   UNL     1      -7.960  14.549  69.459  1.00  0.00     0.053 NA 
HETATM   21  C   UNL     1      -6.224  17.281  66.999  1.00  0.00    -0.168 C  
HETATM   22  C   UNL     1      -6.590  14.213  69.053  1.00  0.00    -0.104 C  
HETATM   23  C   UNL     1      -5.365  17.780  69.270  1.00  0.00    -0.190 C  
HETATM   24  C   UNL     1      -7.892  15.867  70.102  1.00  0.00     0.864 C  
HETATM   25  C   UNL     1      -5.649  15.328  68.461  1.00  0.00    -0.096 C  
HETATM   26  N   UNL     1      -6.210  16.805  68.458  1.00  0.00    -0.141 N  
HETATM   27  C   UNL     1      -7.619  16.912  69.033  1.00  0.00    -0.210 C  
ENDBRANCH   3  20
BRANCH   4  28
HETATM   28  O   UNL     1      -9.691  15.657  65.589  1.00  0.00    -0.334 OA 
BRANCH  28  29
HETATM   29  C   UNL     1     -10.699  15.895  64.716  1.00  0.00    -0.229 C  
HETATM   30  C   UNL     1     -11.878  14.985  64.928  1.00  0.00    -0.298 C  
HETATM   31  O   UNL     1     -10.698  16.807  63.882  1.00  0.00     0.543 OA 
ENDBRANCH  28  29
ENDBRANCH   4  28
BRANCH  12  32
HETATM   32  O   UNL     1      -9.611   6.384  69.436  1.00  0.00    -0.142 OA 
BRANCH  32  33
HETATM   33  C   UNL     1      -9.592   5.441  68.453  1.00  0.00    -0.129 C  
HETATM   34  O   UNL     1      -8.538   4.974  68.062  1.00  0.00    -0.103 OA 
HETATM   35  C   UNL     1     -10.908   5.099  67.790  1.00  0.00     0.272 C  
ENDBRANCH  32  33
ENDBRANCH  12  32
BRANCH  11  36
HETATM   36  N   UNL     1      -7.419   7.977  70.290  1.00  0.00    -0.071 NA 
HETATM   37  C   UNL     1      -7.653   8.143  72.962  1.00  0.00    -0.139 C  
HETATM   38  C   UNL     1      -7.762   7.356  71.590  1.00  0.00    -0.086 C  
HETATM   39  N   UNL     1      -6.508   9.178  73.085  1.00  0.00     0.233 N  
HETATM   40  C   UNL     1      -5.272   8.543  73.726  1.00  0.00    -0.066 C  
HETATM   41  C   UNL     1      -6.208   9.815  71.717  1.00  0.00     0.285 C  
HETATM   42  C   UNL     1      -6.937  10.313  74.051  1.00  0.00     3.209 C  
HETATM   43  C   UNL     1      -6.189   8.793  70.542  1.00  0.00    -0.037 C  
ENDBRANCH  11  36
TORSDOF 6
ENDMDL
MODEL       92
REMARK 921   NORMALIZED FREE ENERGY PREDICTED BY IDOCK:    5.81 KCAL/MOL
REMARK 922        TOTAL FREE ENERGY PREDICTED BY IDOCK:    6.11 KCAL/MOL
REMARK 923 INTER-LIGAND FREE ENERGY PREDICTED BY IDOCK:   -2.02 KCAL/MOL
REMARK 924 INTRA-LIGAND FREE ENERGY PREDICTED BY IDOCK:    8.13 KCAL/MOL
REMARK 927      BINDING AFFINITY PREDICTED BY RF-SCORE:    0.00 PKD
ROOT
HETATM    1  C   UNL     1     -10.458  16.845  69.946  1.00  0.00     0.018 C  
HETATM    2  C   UNL     1      -9.155  16.690  70.494  1.00  0.00     2.929 C  
HETATM    3  C   UNL     1      -8.968  16.758  68.984  1.00  0.00    -0.188 C  
HETATM    4  C   UNL     1     -10.734  17.347  68.090  1.00  0.00    -0.343 C  
HETATM    5  C   UNL     1     -11.623  13.129  66.427  1.00  0.00    -0.394 C  
HETATM    6  C   UNL     1      -9.774  18.081  68.709  1.00  0.00    -0.336 C  
HETATM    7  C   UNL     1     -10.494  13.004  67.480  1.00  0.00    -0.229 C  
HETATM    8  C   UNL     1      -9.167  12.197  66.753  1.00  0.00    -0.207 C  
HETATM    9  C   UNL     1      -9.663  19.515  69.191  1.00  0.00    -0.401 C  
HETATM   10  C   UNL     1      -9.302  17.470  66.962  1.00  0.00    -0.262 C  
HETATM   11  C   UNL     1      -8.394  11.115  67.697  1.00  0.00    -0.122 C  
HETATM   12  C   UNL     1      -9.609  10.249  68.100  1.00  0.00    -0.140 C  
HETATM   13  C   UNL     1     -10.223  11.001  69.300  1.00  0.00    -0.153 C  
HETATM   14  C   UNL     1      -9.853  15.729  66.663  1.00  0.00    -0.266 C  
HETATM   15  C   UNL     1     -11.121  12.127  68.692  1.00  0.00    -0.297 C  
HETATM   16  C   UNL     1     -11.892  12.918  69.762  1.00  0.00    -0.380 C  
HETATM   17  C   UNL     1     -11.171  14.140  70.325  1.00  0.00     0.006 C  
HETATM   18  C   UNL     1     -10.976  15.191  69.230  1.00  0.00    -0.260 C  
HETATM   19  C   UNL     1     -10.113  14.534  67.915  1.00  0.00    -0.227 C  
ENDROOT
BRANCH   3  20
HETATM   20  N   UNL     1      -7.417  16.944  68.594  1.00  0.00    -0.214 NA 
HETATM   21  C   UNL     1      -7.438  20.959  67.955  1.00  0.00     0.074 C  
HETATM   22  C   UNL     1      -6.875  17.352  67.293  1.00  0.00    -0.168 C  
HETATM   23  C   UNL     1      -5.132  20.405  68.675  1.00  0.00    -0.221 C  
HETATM   24  C   UNL     1      -6.624  17.643  69.613  1.00  0.00    -0.078 C  
HETATM   25  C   UNL     1      -6.434  18.845  67.057  1.00  0.00    -0.191 C  
HETATM   26  N   UNL     1      -6.486  19.808  68.308  1.00  0.00    -0.247 N  
HETATM   27  C   UNL     1      -6.983  19.119  69.575  1.00  0.00    -0.173 C  
ENDBRANCH   3  20
BRANCH   4  28
HETATM   28  O   UNL     1     -11.309  18.674  67.561  1.00  0.00     0.020 OA 
BRANCH  28  29
HETATM   29  C   UNL     1     -11.261  18.970  66.240  1.00  0.00     0.500 C  
HETATM   30  C   UNL     1     -11.293  17.745  65.369  1.00  0.00     1.155 C  
HETATM   31  O   UNL     1     -11.269  20.118  65.783  1.00  0.00     0.055 OA 
ENDBRANCH  28  29
ENDBRANCH   4  28
BRANCH  12  32
HETATM   32  O   UNL     1      -9.330   8.849  68.142  1.00  0.00    -0.142 OA 
BRANCH  32  33
HETATM   33  C   UNL     1     -10.208   8.120  67.398  1.00  0.00    -0.258 C  
HETATM   34  O   UNL     1     -10.567   8.513  66.302  1.00  0.00     0.051 OA 
HETATM   35  C   UNL     1     -10.806   6.886  68.036  1.00  0.00    -0.266 C  
ENDBRANCH  32  33
ENDBRANCH  12  32
BRANCH  11  36
HETATM   36  N   UNL     1      -7.071  10.412  67.416  1.00  0.00    -0.085 NA 
HETATM   37  C   UNL     1      -6.135  10.139  64.913  1.00  0.00    -0.125 C  
HETATM   38  C   UNL     1      -6.146  10.831  66.339  1.00  0.00    -0.118 C  
HETATM   39  N   UNL     1      -6.446   8.623  64.868  1.00  0.00    -0.065 N  
HETATM   40  C   UNL     1      -5.154   7.804  64.914  1.00  0.00    -0.029 C  
HETATM   41  C   UNL     1      -7.432   8.242  65.987  1.00  0.00    -0.077 C  
HETATM   42  C   UNL     1      -7.110   8.269  63.512  1.00  0.00    -0.086 C  
HETATM   43  C   UNL     1      -7.116   8.916  67.354  1.00  0.00    -0.079 C  
ENDBRANCH  11  36
TORSDOF 6
ENDMDL
MODEL       93
REMARK 921   NORMALIZED FREE ENERGY PREDICTED BY IDOCK:    6.33 KCAL/MOL
REMARK 922        TOTAL FREE ENERGY PREDICTED BY IDOCK:    6.82 KCAL/MOL
REMARK 923 INTER-LIGAND FREE ENERGY PREDICTED BY IDOCK:   -0.66 KCAL/MOL
REMARK 924 INTRA-LIGAND FREE ENERGY PREDICTED BY IDOCK:    7.49 KCAL/MOL
REMARK 927      BINDING AFFINITY PREDICTED BY RF-SCORE:    0.00 PKD
ROOT
HETATM    1  C   UNL     1      -9.510   7.634  66.890  1.00  0.00    -0.222 C  
HETATM    2  C   UNL     1      -8.205   7.883  66.385  1.00  0.00    -0.121 C  
HETATM    3  C   UNL     1      -8.190   8.357  67.831  1.00  0.00    -0.127 C  
HETATM    4  C   UNL     1      -9.906   7.722  68.791  1.00  0.00    -0.169 C  
HETATM    5  C   UNL     1     -11.773  11.946  68.847  1.00  0.00    -0.381 C  
HETATM    6  C   UNL     1      -8.756   7.055  68.509  1.00  0.00    -0.122 C  
HETATM    7  C   UNL     1     -10.571  11.964  67.870  1.00  0.00    -0.229 C  
HETATM    8  C   UNL     1      -9.518  13.235  68.334  1.00  0.00    -0.172 C  
HETATM    9  C   UNL     1      -8.317   5.604  68.559  1.00  0.00    -0.106 C  
HETATM   10  C   UNL     1      -8.621   8.293  69.958  1.00  0.00    -0.128 C  
HETATM   11  C   UNL     1      -8.859  14.090  67.112  1.00  0.00    -0.228 C  
HETATM   12  C   UNL     1     -10.160  14.486  66.377  1.00  0.00    -0.284 C  
HETATM   13  C   UNL     1     -10.471  13.266  65.484  1.00  0.00    -0.295 C  
HETATM   14  C   UNL     1      -9.525   9.870  69.609  1.00  0.00    -0.252 C  
HETATM   15  C   UNL     1     -11.205  12.234  66.402  1.00  0.00    -0.370 C  
HETATM   16  C   UNL     1     -11.678  10.987  65.637  1.00  0.00     0.939 C  
HETATM   17  C   UNL     1     -10.676   9.837  65.566  1.00  0.00     0.754 C  
HETATM   18  C   UNL     1     -10.415   9.274  66.964  1.00  0.00    -0.303 C  
HETATM   19  C   UNL     1      -9.857  10.499  68.010  1.00  0.00    -0.166 C  
ENDROOT
BRANCH   3  20
HETATM   20  N   UNL     1      -6.690   8.655  68.335  1.00  0.00    -0.063 NA 
HETATM   21  C   UNL     1      -7.486   9.234  72.280  1.00  0.00     0.769 C  
HETATM   22  C   UNL     1      -6.172   9.917  68.878  1.00  0.00    -0.041 C  
HETATM   23  C   UNL     1      -5.157   8.390  72.181  1.00  0.00    -0.036 C  
HETATM   24  C   UNL     1      -6.110   7.582  69.152  1.00  0.00    -0.034 C  
HETATM   25  C   UNL     1      -6.030  10.104  70.435  1.00  0.00    -0.092 C  
HETATM   26  N   UNL     1      -6.342   8.844  71.335  1.00  0.00    -0.068 N  
HETATM   27  C   UNL     1      -6.756   7.618  70.527  1.00  0.00    -0.042 C  
ENDBRANCH   3  20
BRANCH   4  28
HETATM   28  O   UNL     1     -10.276   6.549  69.718  1.00  0.00    -0.177 OA 
BRANCH  28  29
HETATM   29  C   UNL     1     -11.071   6.747  70.797  1.00  0.00    -0.276 C  
HETATM   30  C   UNL     1     -11.773   8.076  70.766  1.00  0.00    -0.215 C  
HETATM   31  O   UNL     1     -11.268   5.905  71.680  1.00  0.00    -0.272 OA 
ENDBRANCH  28  29
ENDBRANCH   4  28
BRANCH  12  32
HETATM   32  O   UNL     1     -10.150  15.819  65.867  1.00  0.00    -0.306 OA 
BRANCH  32  33
HETATM   33  C   UNL     1     -10.792  15.924  64.669  1.00  0.00    -0.211 C  
HETATM   34  O   UNL     1     -10.526  15.165  63.755  1.00  0.00     1.365 OA 
HETATM   35  C   UNL     1     -11.740  17.089  64.487  1.00  0.00     1.327 C  
ENDBRANCH  32  33
ENDBRANCH  12  32
BRANCH  11  36
HETATM   36  N   UNL     1      -7.737  15.119  67.194  1.00  0.00    -0.208 NA 
HETATM   37  C   UNL     1      -5.589  14.726  68.759  1.00  0.00    -0.087 C  
HETATM   38  C   UNL     1      -6.312  14.750  67.348  1.00  0.00     0.113 C  
HETATM   39  N   UNL     1      -6.041  15.786  69.795  1.00  0.00    -0.157 N  
HETATM   40  C   UNL     1      -5.149  17.027  69.723  1.00  0.00    -0.161 C  
HETATM   41  C   UNL     1      -7.534  16.114  69.612  1.00  0.00     0.050 C  
HETATM   42  C   UNL     1      -5.852  15.224  71.227  1.00  0.00     0.296 C  
HETATM   43  C   UNL     1      -7.962  16.271  68.123  1.00  0.00    -0.157 C  
ENDBRANCH  11  36
TORSDOF 6
ENDMDL
MODEL       94
REMARK 921   NORMALIZED FREE ENERGY PREDICTED BY IDOCK:    6.91 KCAL/MOL
REMARK 922        TOTAL FREE ENERGY PREDICTED BY IDOCK:    7.59 KCAL/MOL
REMARK 923 INTER-LIGAND FREE ENERGY PREDICTED BY IDOCK:    2.66 KCAL/MOL
REMARK 924 INTRA-LIGAND FREE ENERGY PREDICTED BY IDOCK:    4.93 KCAL/MOL
REMARK 927      BINDING AFFINITY PREDICTED BY RF-SCORE:    0.00 PKD
ROOT
HETATM    1  C   UNL     1      -8.066   9.273  67.963  1.00  0.00    -0.104 C  
HETATM    2  C   UNL     1      -8.607   9.313  69.277  1.00  0.00    -0.139 C  
HETATM    3  C   UNL     1      -9.791   9.465  68.333  1.00  0.00    -0.160 C  
HETATM    4  C   UNL     1      -9.195   9.058  66.397  1.00  0.00    -0.188 C  
HETATM    5  C   UNL     1      -9.347  13.496  65.122  1.00  0.00     0.652 C  
HETATM    6  C   UNL     1      -9.517   8.217  67.414  1.00  0.00    -0.191 C  
HETATM    7  C   UNL     1      -9.417  13.436  66.669  1.00  0.00    -0.264 C  
HETATM    8  C   UNL     1     -10.802  14.308  67.179  1.00  0.00    -0.296 C  
HETATM    9  C   UNL     1      -9.386   6.725  67.655  1.00  0.00    -0.121 C  
HETATM   10  C   UNL     1     -11.013   9.067  66.583  1.00  0.00     0.405 C  
HETATM   11  C   UNL     1     -10.611  15.220  68.518  1.00  0.00    -0.237 C  
HETATM   12  C   UNL     1      -9.386  16.046  68.062  1.00  0.00    -0.202 C  
HETATM   13  C   UNL     1      -8.180  15.141  68.390  1.00  0.00    -0.145 C  
HETATM   14  C   UNL     1     -10.676  10.847  66.202  1.00  0.00    -0.225 C  
HETATM   15  C   UNL     1      -8.054  14.139  67.196  1.00  0.00    -0.139 C  
HETATM   16  C   UNL     1      -6.829  13.218  67.316  1.00  0.00     0.034 C  
HETATM   17  C   UNL     1      -7.060  11.908  68.066  1.00  0.00    -0.084 C  
HETATM   18  C   UNL     1      -8.048  11.026  67.300  1.00  0.00    -0.126 C  
HETATM   19  C   UNL     1      -9.520  11.850  67.052  1.00  0.00    -0.192 C  
ENDROOT
BRANCH   3  20
HETATM   20  N   UNL     1     -11.189   9.300  69.115  1.00  0.00     0.035 NA 
HETATM   21  C   UNL     1     -10.927  12.577  71.508  1.00  0.00     5.486 C  
HETATM   22  C   UNL     1     -11.377   9.023  70.543  1.00  0.00    -0.243 C  
HETATM   23  C   UNL     1     -13.351  12.182  71.173  1.00  0.00     0.333 C  
HETATM   24  C   UNL     1     -12.200  10.301  68.749  1.00  0.00     0.791 C  
HETATM   25  C   UNL     1     -11.714  10.198  71.536  1.00  0.00    -0.209 C  
HETATM   26  N   UNL     1     -11.960  11.621  70.897  1.00  0.00    -0.202 N  
HETATM   27  C   UNL     1     -11.813  11.630  69.378  1.00  0.00    -0.342 C  
ENDBRANCH   3  20
BRANCH   4  28
HETATM   28  O   UNL     1      -9.263   7.838  65.460  1.00  0.00     0.041 OA 
BRANCH  28  29
HETATM   29  C   UNL     1      -8.764   7.905  64.202  1.00  0.00     0.473 C  
HETATM   30  C   UNL     1      -8.038   6.651  63.798  1.00  0.00    -0.003 C  
HETATM   31  O   UNL     1      -8.945   8.853  63.430  1.00  0.00    -0.026 OA 
ENDBRANCH  28  29
ENDBRANCH   4  28
BRANCH  12  32
HETATM   32  O   UNL     1      -9.437  17.417  68.459  1.00  0.00    -0.280 OA 
BRANCH  32  33
HETATM   33  C   UNL     1      -8.621  18.209  67.707  1.00  0.00    -0.255 C  
HETATM   34  O   UNL     1      -9.011  18.675  66.651  1.00  0.00    -0.288 OA 
HETATM   35  C   UNL     1      -7.190  18.373  68.169  1.00  0.00    -0.270 C  
ENDBRANCH  32  33
ENDBRANCH  12  32
BRANCH  11  36
HETATM   36  N   UNL     1     -11.693  15.924  69.328  1.00  0.00    -0.370 NA 
HETATM   37  C   UNL     1     -11.335  16.513  71.925  1.00  0.00     0.172 C  
HETATM   38  C   UNL     1     -11.392  16.910  70.391  1.00  0.00     0.539 C  
HETATM   39  N   UNL     1     -12.315  15.411  72.400  1.00  0.00    -0.348 N  
HETATM   40  C   UNL     1     -13.603  16.032  72.944  1.00  0.00    -0.432 C  
HETATM   41  C   UNL     1     -12.572  14.398  71.271  1.00  0.00    -0.351 C  
HETATM   42  C   UNL     1     -11.691  14.642  73.593  1.00  0.00     0.224 C  
HETATM   43  C   UNL     1     -12.782  15.055  69.875  1.00  0.00    -0.090 C  
ENDBRANCH  11  36
TORSDOF 6
ENDMDL
MODEL       95
REMARK 921   NORMALIZED FREE ENERGY PREDICTED BY IDOCK:    6.99 KCAL/MOL
REMARK 922        TOTAL FREE ENERGY PREDICTED BY IDOCK:    7.72 KCAL/MOL
REMARK 923 INTER-LIGAND FREE ENERGY PREDICTED BY IDOCK:    4.76 KCAL/MOL
REMARK 924 INTRA-LIGAND FREE ENERGY PREDICTED BY IDOCK:    2.95 KCAL/MOL
REMARK 927      BINDING AFFINITY PREDICTED BY RF-SCORE:    0.00 PKD
ROOT
HETATM    1  C   UNL     1      -6.049  15.460  69.686  1.00  0.00    -0.140 C  
HETATM    2  C   UNL     1      -5.340  15.615  68.463  1.00  0.00    -0.101 C  
HETATM    3  C   UNL     1      -6.814  15.544  68.086  1.00  0.00    -0.124 C  
HETATM    4  C   UNL     1      -7.976  15.686  69.788  1.00  0.00     0.038 C  
HETATM    5  C   UNL     1      -9.135  11.215  69.705  1.00  0.00     0.683 C  
HETATM    6  C   UNL     1      -7.357  16.653  69.061  1.00  0.00    -0.228 C  
HETATM    7  C   UNL     1      -7.953  11.424  68.725  1.00  0.00    -0.122 C  
HETATM    8  C   UNL     1      -8.407  10.803  67.193  1.00  0.00    -0.126 C  
HETATM    9  C   UNL     1      -7.066  18.127  69.265  1.00  0.00    -0.130 C  
HETATM   10  C   UNL     1      -8.940  15.946  68.257  1.00  0.00    -0.184 C  
HETATM   11  C   UNL     1      -7.243  10.000  66.382  1.00  0.00    -0.103 C  
HETATM   12  C   UNL     1      -6.866   8.973  67.475  1.00  0.00    -0.077 C  
HETATM   13  C   UNL     1      -5.857   9.728  68.366  1.00  0.00    -0.043 C  
HETATM   14  C   UNL     1      -9.058  14.110  68.456  1.00  0.00    -0.176 C  
HETATM   15  C   UNL     1      -6.713  10.589  69.352  1.00  0.00    -0.076 C  
HETATM   16  C   UNL     1      -5.856  11.338  70.387  1.00  0.00    -0.151 C  
HETATM   17  C   UNL     1      -5.387  12.730  69.970  1.00  0.00    -0.101 C  
HETATM   18  C   UNL     1      -6.586  13.668  69.810  1.00  0.00    -0.009 C  
HETATM   19  C   UNL     1      -7.692  13.038  68.676  1.00  0.00    -0.069 C  
ENDROOT
BRANCH   3  20
HETATM   20  N   UNL     1      -7.047  15.972  66.551  1.00  0.00    -0.110 NA 
HETATM   21  C   UNL     1      -5.752  19.818  66.797  1.00  0.00    -0.172 C  
HETATM   22  C   UNL     1      -8.001  16.965  66.044  1.00  0.00    -0.111 C  
HETATM   23  C   UNL     1      -5.332  19.116  64.458  1.00  0.00    -0.217 C  
HETATM   24  C   UNL     1      -5.806  16.159  65.788  1.00  0.00     3.646 C  
HETATM   25  C   UNL     1      -7.510  18.418  65.688  1.00  0.00     0.026 C  
HETATM   26  N   UNL     1      -5.956  18.687  65.781  1.00  0.00    -0.182 N  
HETATM   27  C   UNL     1      -5.162  17.463  66.227  1.00  0.00    -0.162 C  
ENDBRANCH   3  20
BRANCH   4  28
HETATM   28  O   UNL     1      -8.743  16.813  70.504  1.00  0.00     2.581 OA 
BRANCH  28  29
HETATM   29  C   UNL     1     -10.090  16.910  70.393  1.00  0.00     1.217 C  
HETATM   30  C   UNL     1     -10.815  15.840  71.162  1.00  0.00    -0.041 C  
HETATM   31  O   UNL     1     -10.675  17.819  69.794  1.00  0.00     0.283 OA 
ENDBRANCH  28  29
ENDBRANCH   4  28
BRANCH  12  32
HETATM   32  O   UNL     1      -6.601   7.664  66.968  1.00  0.00    -0.058 OA 
BRANCH  32  33
HETATM   33  C   UNL     1      -6.354   6.762  67.958  1.00  0.00    -0.045 C  
HETATM   34  O   UNL     1      -5.275   6.200  68.030  1.00  0.00    -0.004 OA 
HETATM   35  C   UNL     1      -7.503   6.398  68.872  1.00  0.00    -0.088 C  
ENDBRANCH  32  33
ENDBRANCH  12  32
BRANCH  11  36
HETATM   36  N   UNL     1      -7.272   9.529  64.932  1.00  0.00    -0.106 NA 
HETATM   37  C   UNL     1      -7.855   6.984  64.300  1.00  0.00    -0.111 C  
HETATM   38  C   UNL     1      -8.231   8.518  64.430  1.00  0.00    -0.151 C  
HETATM   39  N   UNL     1      -6.391   6.652  63.917  1.00  0.00    -0.034 N  
HETATM   40  C   UNL     1      -6.254   6.480  62.402  1.00  0.00    -0.031 C  
HETATM   41  C   UNL     1      -5.433   7.714  64.484  1.00  0.00    -0.033 C  
HETATM   42  C   UNL     1      -5.994   5.282  64.526  1.00  0.00    -0.022 C  
HETATM   43  C   UNL     1      -5.951   9.173  64.325  1.00  0.00    -0.071 C  
ENDBRANCH  11  36
TORSDOF 6
ENDMDL
MODEL       96
REMARK 921   NORMALIZED FREE ENERGY PREDICTED BY IDOCK:    7.97 KCAL/MOL
REMARK 922        TOTAL FREE ENERGY PREDICTED BY IDOCK:    9.03 KCAL/MOL
REMARK 923 INTER-LIGAND FREE ENERGY PREDICTED BY IDOCK:   -0.34 KCAL/MOL
REMARK 924 INTRA-LIGAND FREE ENERGY PREDICTED BY IDOCK:    9.37 KCAL/MOL
REMARK 927      BINDING AFFINITY PREDICTED BY RF-SCORE:    0.00 PKD
ROOT
HETATM    1  C   UNL     1      -7.509  14.105  68.504  1.00  0.00    -0.123 C  
HETATM    2  C   UNL     1      -7.133  13.937  67.143  1.00  0.00     0.280 C  
HETATM    3  C   UNL     1      -8.633  13.679  67.197  1.00  0.00    -0.192 C  
HETATM    4  C   UNL     1      -9.371  14.245  69.042  1.00  0.00     0.030 C  
HETATM    5  C   UNL     1      -9.944   9.887  70.460  1.00  0.00    -0.164 C  
HETATM    6  C   UNL     1      -9.068  14.992  67.948  1.00  0.00    -0.180 C  
HETATM    7  C   UNL     1      -9.062   9.867  69.187  1.00  0.00    -0.175 C  
HETATM    8  C   UNL     1      -9.781   8.804  68.050  1.00  0.00    -0.183 C  
HETATM    9  C   UNL     1      -8.926  16.476  67.667  1.00  0.00    -0.198 C  
HETATM   10  C   UNL     1     -10.693  13.998  67.804  1.00  0.00    -0.248 C  
HETATM   11  C   UNL     1      -8.748   7.865  67.208  1.00  0.00    -0.131 C  
HETATM   12  C   UNL     1      -7.998   7.221  68.397  1.00  0.00    -0.124 C  
HETATM   13  C   UNL     1      -6.912   8.256  68.759  1.00  0.00    -0.067 C  
HETATM   14  C   UNL     1     -10.529  12.294  68.509  1.00  0.00    -0.248 C  
HETATM   15  C   UNL     1      -7.613   9.318  69.667  1.00  0.00    -0.084 C  
HETATM   16  C   UNL     1      -6.639  10.381  70.203  1.00  0.00    -0.146 C  
HETATM   17  C   UNL     1      -6.460  11.615  69.323  1.00  0.00    -0.105 C  
HETATM   18  C   UNL     1      -7.772  12.399  69.237  1.00  0.00     0.415 C  
HETATM   19  C   UNL     1      -9.025  11.408  68.642  1.00  0.00    -0.133 C  
ENDROOT
BRANCH   3  20
HETATM   20  N   UNL     1      -9.273  13.630  65.720  1.00  0.00     0.174 NA 
HETATM   21  C   UNL     1     -11.962  10.642  66.331  1.00  0.00     2.399 C  
HETATM   22  C   UNL     1      -9.185  12.530  64.753  1.00  0.00     0.699 C  
HETATM   23  C   UNL     1     -12.927  12.059  64.540  1.00  0.00     0.286 C  
HETATM   24  C   UNL     1     -10.649  14.138  65.648  1.00  0.00    -0.310 C  
HETATM   25  C   UNL     1     -10.386  11.524  64.593  1.00  0.00    -0.297 C  
HETATM   26  N   UNL     1     -11.696  11.844  65.415  1.00  0.00    -0.245 N  
HETATM   27  C   UNL     1     -11.578  13.105  66.266  1.00  0.00    -0.356 C  
ENDBRANCH   3  20
BRANCH   4  28
HETATM   28  O   UNL     1     -10.084  15.489  69.605  1.00  0.00    -0.264 OA 
BRANCH  28  29
HETATM   29  C   UNL     1     -11.419  15.473  69.837  1.00  0.00    -0.327 C  
HETATM   30  C   UNL     1     -11.814  16.321  71.015  1.00  0.00    -0.246 C  
HETATM   31  O   UNL     1     -12.244  14.894  69.122  1.00  0.00    -0.250 OA 
ENDBRANCH  28  29
ENDBRANCH   4  28
BRANCH  12  32
HETATM   32  O   UNL     1      -7.697   5.838  68.207  1.00  0.00    -0.090 OA 
BRANCH  32  33
HETATM   33  C   UNL     1      -6.883   5.343  69.181  1.00  0.00    -0.054 C  
HETATM   34  O   UNL     1      -6.761   5.927  70.243  1.00  0.00    -0.045 OA 
HETATM   35  C   UNL     1      -6.052   4.125  68.843  1.00  0.00    -0.030 C  
ENDBRANCH  32  33
ENDBRANCH  12  32
BRANCH  11  36
HETATM   36  N   UNL     1      -9.058   6.993  65.996  1.00  0.00    -0.117 NA 
HETATM   37  C   UNL     1      -7.153   5.511  64.816  1.00  0.00    -0.054 C  
HETATM   38  C   UNL     1      -8.415   5.680  65.760  1.00  0.00    -0.140 C  
HETATM   39  N   UNL     1      -7.076   6.438  63.578  1.00  0.00    -0.050 N  
HETATM   40  C   UNL     1      -7.679   5.751  62.350  1.00  0.00    -0.074 C  
HETATM   41  C   UNL     1      -7.731   7.797  63.882  1.00  0.00    -0.123 C  
HETATM   42  C   UNL     1      -5.591   6.699  63.217  1.00  0.00    -0.034 C  
HETATM   43  C   UNL     1      -9.070   7.684  64.668  1.00  0.00     0.986 C  
ENDBRANCH  11  36
TORSDOF 6
ENDMDL
MODEL       97
REMARK 921   NORMALIZED FREE ENERGY PREDICTED BY IDOCK:    8.16 KCAL/MOL
REMARK 922        TOTAL FREE ENERGY PREDICTED BY IDOCK:    9.28 KCAL/MOL
REMARK 923 INTER-LIGAND FREE ENERGY PREDICTED BY IDOCK:    5.64 KCAL/MOL
REMARK 924 INTRA-LIGAND FREE ENERGY PREDICTED BY IDOCK:    3.64 KCAL/MOL
REMARK 927      BINDING AFFINITY PREDICTED BY RF-SCORE:    0.00 PKD
ROOT
HETATM    1  C   UNL     1      -9.342   7.743  67.915  1.00  0.00    -0.148 C  
HETATM    2  C   UNL     1     -10.473   8.406  67.365  1.00  0.00    -0.354 C  
HETATM    3  C   UNL     1      -9.336   8.630  66.377  1.00  0.00    -0.211 C  
HETATM    4  C   UNL     1      -7.737   7.418  66.870  1.00  0.00    -0.110 C  
HETATM    5  C   UNL     1      -5.214  10.932  68.487  1.00  0.00    -0.040 C  
HETATM    6  C   UNL     1      -8.884   7.133  66.200  1.00  0.00    -0.171 C  
HETATM    7  C   UNL     1      -6.673  11.424  68.322  1.00  0.00    -0.059 C  
HETATM    8  C   UNL     1      -6.660  12.837  67.351  1.00  0.00    -0.140 C  
HETATM    9  C   UNL     1      -9.571   5.861  65.739  1.00  0.00     0.091 C  
HETATM   10  C   UNL     1      -7.596   8.114  65.186  1.00  0.00    -0.097 C  
HETATM   11  C   UNL     1      -7.685  14.019  67.808  1.00  0.00    -0.172 C  
HETATM   12  C   UNL     1      -7.225  14.169  69.277  1.00  0.00    -0.049 C  
HETATM   13  C   UNL     1      -8.007  13.071  70.027  1.00  0.00     2.443 C  
HETATM   14  C   UNL     1      -6.775   9.430  66.196  1.00  0.00    -0.077 C  
HETATM   15  C   UNL     1      -7.198  11.748  69.822  1.00  0.00     0.414 C  
HETATM   16  C   UNL     1      -7.792  10.559  70.595  1.00  0.00     1.379 C  
HETATM   17  C   UNL     1      -8.841   9.742  69.844  1.00  0.00    -0.248 C  
HETATM   18  C   UNL     1      -8.208   9.052  68.634  1.00  0.00    -0.118 C  
HETATM   19  C   UNL     1      -7.481  10.197  67.602  1.00  0.00    -0.090 C  
ENDROOT
BRANCH   3  20
HETATM   20  N   UNL     1      -9.879   9.229  64.985  1.00  0.00     0.134 NA 
HETATM   21  C   UNL     1     -10.987  12.910  66.308  1.00  0.00    -0.281 C  
HETATM   22  C   UNL     1     -11.261   9.599  64.658  1.00  0.00     5.030 C  
HETATM   23  C   UNL     1     -10.408  13.203  63.916  1.00  0.00     0.007 C  
HETATM   24  C   UNL     1      -9.022  10.275  64.410  1.00  0.00    -0.227 C  
HETATM   25  C   UNL     1     -11.710  11.106  64.726  1.00  0.00     0.550 C  
HETATM   26  N   UNL     1     -10.583  12.172  65.026  1.00  0.00    -0.280 N  
HETATM   27  C   UNL     1      -9.204  11.547  65.221  1.00  0.00    -0.080 C  
ENDBRANCH   3  20
BRANCH   4  28
HETATM   28  O   UNL     1      -7.201   6.057  66.389  1.00  0.00    -0.073 OA 
BRANCH  28  29
HETATM   29  C   UNL     1      -7.154   4.996  67.231  1.00  0.00    -0.066 C  
HETATM   30  C   UNL     1      -7.059   3.682  66.505  1.00  0.00    -0.063 C  
HETATM   31  O   UNL     1      -7.115   5.086  68.462  1.00  0.00    -0.056 OA 
ENDBRANCH  28  29
ENDBRANCH   4  28
BRANCH  12  32
HETATM   32  O   UNL     1      -7.188  15.522  69.733  1.00  0.00    -0.186 OA 
BRANCH  32  33
HETATM   33  C   UNL     1      -6.045  15.811  70.416  1.00  0.00     0.015 C  
HETATM   34  O   UNL     1      -5.639  16.957  70.489  1.00  0.00    -0.206 OA 
HETATM   35  C   UNL     1      -5.247  14.648  70.962  1.00  0.00    -0.135 C  
ENDBRANCH  32  33
ENDBRANCH  12  32
BRANCH  11  36
HETATM   36  N   UNL     1      -8.054  15.282  67.038  1.00  0.00    -0.212 NA 
HETATM   37  C   UNL     1      -6.377  17.377  66.899  1.00  0.00    -0.182 C  
HETATM   38  C   UNL     1      -7.065  16.087  66.285  1.00  0.00     0.904 C  
HETATM   39  N   UNL     1      -7.236  18.239  67.856  1.00  0.00    -0.224 N  
HETATM   40  C   UNL     1      -7.927  19.370  67.092  1.00  0.00    -0.260 C  
HETATM   41  C   UNL     1      -8.226  17.355  68.635  1.00  0.00    -0.264 C  
HETATM   42  C   UNL     1      -6.315  18.941  68.888  1.00  0.00    -0.254 C  
HETATM   43  C   UNL     1      -8.917  16.269  67.759  1.00  0.00    -0.193 C  
ENDBRANCH  11  36
TORSDOF 6
ENDMDL
MODEL       98
REMARK 921   NORMALIZED FREE ENERGY PREDICTED BY IDOCK:    8.41 KCAL/MOL
REMARK 922        TOTAL FREE ENERGY PREDICTED BY IDOCK:    9.62 KCAL/MOL
REMARK 923 INTER-LIGAND FREE ENERGY PREDICTED BY IDOCK:    2.64 KCAL/MOL
REMARK 924 INTRA-LIGAND FREE ENERGY PREDICTED BY IDOCK:    6.98 KCAL/MOL
REMARK 927      BINDING AFFINITY PREDICTED BY RF-SCORE:    0.00 PKD
ROOT
HETATM    1  C   UNL     1     -11.542  15.197  69.497  1.00  0.00    -0.340 C  
HETATM    2  C   UNL     1     -10.905  14.793  70.702  1.00  0.00     0.056 C  
HETATM    3  C   UNL     1      -9.787  15.233  69.766  1.00  0.00    -0.176 C  
HETATM    4  C   UNL     1     -10.593  16.185  68.119  1.00  0.00    -0.290 C  
HETATM    5  C   UNL     1      -9.720  12.637  65.293  1.00  0.00    -0.044 C  
HETATM    6  C   UNL     1     -10.356  16.647  69.374  1.00  0.00    -0.294 C  
HETATM    7  C   UNL     1      -9.546  12.145  66.751  1.00  0.00    -0.216 C  
HETATM    8  C   UNL     1      -7.989  11.442  66.901  1.00  0.00    -0.158 C  
HETATM    9  C   UNL     1     -10.741  17.892  70.151  1.00  0.00     1.395 C  
HETATM   10  C   UNL     1      -8.796  16.472  68.285  1.00  0.00    -0.210 C  
HETATM   11  C   UNL     1      -7.907  10.089  67.807  1.00  0.00    -0.094 C  
HETATM   12  C   UNL     1      -8.989   9.257  67.080  1.00  0.00    -0.126 C  
HETATM   13  C   UNL     1     -10.313   9.723  67.722  1.00  0.00    -0.274 C  
HETATM   14  C   UNL     1      -8.826  14.922  67.273  1.00  0.00    -0.216 C  
HETATM   15  C   UNL     1     -10.712  11.042  66.983  1.00  0.00    -0.319 C  
HETATM   16  C   UNL     1     -12.074  11.592  67.438  1.00  0.00     0.260 C  
HETATM   17  C   UNL     1     -12.032  12.559  68.620  1.00  0.00    -0.268 C  
HETATM   18  C   UNL     1     -11.285  13.837  68.232  1.00  0.00    -0.301 C  
HETATM   19  C   UNL     1      -9.709  13.471  67.695  1.00  0.00    -0.229 C  
ENDROOT
BRANCH   3  20
HETATM   20  N   UNL     1      -8.389  15.378  70.551  1.00  0.00     1.116 NA 
HETATM   21  C   UNL     1      -6.152  16.896  67.513  1.00  0.00    -0.147 C  
HETATM   22  C   UNL     1      -7.146  14.643  70.289  1.00  0.00     0.202 C  
HETATM   23  C   UNL     1      -5.130  17.762  69.598  1.00  0.00    -0.182 C  
HETATM   24  C   UNL     1      -8.001  16.768  70.826  1.00  0.00     4.455 C  
HETATM   25  C   UNL     1      -5.994  15.317  69.453  1.00  0.00    -0.110 C  
HETATM   26  N   UNL     1      -6.202  16.829  69.045  1.00  0.00    -0.168 N  
HETATM   27  C   UNL     1      -7.530  17.404  69.529  1.00  0.00     0.284 C  
ENDBRANCH   3  20
BRANCH   4  28
HETATM   28  O   UNL     1     -10.823  17.649  67.700  1.00  0.00    -0.350 OA 
BRANCH  28  29
HETATM   29  C   UNL     1     -10.830  17.999  66.391  1.00  0.00     0.050 C  
HETATM   30  C   UNL     1     -10.506  19.452  66.177  1.00  0.00    -0.600 C  
HETATM   31  O   UNL     1     -11.005  17.207  65.459  1.00  0.00    -0.242 OA 
ENDBRANCH  28  29
ENDBRANCH   4  28
BRANCH  12  32
HETATM   32  O   UNL     1      -8.656   7.876  66.942  1.00  0.00    -0.124 OA 
BRANCH  32  33
HETATM   33  C   UNL     1      -9.367   7.264  65.953  1.00  0.00     0.119 C  
HETATM   34  O   UNL     1      -9.054   7.409  64.785  1.00  0.00     0.527 OA 
HETATM   35  C   UNL     1     -10.618   6.516  66.355  1.00  0.00     0.038 C  
ENDBRANCH  32  33
ENDBRANCH  12  32
BRANCH  11  36
HETATM   36  N   UNL     1      -6.656   9.370  68.297  1.00  0.00    -0.058 NA 
HETATM   37  C   UNL     1      -6.212   6.784  67.720  1.00  0.00    -0.040 C  
HETATM   38  C   UNL     1      -5.957   8.334  67.504  1.00  0.00    -0.047 C  
HETATM   39  N   UNL     1      -6.512   6.319  69.167  1.00  0.00    -0.041 N  
HETATM   40  C   UNL     1      -5.227   5.874  69.868  1.00  0.00    -0.008 C  
HETATM   41  C   UNL     1      -7.262   7.418  69.940  1.00  0.00    -0.081 C  
HETATM   42  C   UNL     1      -7.419   5.062  69.130  1.00  0.00    -0.061 C  
HETATM   43  C   UNL     1      -6.698   8.849  69.700  1.00  0.00    -0.046 C  
ENDBRANCH  11  36
TORSDOF 6
ENDMDL
MODEL       99
REMARK 921   NORMALIZED FREE ENERGY PREDICTED BY IDOCK:    9.63 KCAL/MOL
REMARK 922        TOTAL FREE ENERGY PREDICTED BY IDOCK:   11.27 KCAL/MOL
REMARK 923 INTER-LIGAND FREE ENERGY PREDICTED BY IDOCK:    8.18 KCAL/MOL
REMARK 924 INTRA-LIGAND FREE ENERGY PREDICTED BY IDOCK:    3.10 KCAL/MOL
REMARK 927      BINDING AFFINITY PREDICTED BY RF-SCORE:    0.00 PKD
ROOT
HETATM    1  C   UNL     1      -9.570   7.241  70.518  1.00  0.00    -0.168 C  
HETATM    2  C   UNL     1     -10.152   6.766  69.311  1.00  0.00    -0.179 C  
HETATM    3  C   UNL     1      -8.764   7.268  68.936  1.00  0.00    -0.128 C  
HETATM    4  C   UNL     1      -7.675   7.647  70.650  1.00  0.00    -0.088 C  
HETATM    5  C   UNL     1      -7.981  12.231  70.164  1.00  0.00     3.034 C  
HETATM    6  C   UNL     1      -7.932   6.476  70.012  1.00  0.00    -0.116 C  
HETATM    7  C   UNL     1      -9.003  11.575  69.202  1.00  0.00     0.264 C  
HETATM    8  C   UNL     1      -8.717  12.175  67.622  1.00  0.00    -0.172 C  
HETATM    9  C   UNL     1      -7.750   5.008  70.348  1.00  0.00    -0.070 C  
HETATM   10  C   UNL     1      -6.627   7.576  69.155  1.00  0.00    -0.040 C  
HETATM   11  C   UNL     1     -10.047  12.496  66.735  1.00  0.00    -0.223 C  
HETATM   12  C   UNL     1     -10.765  13.439  67.728  1.00  0.00    -0.248 C  
HETATM   13  C   UNL     1     -11.513  12.482  68.679  1.00  0.00    -0.348 C  
HETATM   14  C   UNL     1      -7.100   9.365  69.185  1.00  0.00    -0.062 C  
HETATM   15  C   UNL     1     -10.464  12.024  69.744  1.00  0.00     0.767 C  
HETATM   16  C   UNL     1     -11.075  11.133  70.838  1.00  0.00     1.052 C  
HETATM   17  C   UNL     1     -11.068   9.634  70.548  1.00  0.00    -0.369 C  
HETATM   18  C   UNL     1      -9.630   9.115  70.481  1.00  0.00    -0.293 C  
HETATM   19  C   UNL     1      -8.741   9.964  69.299  1.00  0.00    -0.172 C  
ENDROOT
BRANCH   3  20
HETATM   20  N   UNL     1      -8.356   6.807  67.448  1.00  0.00    -0.121 NA 
HETATM   21  C   UNL     1     -10.328   9.689  65.367  1.00  0.00     0.358 C  
HETATM   22  C   UNL     1      -9.250   6.294  66.404  1.00  0.00    -0.156 C  
HETATM   23  C   UNL     1      -8.400   9.039  63.952  1.00  0.00    -0.176 C  
HETATM   24  C   UNL     1      -7.412   7.712  66.781  1.00  0.00    -0.093 C  
HETATM   25  C   UNL     1      -9.756   7.251  65.261  1.00  0.00     1.520 C  
HETATM   26  N   UNL     1      -9.153   8.711  65.236  1.00  0.00    -0.105 N  
HETATM   27  C   UNL     1      -8.160   8.969  66.366  1.00  0.00    -0.110 C  
ENDBRANCH   3  20
BRANCH   4  28
HETATM   28  O   UNL     1      -6.616   6.886  71.470  1.00  0.00    -0.048 OA 
BRANCH  28  29
HETATM   29  C   UNL     1      -6.274   7.303  72.713  1.00  0.00    -0.055 C  
HETATM   30  C   UNL     1      -7.384   8.048  73.402  1.00  0.00    -0.173 C  
HETATM   31  O   UNL     1      -5.199   7.041  73.264  1.00  0.00    -0.037 OA 
ENDBRANCH  28  29
ENDBRANCH   4  28
BRANCH  12  32
HETATM   32  O   UNL     1     -11.411  14.549  67.102  1.00  0.00    -0.339 OA 
BRANCH  32  33
HETATM   33  C   UNL     1     -11.436  15.654  67.898  1.00  0.00    -0.251 C  
HETATM   34  O   UNL     1     -12.088  15.663  68.926  1.00  0.00    -0.319 OA 
HETATM   35  C   UNL     1     -10.735  16.895  67.390  1.00  0.00    -0.241 C  
ENDBRANCH  32  33
ENDBRANCH  12  32
BRANCH  11  36
HETATM   36  N   UNL     1     -10.118  12.826  65.249  1.00  0.00    -0.274 NA 
HETATM   37  C   UNL     1     -10.966  15.226  64.389  1.00  0.00    -0.028 C  
HETATM   38  C   UNL     1      -9.825  14.172  64.705  1.00  0.00     0.188 C  
HETATM   39  N   UNL     1     -12.316  14.665  63.880  1.00  0.00    -0.190 N  
HETATM   40  C   UNL     1     -12.354  14.652  62.350  1.00  0.00     4.380 C  
HETATM   41  C   UNL     1     -12.589  13.280  64.493  1.00  0.00    -0.251 C  
HETATM   42  C   UNL     1     -13.467  15.609  64.313  1.00  0.00     2.588 C  
HETATM   43  C   UNL     1     -11.339  12.352  64.523  1.00  0.00    -0.328 C  
ENDBRANCH  11  36
TORSDOF 6
ENDMDL
MODEL      100
REMARK 921   NORMALIZED FREE ENERGY PREDICTED BY IDOCK:    9.79 KCAL/MOL
REMARK 922        TOTAL FREE ENERGY PREDICTED BY IDOCK:   11.49 KCAL/MOL
REMARK 923 INTER-LIGAND FREE ENERGY PREDICTED BY IDOCK:    6.73 KCAL/MOL
REMARK 924 INTRA-LIGAND FREE ENERGY PREDICTED BY IDOCK:    4.76 KCAL/MOL
REMARK 927      BINDING AFFINITY PREDICTED BY RF-SCORE:    0.00 PKD
ROOT
HETATM    1  C   UNL     1      -7.921  12.149  70.200  1.00  0.00     2.940 C  
HETATM    2  C   UNL     1      -6.806  12.365  69.344  1.00  0.00     0.021 C  
HETATM    3  C   UNL     1      -8.032  12.356  68.440  1.00  0.00    -0.149 C  
HETATM    4  C   UNL     1      -9.746  12.416  69.591  1.00  0.00     1.629 C  
HETATM    5  C   UNL     1     -10.787   7.991  68.772  1.00  0.00     0.019 C  
HETATM    6  C   UNL     1      -8.902  13.412  69.217  1.00  0.00     0.798 C  
HETATM    7  C   UNL     1      -9.325   8.233  68.321  1.00  0.00    -0.138 C  
HETATM    8  C   UNL     1      -9.172   7.724  66.691  1.00  0.00    -0.220 C  
HETATM    9  C   UNL     1      -8.710  14.863  69.616  1.00  0.00     0.101 C  
HETATM   10  C   UNL     1     -10.068  12.799  67.834  1.00  0.00    -0.231 C  
HETATM   11  C   UNL     1      -7.789   6.946  66.319  1.00  0.00    -0.101 C  
HETATM   12  C   UNL     1      -7.847   5.841  67.400  1.00  0.00    -0.102 C  
HETATM   13  C   UNL     1      -7.245   6.512  68.653  1.00  0.00    -0.085 C  
HETATM   14  C   UNL     1     -10.251  10.957  67.846  1.00  0.00    -0.205 C  
HETATM   15  C   UNL     1      -8.408   7.329  69.306  1.00  0.00    -0.132 C  
HETATM   16  C   UNL     1      -8.001   7.987  70.635  1.00  0.00    -0.096 C  
HETATM   17  C   UNL     1      -7.411   9.391  70.521  1.00  0.00    -0.138 C  
HETATM   18  C   UNL     1      -8.464  10.367  69.990  1.00  0.00     0.234 C  
HETATM   19  C   UNL     1      -9.066   9.840  68.485  1.00  0.00    -0.128 C  
ENDROOT
BRANCH   3  20
HETATM   20  N   UNL     1      -7.675  12.887  66.963  1.00  0.00    -0.040 NA 
HETATM   21  C   UNL     1      -8.759  16.776  67.448  1.00  0.00    -0.191 C  
HETATM   22  C   UNL     1      -8.614  13.384  65.950  1.00  0.00     1.198 C  
HETATM   23  C   UNL     1      -6.982  16.784  65.719  1.00  0.00     1.017 C  
HETATM   24  C   UNL     1      -6.503  13.770  66.913  1.00  0.00     1.379 C  
HETATM   25  C   UNL     1      -8.806  14.934  65.749  1.00  0.00     0.658 C  
HETATM   26  N   UNL     1      -7.859  15.883  66.583  1.00  0.00    -0.235 N  
HETATM   27  C   UNL     1      -6.892  15.123  67.487  1.00  0.00    -0.174 C  
ENDBRANCH   3  20
BRANCH   4  28
HETATM   28  O   UNL     1     -10.727  13.514  70.046  1.00  0.00     0.408 OA 
BRANCH  28  29
HETATM   29  C   UNL     1     -12.013  13.210  70.346  1.00  0.00    -0.266 C  
HETATM   30  C   UNL     1     -12.575  14.080  71.436  1.00  0.00    -0.451 C  
HETATM   31  O   UNL     1     -12.687  12.367  69.746  1.00  0.00     0.209 OA 
ENDBRANCH  28  29
ENDBRANCH   4  28
BRANCH  12  32
HETATM   32  O   UNL     1      -7.411   4.562  66.939  1.00  0.00    -0.078 OA 
BRANCH  32  33
HETATM   33  C   UNL     1      -8.300   3.571  67.231  1.00  0.00    -0.091 C  
HETATM   34  O   UNL     1      -7.920   2.426  67.395  1.00  0.00    -0.064 OA 
HETATM   35  C   UNL     1      -9.770   3.928  67.214  1.00  0.00    -0.178 C  
ENDBRANCH  32  33
ENDBRANCH  12  32
BRANCH  11  36
HETATM   36  N   UNL     1      -7.274   6.571  64.935  1.00  0.00    -0.064 NA 
HETATM   37  C   UNL     1      -8.426   4.617  63.495  1.00  0.00    -0.121 C  
HETATM   38  C   UNL     1      -8.163   6.144  63.830  1.00  0.00    -0.008 C  
HETATM   39  N   UNL     1      -7.247   3.638  63.717  1.00  0.00    -0.050 N  
HETATM   40  C   UNL     1      -6.452   3.448  62.423  1.00  0.00    -0.022 C  
HETATM   41  C   UNL     1      -6.370   4.109  64.891  1.00  0.00    -0.034 C  
HETATM   42  C   UNL     1      -7.798   2.233  64.072  1.00  0.00    -0.072 C  
HETATM   43  C   UNL     1      -6.100   5.642  64.894  1.00  0.00    -0.022 C  
ENDBRANCH  11  36
TORSDOF 6
ENDMDL
MODEL      101
REMARK 921   NORMALIZED FREE ENERGY PREDICTED BY IDOCK:   10.73 KCAL/MOL
REMARK 922        TOTAL FREE ENERGY PREDICTED BY IDOCK:   12.77 KCAL/MOL
REMARK 923 INTER-LIGAND FREE ENERGY PREDICTED BY IDOCK:    1.75 KCAL/MOL
REMARK 924 INTRA-LIGAND FREE ENERGY PREDICTED BY IDOCK:   11.01 KCAL/MOL
REMARK 927      BINDING AFFINITY PREDICTED BY RF-SCORE:    0.00 PKD
ROOT
HETATM    1  C   UNL     1      -6.828   7.288  69.097  1.00  0.00    -0.061 C  
HETATM    2  C   UNL     1      -6.428   8.072  70.213  1.00  0.00    -0.037 C  
HETATM    3  C   UNL     1      -7.909   7.779  70.417  1.00  0.00    -0.090 C  
HETATM    4  C   UNL     1      -8.528   6.347  69.062  1.00  0.00    -0.124 C  
HETATM    5  C   UNL     1     -10.874   9.390  66.498  1.00  0.00     0.131 C  
HETATM    6  C   UNL     1      -7.862   6.216  70.239  1.00  0.00    -0.102 C  
HETATM    7  C   UNL     1      -9.961  10.181  67.467  1.00  0.00    -0.231 C  
HETATM    8  C   UNL     1     -10.933  11.292  68.338  1.00  0.00    -0.268 C  
HETATM    9  C   UNL     1      -7.130   5.086  70.938  1.00  0.00    -0.055 C  
HETATM   10  C   UNL     1      -9.727   6.593  70.419  1.00  0.00    -0.186 C  
HETATM   11  C   UNL     1     -10.277  12.764  68.585  1.00  0.00    -0.152 C  
HETATM   12  C   UNL     1      -9.945  13.118  67.117  1.00  0.00    -0.236 C  
HETATM   13  C   UNL     1      -8.578  12.445  66.869  1.00  0.00    -0.171 C  
HETATM   14  C   UNL     1     -10.301   7.853  69.191  1.00  0.00    -0.225 C  
HETATM   15  C   UNL     1      -8.888  10.952  66.527  1.00  0.00    -0.169 C  
HETATM   16  C   UNL     1      -7.629  10.152  66.153  1.00  0.00    -0.114 C  
HETATM   17  C   UNL     1      -6.907   9.477  67.316  1.00  0.00    -0.084 C  
HETATM   18  C   UNL     1      -7.797   8.398  67.937  1.00  0.00    -0.107 C  
HETATM   19  C   UNL     1      -9.279   9.066  68.451  1.00  0.00    -0.137 C  
ENDROOT
BRANCH   3  20
HETATM   20  N   UNL     1      -8.384   8.169  71.905  1.00  0.00    -0.130 NA 
HETATM   21  C   UNL     1     -12.398   8.219  71.258  1.00  0.00    -0.263 C  
HETATM   22  C   UNL     1      -9.049   9.407  72.326  1.00  0.00     1.497 C  
HETATM   23  C   UNL     1     -12.110   7.631  73.649  1.00  0.00     2.541 C  
HETATM   24  C   UNL     1      -9.047   7.074  72.626  1.00  0.00    -0.134 C  
HETATM   25  C   UNL     1     -10.611   9.433  72.529  1.00  0.00     1.428 C  
HETATM   26  N   UNL     1     -11.369   8.054  72.385  1.00  0.00    -0.354 N  
HETATM   27  C   UNL     1     -10.441   6.891  72.050  1.00  0.00    -0.205 C  
ENDBRANCH   3  20
BRANCH   4  28
HETATM   28  O   UNL     1      -8.748   4.824  69.097  1.00  0.00    -0.086 OA 
BRANCH  28  29
HETATM   29  C   UNL     1      -7.890   3.987  68.465  1.00  0.00    -0.068 C  
HETATM   30  C   UNL     1      -7.243   4.617  67.263  1.00  0.00    -0.073 C  
HETATM   31  O   UNL     1      -7.600   2.854  68.866  1.00  0.00    -0.048 OA 
ENDBRANCH  28  29
ENDBRANCH   4  28
BRANCH  12  32
HETATM   32  O   UNL     1     -10.190  14.486  66.785  1.00  0.00    -0.259 OA 
BRANCH  32  33
HETATM   33  C   UNL     1     -11.318  14.647  66.038  1.00  0.00    -0.344 C  
HETATM   34  O   UNL     1     -12.329  15.112  66.534  1.00  0.00     0.228 OA 
HETATM   35  C   UNL     1     -11.299  14.111  64.623  1.00  0.00    -0.374 C  
ENDBRANCH  32  33
ENDBRANCH  12  32
BRANCH  11  36
HETATM   36  N   UNL     1     -10.793  13.874  69.493  1.00  0.00    -0.080 NA 
HETATM   37  C   UNL     1     -11.997  16.056  68.490  1.00  0.00     0.038 C  
HETATM   38  C   UNL     1     -12.026  14.644  69.208  1.00  0.00    -0.302 C  
HETATM   39  N   UNL     1     -10.786  16.972  68.795  1.00  0.00    -0.300 N  
HETATM   40  C   UNL     1     -11.107  17.928  69.946  1.00  0.00     1.907 C  
HETATM   41  C   UNL     1      -9.526  16.128  69.055  1.00  0.00    -0.246 C  
HETATM   42  C   UNL     1     -10.502  17.881  67.571  1.00  0.00    -0.390 C  
HETATM   43  C   UNL     1      -9.783  14.880  69.950  1.00  0.00     0.189 C  
ENDBRANCH  11  36
TORSDOF 6
ENDMDL
MODEL      102
REMARK 921   NORMALIZED FREE ENERGY PREDICTED BY IDOCK:   11.00 KCAL/MOL
REMARK 922        TOTAL FREE ENERGY PREDICTED BY IDOCK:   13.13 KCAL/MOL
REMARK 923 INTER-LIGAND FREE ENERGY PREDICTED BY IDOCK:   10.89 KCAL/MOL
REMARK 924 INTRA-LIGAND FREE ENERGY PREDICTED BY IDOCK:    2.24 KCAL/MOL
REMARK 927      BINDING AFFINITY PREDICTED BY RF-SCORE:    0.00 PKD
ROOT
HETATM    1  C   UNL     1     -10.965   6.156  71.062  1.00  0.00    -0.354 C  
HETATM    2  C   UNL     1     -11.292   5.931  69.697  1.00  0.00    -0.164 C  
HETATM    3  C   UNL     1      -9.780   5.781  69.794  1.00  0.00    -0.162 C  
HETATM    4  C   UNL     1      -9.212   5.722  71.779  1.00  0.00    -0.145 C  
HETATM    5  C   UNL     1      -7.425   9.980  71.684  1.00  0.00     1.852 C  
HETATM    6  C   UNL     1      -9.724   4.749  70.981  1.00  0.00    -0.257 C  
HETATM    7  C   UNL     1      -8.278   9.788  70.406  1.00  0.00    -0.119 C  
HETATM    8  C   UNL     1      -7.301  10.153  69.045  1.00  0.00    -0.087 C  
HETATM    9  C   UNL     1     -10.280   3.356  71.207  1.00  0.00     0.214 C  
HETATM   10  C   UNL     1      -7.887   5.159  70.654  1.00  0.00    -0.080 C  
HETATM   11  C   UNL     1      -8.037  10.977  67.846  1.00  0.00    -0.114 C  
HETATM   12  C   UNL     1      -8.565  12.171  68.675  1.00  0.00     0.004 C  
HETATM   13  C   UNL     1      -9.894  11.657  69.268  1.00  0.00     0.281 C  
HETATM   14  C   UNL     1      -7.559   6.980  70.723  1.00  0.00    -0.090 C  
HETATM   15  C   UNL     1      -9.510  10.834  70.541  1.00  0.00     1.935 C  
HETATM   16  C   UNL     1     -10.738  10.327  71.316  1.00  0.00     0.684 C  
HETATM   17  C   UNL     1     -11.265   8.958  70.893  1.00  0.00    -0.334 C  
HETATM   18  C   UNL     1     -10.227   7.875  71.195  1.00  0.00    -0.221 C  
HETATM   19  C   UNL     1      -8.752   8.222  70.414  1.00  0.00    -0.139 C  
ENDROOT
BRANCH   3  20
HETATM   20  N   UNL     1      -9.167   5.138  68.451  1.00  0.00    -0.112 NA 
HETATM   21  C   UNL     1     -11.407   7.173  65.736  1.00  0.00     4.543 C  
HETATM   22  C   UNL     1      -9.863   4.285  67.480  1.00  0.00    -0.109 C  
HETATM   23  C   UNL     1      -9.277   6.641  64.586  1.00  0.00     1.174 C  
HETATM   24  C   UNL     1      -8.336   6.064  67.671  1.00  0.00    -0.108 C  
HETATM   25  C   UNL     1     -10.420   4.906  66.144  1.00  0.00    -0.302 C  
HETATM   26  N   UNL     1     -10.075   6.422  65.866  1.00  0.00     0.360 N  
HETATM   27  C   UNL     1      -9.247   7.062  66.976  1.00  0.00    -0.147 C  
ENDBRANCH   3  20
BRANCH   4  28
HETATM   28  O   UNL     1      -8.871   4.613  72.792  1.00  0.00    -0.116 OA 
BRANCH  28  29
HETATM   29  C   UNL     1      -9.772   4.232  73.730  1.00  0.00    -0.120 C  
HETATM   30  C   UNL     1      -9.297   3.067  74.553  1.00  0.00    -0.111 C  
HETATM   31  O   UNL     1     -10.838   4.818  73.949  1.00  0.00    -0.280 OA 
ENDBRANCH  28  29
ENDBRANCH   4  28
BRANCH  12  32
HETATM   32  O   UNL     1      -8.467  13.427  68.002  1.00  0.00    -0.153 OA 
BRANCH  32  33
HETATM   33  C   UNL     1      -9.687  13.984  67.760  1.00  0.00    -0.228 C  
HETATM   34  O   UNL     1     -10.621  13.295  67.392  1.00  0.00    -0.244 OA 
HETATM   35  C   UNL     1      -9.793  15.491  67.842  1.00  0.00    -0.216 C  
ENDBRANCH  32  33
ENDBRANCH  12  32
BRANCH  11  36
HETATM   36  N   UNL     1      -7.508  11.253  66.444  1.00  0.00    -0.107 NA 
HETATM   37  C   UNL     1      -8.798  12.904  64.761  1.00  0.00     2.042 C  
HETATM   38  C   UNL     1      -7.629  12.571  65.780  1.00  0.00     2.444 C  
HETATM   39  N   UNL     1      -9.298  11.743  63.867  1.00  0.00     0.002 N  
HETATM   40  C   UNL     1      -8.567  11.742  62.523  1.00  0.00     0.795 C  
HETATM   41  C   UNL     1      -9.178  10.400  64.610  1.00  0.00    -0.240 C  
HETATM   42  C   UNL     1     -10.794  11.961  63.523  1.00  0.00    -0.434 C  
HETATM   43  C   UNL     1      -7.844  10.238  65.396  1.00  0.00    -0.149 C  
ENDBRANCH  11  36
TORSDOF 6
ENDMDL
MODEL      103
REMARK 921   NORMALIZED FREE ENERGY PREDICTED BY IDOCK:   11.14 KCAL/MOL
REMARK 922        TOTAL FREE ENERGY PREDICTED BY IDOCK:   13.31 KCAL/MOL
REMARK 923 INTER-LIGAND FREE ENERGY PREDICTED BY IDOCK:   10.74 KCAL/MOL
REMARK 924 INTRA-LIGAND FREE ENERGY PREDICTED BY IDOCK:    2.57 KCAL/MOL
REMARK 927      BINDING AFFINITY PREDICTED BY RF-SCORE:    0.00 PKD
ROOT
HETATM    1  C   UNL     1      -8.441  10.594  65.556  1.00  0.00    -0.177 C  
HETATM    2  C   UNL     1      -7.249  11.114  66.130  1.00  0.00     0.000 C  
HETATM    3  C   UNL     1      -8.210  10.896  67.291  1.00  0.00    -0.123 C  
HETATM    4  C   UNL     1      -9.843   9.805  66.647  1.00  0.00    -0.215 C  
HETATM    5  C   UNL     1     -12.675  13.453  66.762  1.00  0.00     0.320 C  
HETATM    6  C   UNL     1      -8.594   9.398  66.996  1.00  0.00    -0.131 C  
HETATM    7  C   UNL     1     -11.219  13.970  66.870  1.00  0.00    -0.323 C  
HETATM    8  C   UNL     1     -11.101  14.958  68.266  1.00  0.00    -0.290 C  
HETATM    9  C   UNL     1      -7.814   8.103  66.873  1.00  0.00    -0.096 C  
HETATM   10  C   UNL     1      -9.716   9.868  68.469  1.00  0.00    -0.163 C  
HETATM   11  C   UNL     1     -10.192  16.302  68.107  1.00  0.00    -0.258 C  
HETATM   12  C   UNL     1     -10.892  16.911  66.870  1.00  0.00    -0.021 C  
HETATM   13  C   UNL     1     -10.224  16.201  65.674  1.00  0.00    -0.390 C  
HETATM   14  C   UNL     1     -10.722  11.382  68.120  1.00  0.00    -0.241 C  
HETATM   15  C   UNL     1     -10.958  14.829  65.520  1.00  0.00    -0.350 C  
HETATM   16  C   UNL     1     -10.476  14.028  64.299  1.00  0.00     0.126 C  
HETATM   17  C   UNL     1      -9.299  13.088  64.550  1.00  0.00     0.905 C  
HETATM   18  C   UNL     1      -9.707  11.977  65.520  1.00  0.00    -0.221 C  
HETATM   19  C   UNL     1     -10.277  12.638  66.985  1.00  0.00    -0.233 C  
ENDROOT
BRANCH   3  20
HETATM   20  N   UNL     1      -7.456  11.022  68.708  1.00  0.00    -0.107 NA 
HETATM   21  C   UNL     1      -5.326  14.401  67.955  1.00  0.00    -0.069 C  
HETATM   22  C   UNL     1      -6.016  10.897  68.958  1.00  0.00    -0.041 C  
HETATM   23  C   UNL     1      -5.694  14.371  70.406  1.00  0.00    -0.146 C  
HETATM   24  C   UNL     1      -7.928  12.137  69.538  1.00  0.00     0.959 C  
HETATM   25  C   UNL     1      -5.129  12.189  69.115  1.00  0.00    -0.055 C  
HETATM   26  N   UNL     1      -5.887  13.575  69.119  1.00  0.00    -0.081 N  
HETATM   27  C   UNL     1      -7.396  13.434  68.952  1.00  0.00    -0.033 C  
ENDBRANCH   3  20
BRANCH   4  28
HETATM   28  O   UNL     1     -10.262   8.324  66.693  1.00  0.00    -0.290 OA 
BRANCH  28  29
HETATM   29  C   UNL     1     -11.490   7.967  67.141  1.00  0.00     1.678 C  
HETATM   30  C   UNL     1     -11.814   8.562  68.484  1.00  0.00     2.185 C  
HETATM   31  O   UNL     1     -12.298   7.292  66.494  1.00  0.00     4.255 OA 
ENDBRANCH  28  29
ENDBRANCH   4  28
BRANCH  12  32
HETATM   32  O   UNL     1     -11.034  18.331  66.929  1.00  0.00    -0.205 OA 
BRANCH  32  33
HETATM   33  C   UNL     1     -11.159  18.894  65.694  1.00  0.00     0.383 C  
HETATM   34  O   UNL     1     -12.040  18.533  64.935  1.00  0.00     3.680 OA 
HETATM   35  C   UNL     1     -10.095  19.880  65.267  1.00  0.00     0.354 C  
ENDBRANCH  32  33
ENDBRANCH  12  32
BRANCH  11  36
HETATM   36  N   UNL     1      -9.726  17.248  69.207  1.00  0.00    -0.104 NA 
HETATM   37  C   UNL     1      -9.337  19.864  68.731  1.00  0.00    -0.136 C  
HETATM   38  C   UNL     1     -10.181  18.654  69.310  1.00  0.00     0.096 C  
HETATM   39  N   UNL     1      -7.795  19.736  68.796  1.00  0.00    -0.280 N  
HETATM   40  C   UNL     1      -7.251  20.390  70.069  1.00  0.00     0.607 C  
HETATM   41  C   UNL     1      -7.371  18.263  68.656  1.00  0.00    -0.290 C  
HETATM   42  C   UNL     1      -7.159  20.525  67.623  1.00  0.00    -0.321 C  
HETATM   43  C   UNL     1      -8.254  17.278  69.477  1.00  0.00     0.583 C  
ENDBRANCH  11  36
TORSDOF 6
ENDMDL
MODEL      104
REMARK 921   NORMALIZED FREE ENERGY PREDICTED BY IDOCK:   11.22 KCAL/MOL
REMARK 922        TOTAL FREE ENERGY PREDICTED BY IDOCK:   13.42 KCAL/MOL
REMARK 923 INTER-LIGAND FREE ENERGY PREDICTED BY IDOCK:   -1.05 KCAL/MOL
REMARK 924 INTRA-LIGAND FREE ENERGY PREDICTED BY IDOCK:   14.48 KCAL/MOL
REMARK 927      BINDING AFFINITY PREDICTED BY RF-SCORE:    0.00 PKD
ROOT
HETATM    1  C   UNL     1      -9.253  13.232  66.892  1.00  0.00    -0.242 C  
HETATM    2  C   UNL     1     -10.074  12.356  67.654  1.00  0.00    -0.199 C  
HETATM    3  C   UNL     1      -8.639  12.030  68.046  1.00  0.00    -0.170 C  
HETATM    4  C   UNL     1      -7.367  13.471  67.290  1.00  0.00    -0.012 C  
HETATM    5  C   UNL     1      -5.679  10.667  64.030  1.00  0.00    -0.035 C  
HETATM    6  C   UNL     1      -8.157  13.487  68.395  1.00  0.00    -0.145 C  
HETATM    7  C   UNL     1      -6.954  10.011  64.615  1.00  0.00    -0.137 C  
HETATM    8  C   UNL     1      -6.556   8.426  65.133  1.00  0.00    -0.063 C  
HETATM    9  C   UNL     1      -8.608  14.551  69.377  1.00  0.00     0.199 C  
HETATM   10  C   UNL     1      -6.572  12.434  68.568  1.00  0.00    -0.073 C  
HETATM   11  C   UNL     1      -7.676   7.281  64.830  1.00  0.00    -0.115 C  
HETATM   12  C   UNL     1      -7.833   7.507  63.308  1.00  0.00    -0.126 C  
HETATM   13  C   UNL     1      -8.849   8.664  63.204  1.00  0.00     0.211 C  
HETATM   14  C   UNL     1      -6.213  11.462  67.034  1.00  0.00    -0.123 C  
HETATM   15  C   UNL     1      -8.027   9.980  63.400  1.00  0.00    -0.156 C  
HETATM   16  C   UNL     1      -8.881  11.247  63.226  1.00  0.00    -0.016 C  
HETATM   17  C   UNL     1      -9.550  11.770  64.495  1.00  0.00    -0.093 C  
HETATM   18  C   UNL     1      -8.492  12.233  65.500  1.00  0.00     1.048 C  
HETATM   19  C   UNL     1      -7.414  10.963  65.864  1.00  0.00    -0.048 C  
ENDROOT
BRANCH   3  20
HETATM   20  N   UNL     1      -8.588  11.085  69.349  1.00  0.00     0.087 NA 
HETATM   21  C   UNL     1      -5.528   8.661  68.212  1.00  0.00    -0.034 C  
HETATM   22  C   UNL     1      -8.895   9.652  69.416  1.00  0.00    -0.180 C  
HETATM   23  C   UNL     1      -5.467   8.704  70.689  1.00  0.00    -0.027 C  
HETATM   24  C   UNL     1      -7.406  11.298  70.194  1.00  0.00     0.873 C  
HETATM   25  C   UNL     1      -7.727   8.596  69.413  1.00  0.00    -0.091 C  
HETATM   26  N   UNL     1      -6.254   9.164  69.467  1.00  0.00    -0.039 N  
HETATM   27  C   UNL     1      -6.200  10.688  69.500  1.00  0.00    -0.059 C  
ENDBRANCH   3  20
BRANCH   4  28
HETATM   28  O   UNL     1      -6.687  14.736  67.845  1.00  0.00    -0.131 OA 
BRANCH  28  29
HETATM   29  C   UNL     1      -6.916  15.947  67.281  1.00  0.00    -0.206 C  
HETATM   30  C   UNL     1      -6.612  17.088  68.213  1.00  0.00    -0.156 C  
HETATM   31  O   UNL     1      -7.262  16.114  66.107  1.00  0.00     0.097 OA 
ENDBRANCH  28  29
ENDBRANCH   4  28
BRANCH  12  32
HETATM   32  O   UNL     1      -7.976   6.300  62.559  1.00  0.00    -0.089 OA 
BRANCH  32  33
HETATM   33  C   UNL     1      -7.659   5.193  63.288  1.00  0.00    -0.063 C  
HETATM   34  O   UNL     1      -8.533   4.522  63.806  1.00  0.00    -0.109 OA 
HETATM   35  C   UNL     1      -6.192   4.913  63.529  1.00  0.00    -0.022 C  
ENDBRANCH  32  33
ENDBRANCH  12  32
BRANCH  11  36
HETATM   36  N   UNL     1      -7.709   5.849  65.351  1.00  0.00    -0.088 NA 
HETATM   37  C   UNL     1      -8.881   5.239  67.690  1.00  0.00    -0.105 C  
HETATM   38  C   UNL     1      -8.854   5.291  66.106  1.00  0.00    -0.135 C  
HETATM   39  N   UNL     1      -7.529   5.001  68.406  1.00  0.00    -0.073 N  
HETATM   40  C   UNL     1      -7.320   3.511  68.686  1.00  0.00    -0.050 C  
HETATM   41  C   UNL     1      -6.376   5.623  67.598  1.00  0.00    -0.042 C  
HETATM   42  C   UNL     1      -7.553   5.683  69.799  1.00  0.00    -0.075 C  
HETATM   43  C   UNL     1      -6.482   5.375  66.065  1.00  0.00    -0.044 C  
ENDBRANCH  11  36
TORSDOF 6
ENDMDL
MODEL      105
REMARK 921   NORMALIZED FREE ENERGY PREDICTED BY IDOCK:   11.84 KCAL/MOL
REMARK 922        TOTAL FREE ENERGY PREDICTED BY IDOCK:   14.26 KCAL/MOL
REMARK 923 INTER-LIGAND FREE ENERGY PREDICTED BY IDOCK:    7.26 KCAL/MOL
REMARK 924 INTRA-LIGAND FREE ENERGY PREDICTED BY IDOCK:    7.00 KCAL/MOL
REMARK 927      BINDING AFFINITY PREDICTED BY RF-SCORE:    0.00 PKD
ROOT
HETATM    1  C   UNL     1     -12.456   6.879  71.584  1.00  0.00    -0.418 C  
HETATM    2  C   UNL     1     -12.542   6.265  70.304  1.00  0.00     1.322 C  
HETATM    3  C   UNL     1     -11.060   6.305  70.649  1.00  0.00    -0.327 C  
HETATM    4  C   UNL     1     -10.819   6.836  72.631  1.00  0.00    -0.250 C  
HETATM    5  C   UNL     1      -9.307  11.078  71.600  1.00  0.00     9.156 C  
HETATM    6  C   UNL     1     -11.134   5.638  72.072  1.00  0.00    -0.291 C  
HETATM    7  C   UNL     1      -9.928  10.464  70.321  1.00  0.00     0.213 C  
HETATM    8  C   UNL     1      -8.768  10.553  69.062  1.00  0.00    -0.160 C  
HETATM    9  C   UNL     1     -11.631   4.306  72.599  1.00  0.00     0.353 C  
HETATM   10  C   UNL     1      -9.297   6.136  71.903  1.00  0.00    -0.157 C  
HETATM   11  C   UNL     1      -9.349  10.947  67.591  1.00  0.00    -0.156 C  
HETATM   12  C   UNL     1     -10.077  12.257  67.972  1.00  0.00    -0.206 C  
HETATM   13  C   UNL     1     -11.450  11.784  68.493  1.00  0.00    -0.353 C  
HETATM   14  C   UNL     1      -9.098   7.933  71.507  1.00  0.00    -0.169 C  
HETATM   15  C   UNL     1     -11.228  11.374  69.986  1.00  0.00    -0.160 C  
HETATM   16  C   UNL     1     -12.531  10.967  70.693  1.00  0.00    -0.465 C  
HETATM   17  C   UNL     1     -12.897   9.487  70.600  1.00  0.00     0.011 C  
HETATM   18  C   UNL     1     -11.857   8.638  71.334  1.00  0.00    -0.352 C  
HETATM   19  C   UNL     1     -10.299   8.917  70.700  1.00  0.00    -0.265 C  
ENDROOT
BRANCH   3  20
HETATM   20  N   UNL     1     -10.198   5.396  69.638  1.00  0.00    -0.251 NA 
HETATM   21  C   UNL     1     -11.028   7.383  66.189  1.00  0.00     1.953 C  
HETATM   22  C   UNL     1     -10.710   4.545  68.557  1.00  0.00     1.109 C  
HETATM   23  C   UNL     1      -8.794   6.360  65.855  1.00  0.00    -0.131 C  
HETATM   24  C   UNL     1      -8.998   6.060  69.111  1.00  0.00    -0.124 C  
HETATM   25  C   UNL     1     -10.687   5.061  67.070  1.00  0.00     0.053 C  
HETATM   26  N   UNL     1      -9.980   6.450  66.810  1.00  0.00    -0.170 N  
HETATM   27  C   UNL     1      -9.430   7.090  68.081  1.00  0.00    -0.123 C  
ENDBRANCH   3  20
BRANCH   4  28
HETATM   28  O   UNL     1     -10.579   6.079  73.950  1.00  0.00    -0.268 OA 
BRANCH  28  29
HETATM   29  C   UNL     1      -9.445   5.360  74.137  1.00  0.00    -0.138 C  
HETATM   30  C   UNL     1      -9.665   3.880  73.991  1.00  0.00    -0.138 C  
HETATM   31  O   UNL     1      -8.330   5.857  74.330  1.00  0.00    -0.111 OA 
ENDBRANCH  28  29
ENDBRANCH   4  28
BRANCH  12  32
HETATM   32  O   UNL     1      -9.949  13.292  66.995  1.00  0.00    -0.230 OA 
BRANCH  32  33
HETATM   33  C   UNL     1     -10.345  14.507  67.468  1.00  0.00    -0.244 C  
HETATM   34  O   UNL     1     -11.500  14.873  67.346  1.00  0.00    -0.339 OA 
HETATM   35  C   UNL     1      -9.275  15.419  68.027  1.00  0.00    -0.184 C  
ENDBRANCH  32  33
ENDBRANCH  12  32
BRANCH  11  36
HETATM   36  N   UNL     1      -8.617  10.894  66.255  1.00  0.00    -0.159 NA 
HETATM   37  C   UNL     1      -7.877   8.556  65.157  1.00  0.00    -0.116 C  
HETATM   38  C   UNL     1      -8.830   9.819  65.259  1.00  0.00    -0.175 C  
HETATM   39  N   UNL     1      -6.377   8.784  65.470  1.00  0.00    -0.062 N  
HETATM   40  C   UNL     1      -5.595   9.070  64.186  1.00  0.00    -0.068 C  
HETATM   41  C   UNL     1      -6.210   9.888  66.528  1.00  0.00    -0.069 C  
HETATM   42  C   UNL     1      -5.764   7.481  66.044  1.00  0.00    -0.036 C  
HETATM   43  C   UNL     1      -7.137  11.118  66.301  1.00  0.00    -0.049 C  
ENDBRANCH  11  36
TORSDOF 6
ENDMDL
MODEL      106
REMARK 921   NORMALIZED FREE ENERGY PREDICTED BY IDOCK:   12.08 KCAL/MOL
REMARK 922        TOTAL FREE ENERGY PREDICTED BY IDOCK:   14.59 KCAL/MOL
REMARK 923 INTER-LIGAND FREE ENERGY PREDICTED BY IDOCK:   11.99 KCAL/MOL
REMARK 924 INTRA-LIGAND FREE ENERGY PREDICTED BY IDOCK:    2.59 KCAL/MOL
REMARK 927      BINDING AFFINITY PREDICTED BY RF-SCORE:    0.00 PKD
ROOT
HETATM    1  C   UNL     1     -11.013  14.239  67.687  1.00  0.00    -0.286 C  
HETATM    2  C   UNL     1     -10.011  14.292  68.695  1.00  0.00    -0.234 C  
HETATM    3  C   UNL     1      -9.276  14.023  67.388  1.00  0.00    -0.216 C  
HETATM    4  C   UNL     1     -10.568  14.285  65.797  1.00  0.00    -0.309 C  
HETATM    5  C   UNL     1     -10.903   9.753  64.965  1.00  0.00     1.932 C  
HETATM    6  C   UNL     1      -9.883  15.198  66.535  1.00  0.00    -0.278 C  
HETATM    7  C   UNL     1     -10.248   9.940  66.356  1.00  0.00    -0.292 C  
HETATM    8  C   UNL     1      -8.770   9.070  66.378  1.00  0.00    -0.149 C  
HETATM    9  C   UNL     1      -9.916  16.708  66.672  1.00  0.00    -0.290 C  
HETATM   10  C   UNL     1      -8.816  14.233  65.277  1.00  0.00     2.116 C  
HETATM   11  C   UNL     1      -8.434   8.281  67.764  1.00  0.00    -0.131 C  
HETATM   12  C   UNL     1      -9.738   7.459  67.885  1.00  0.00    -0.143 C  
HETATM   13  C   UNL     1     -10.730   8.427  68.565  1.00  0.00    -0.069 C  
HETATM   14  C   UNL     1      -9.269  12.439  65.215  1.00  0.00     0.356 C  
HETATM   15  C   UNL     1     -11.305   9.328  67.423  1.00  0.00     0.824 C  
HETATM   16  C   UNL     1     -12.393  10.295  67.918  1.00  0.00     2.922 C  
HETATM   17  C   UNL     1     -11.897  11.655  68.402  1.00  0.00    -0.346 C  
HETATM   18  C   UNL     1     -11.278  12.437  67.241  1.00  0.00    -0.357 C  
HETATM   19  C   UNL     1     -10.010  11.549  66.527  1.00  0.00    -0.240 C  
ENDROOT
BRANCH   3  20
HETATM   20  N   UNL     1      -7.686  14.208  67.561  1.00  0.00    -0.177 NA 
HETATM   21  C   UNL     1      -7.726  17.103  70.416  1.00  0.00     2.918 C  
HETATM   22  C   UNL     1      -6.892  15.396  67.229  1.00  0.00    -0.108 C  
HETATM   23  C   UNL     1      -5.611  15.856  70.753  1.00  0.00    -0.009 C  
HETATM   24  C   UNL     1      -7.161  13.698  68.834  1.00  0.00    -0.102 C  
HETATM   25  C   UNL     1      -6.470  16.404  68.363  1.00  0.00    -0.135 C  
HETATM   26  N   UNL     1      -6.829  15.996  69.847  1.00  0.00    -0.082 N  
HETATM   27  C   UNL     1      -7.561  14.660  69.941  1.00  0.00     0.183 C  
ENDBRANCH   3  20
BRANCH   4  28
HETATM   28  O   UNL     1     -10.866  15.419  64.799  1.00  0.00    -0.422 OA 
BRANCH  28  29
HETATM   29  C   UNL     1     -11.625  15.190  63.700  1.00  0.00     1.001 C  
HETATM   30  C   UNL     1     -11.539  13.767  63.221  1.00  0.00     0.543 C  
HETATM   31  O   UNL     1     -12.371  16.028  63.182  1.00  0.00     0.908 OA 
ENDBRANCH  28  29
ENDBRANCH   4  28
BRANCH  12  32
HETATM   32  O   UNL     1      -9.536   6.125  68.354  1.00  0.00    -0.118 OA 
BRANCH  32  33
HETATM   33  C   UNL     1     -10.691   5.543  68.784  1.00  0.00    -0.125 C  
HETATM   34  O   UNL     1     -11.219   5.904  69.820  1.00  0.00    -0.389 OA 
HETATM   35  C   UNL     1     -11.208   4.359  67.997  1.00  0.00     3.731 C  
ENDBRANCH  32  33
ENDBRANCH  12  32
BRANCH  11  36
HETATM   36  N   UNL     1      -7.123   7.613  68.162  1.00  0.00    -0.078 NA 
HETATM   37  C   UNL     1      -6.401   5.233  67.145  1.00  0.00    -0.040 C  
HETATM   38  C   UNL     1      -6.306   6.814  67.221  1.00  0.00    -0.047 C  
HETATM   39  N   UNL     1      -6.676   4.484  68.472  1.00  0.00    -0.046 N  
HETATM   40  C   UNL     1      -5.364   4.048  69.128  1.00  0.00    -0.012 C  
HETATM   41  C   UNL     1      -7.551   5.342  69.403  1.00  0.00    -0.077 C  
HETATM   42  C   UNL     1      -7.446   3.171  68.176  1.00  0.00    -0.053 C  
HETATM   43  C   UNL     1      -7.135   6.842  69.445  1.00  0.00    -0.080 C  
ENDBRANCH  11  36
TORSDOF 6
ENDMDL
MODEL      107
REMARK 921   NORMALIZED FREE ENERGY PREDICTED BY IDOCK:   13.54 KCAL/MOL
REMARK 922        TOTAL FREE ENERGY PREDICTED BY IDOCK:   16.56 KCAL/MOL
REMARK 923 INTER-LIGAND FREE ENERGY PREDICTED BY IDOCK:    0.55 KCAL/MOL
REMARK 924 INTRA-LIGAND FREE ENERGY PREDICTED BY IDOCK:   16.01 KCAL/MOL
REMARK 927      BINDING AFFINITY PREDICTED BY RF-SCORE:    0.00 PKD
ROOT
HETATM    1  C   UNL     1     -10.673   5.711  69.838  1.00  0.00    -0.399 C  
HETATM    2  C   UNL     1     -11.214   5.748  68.524  1.00  0.00     0.160 C  
HETATM    3  C   UNL     1      -9.756   6.167  68.388  1.00  0.00    -0.122 C  
HETATM    4  C   UNL     1      -8.760   5.806  70.161  1.00  0.00    -0.139 C  
HETATM    5  C   UNL     1      -8.533  10.285  71.268  1.00  0.00     2.865 C  
HETATM    6  C   UNL     1      -9.095   4.961  69.152  1.00  0.00    -0.144 C  
HETATM    7  C   UNL     1      -9.547  10.127  70.108  1.00  0.00    -0.029 C  
HETATM    8  C   UNL     1      -9.083  11.183  68.839  1.00  0.00    -0.098 C  
HETATM    9  C   UNL     1      -9.097   3.455  68.969  1.00  0.00    -0.205 C  
HETATM   10  C   UNL     1      -7.619   6.111  68.766  1.00  0.00    -0.092 C  
HETATM   11  C   UNL     1     -10.303  11.949  68.075  1.00  0.00    -0.196 C  
HETATM   12  C   UNL     1     -10.985  12.586  69.308  1.00  0.00    -0.080 C  
HETATM   13  C   UNL     1     -11.900  11.467  69.849  1.00  0.00    -0.435 C  
HETATM   14  C   UNL     1      -7.897   7.830  69.393  1.00  0.00    -0.115 C  
HETATM   15  C   UNL     1     -10.986  10.548  70.724  1.00  0.00     0.068 C  
HETATM   16  C   UNL     1     -11.768   9.425  71.427  1.00  0.00    -0.448 C  
HETATM   17  C   UNL     1     -11.902   8.123  70.640  1.00  0.00    -0.093 C  
HETATM   18  C   UNL     1     -10.527   7.480  70.444  1.00  0.00    -0.227 C  
HETATM   19  C   UNL     1      -9.468   8.557  69.654  1.00  0.00    -0.165 C  
ENDROOT
BRANCH   3  20
HETATM   20  N   UNL     1      -9.293   6.187  66.846  1.00  0.00    -0.129 NA 
HETATM   21  C   UNL     1     -10.875   2.621  65.699  1.00  0.00     3.178 C  
HETATM   22  C   UNL     1      -8.337   5.282  66.197  1.00  0.00    -0.115 C  
HETATM   23  C   UNL     1     -10.838   4.027  63.658  1.00  0.00    -0.013 C  
HETATM   24  C   UNL     1     -10.394   6.382  65.894  1.00  0.00     0.757 C  
HETATM   25  C   UNL     1      -8.860   4.067  65.341  1.00  0.00    -0.123 C  
HETATM   26  N   UNL     1     -10.421   3.969  65.124  1.00  0.00    -0.153 N  
HETATM   27  C   UNL     1     -11.194   5.092  65.810  1.00  0.00     0.382 C  
ENDBRANCH   3  20
BRANCH   4  28
HETATM   28  O   UNL     1      -7.852   4.686  70.703  1.00  0.00    -0.060 OA 
BRANCH  28  29
HETATM   29  C   UNL     1      -7.579   3.593  69.950  1.00  0.00    -0.048 C  
HETATM   30  C   UNL     1      -6.803   2.548  70.704  1.00  0.00    -0.033 C  
HETATM   31  O   UNL     1      -7.984   3.424  68.795  1.00  0.00    -0.061 OA 
ENDBRANCH  28  29
ENDBRANCH   4  28
BRANCH  12  32
HETATM   32  O   UNL     1     -11.461  13.913  69.081  1.00  0.00    -0.262 OA 
BRANCH  32  33
HETATM   33  C   UNL     1     -11.821  14.542  70.234  1.00  0.00    -0.308 C  
HETATM   34  O   UNL     1     -12.053  13.901  71.243  1.00  0.00    -0.319 OA 
HETATM   35  C   UNL     1     -12.044  16.037  70.173  1.00  0.00    -0.160 C  
ENDBRANCH  32  33
ENDBRANCH  12  32
BRANCH  11  36
HETATM   36  N   UNL     1     -10.230  12.767  66.791  1.00  0.00    -0.236 NA 
HETATM   37  C   UNL     1      -9.108  15.207  66.749  1.00  0.00    -0.256 C  
HETATM   38  C   UNL     1      -9.088  13.649  66.459  1.00  0.00    -0.119 C  
HETATM   39  N   UNL     1     -10.471  15.928  66.610  1.00  0.00    -0.303 N  
HETATM   40  C   UNL     1     -10.631  16.517  65.207  1.00  0.00    -0.253 C  
HETATM   41  C   UNL     1     -11.622  14.981  66.993  1.00  0.00    -0.240 C  
HETATM   42  C   UNL     1     -10.517  17.141  67.575  1.00  0.00    -0.348 C  
HETATM   43  C   UNL     1     -11.460  13.539  66.427  1.00  0.00    -0.331 C  
ENDBRANCH  11  36
TORSDOF 6
ENDMDL
MODEL      108
REMARK 921   NORMALIZED FREE ENERGY PREDICTED BY IDOCK:   14.32 KCAL/MOL
REMARK 922        TOTAL FREE ENERGY PREDICTED BY IDOCK:   17.62 KCAL/MOL
REMARK 923 INTER-LIGAND FREE ENERGY PREDICTED BY IDOCK:   11.36 KCAL/MOL
REMARK 924 INTRA-LIGAND FREE ENERGY PREDICTED BY IDOCK:    6.26 KCAL/MOL
REMARK 927      BINDING AFFINITY PREDICTED BY RF-SCORE:    0.00 PKD
ROOT
HETATM    1  C   UNL     1     -10.147  10.487  68.153  1.00  0.00    -0.180 C  
HETATM    2  C   UNL     1     -11.158  11.303  68.730  1.00  0.00    -0.288 C  
HETATM    3  C   UNL     1     -10.851  11.918  67.371  1.00  0.00    -0.243 C  
HETATM    4  C   UNL     1      -9.667  10.627  66.275  1.00  0.00    -0.199 C  
HETATM    5  C   UNL     1      -5.880  13.222  66.789  1.00  0.00     1.562 C  
HETATM    6  C   UNL     1     -11.008  10.623  66.490  1.00  0.00    -0.098 C  
HETATM    7  C   UNL     1      -6.946  13.723  67.794  1.00  0.00    -0.178 C  
HETATM    8  C   UNL     1      -7.163  15.407  67.557  1.00  0.00    -0.224 C  
HETATM    9  C   UNL     1     -12.132   9.636  66.239  1.00  0.00     6.514 C  
HETATM   10  C   UNL     1     -10.408  11.943  65.246  1.00  0.00    -0.316 C  
HETATM   11  C   UNL     1      -7.345  16.295  68.912  1.00  0.00    -0.198 C  
HETATM   12  C   UNL     1      -6.067  15.847  69.657  1.00  0.00    -0.167 C  
HETATM   13  C   UNL     1      -6.478  14.530  70.349  1.00  0.00    -0.111 C  
HETATM   14  C   UNL     1      -8.836  12.751  65.797  1.00  0.00     0.620 C  
HETATM   15  C   UNL     1      -6.341  13.411  69.266  1.00  0.00    -0.110 C  
HETATM   16  C   UNL     1      -6.622  12.005  69.822  1.00  0.00     0.001 C  
HETATM   17  C   UNL     1      -8.077  11.548  69.753  1.00  0.00     1.106 C  
HETATM   18  C   UNL     1      -8.520  11.409  68.295  1.00  0.00    -0.154 C  
HETATM   19  C   UNL     1      -8.308  12.880  67.460  1.00  0.00    -0.183 C  
ENDROOT
BRANCH   3  20
HETATM   20  N   UNL     1     -11.951  13.020  66.964  1.00  0.00    -0.375 NA 
HETATM   21  C   UNL     1      -9.498  15.635  65.046  1.00  0.00     0.811 C  
HETATM   22  C   UNL     1     -12.041  14.402  67.450  1.00  0.00    -0.313 C  
HETATM   23  C   UNL     1     -11.730  15.919  64.004  1.00  0.00     0.141 C  
HETATM   24  C   UNL     1     -12.250  13.064  65.527  1.00  0.00    -0.469 C  
HETATM   25  C   UNL     1     -11.488  15.584  66.569  1.00  0.00     0.080 C  
HETATM   26  N   UNL     1     -10.971  15.213  65.123  1.00  0.00    -0.392 N  
HETATM   27  C   UNL     1     -11.082  13.723  64.811  1.00  0.00    -0.377 C  
ENDBRANCH   3  20
BRANCH   4  28
HETATM   28  O   UNL     1      -9.911   9.580  65.173  1.00  0.00    -0.196 OA 
BRANCH  28  29
HETATM   29  C   UNL     1      -9.286   8.378  65.211  1.00  0.00     0.316 C  
HETATM   30  C   UNL     1      -8.152   8.282  64.227  1.00  0.00    -0.147 C  
HETATM   31  O   UNL     1      -9.556   7.478  66.013  1.00  0.00    -0.053 OA 
ENDBRANCH  28  29
ENDBRANCH   4  28
BRANCH  12  32
HETATM   32  O   UNL     1      -5.410  16.903  70.360  1.00  0.00    -0.201 OA 
BRANCH  32  33
HETATM   33  C   UNL     1      -5.495  16.760  71.713  1.00  0.00     0.629 C  
HETATM   34  O   UNL     1      -5.225  15.697  72.241  1.00  0.00    -0.012 OA 
HETATM   35  C   UNL     1      -6.055  17.922  72.502  1.00  0.00     2.970 C  
ENDBRANCH  32  33
ENDBRANCH  12  32
BRANCH  11  36
HETATM   36  N   UNL     1      -7.765  17.756  69.019  1.00  0.00    -0.187 NA 
HETATM   37  C   UNL     1     -10.355  18.464  69.128  1.00  0.00     0.067 C  
HETATM   38  C   UNL     1      -8.942  18.204  69.798  1.00  0.00     1.212 C  
HETATM   39  N   UNL     1     -10.351  19.027  67.685  1.00  0.00    -0.397 N  
HETATM   40  C   UNL     1     -10.442  20.555  67.702  1.00  0.00     0.058 C  
HETATM   41  C   UNL     1      -9.127  18.512  66.909  1.00  0.00    -0.290 C  
HETATM   42  C   UNL     1     -11.622  18.547  66.938  1.00  0.00     1.575 C  
HETATM   43  C   UNL     1      -7.809  18.529  67.737  1.00  0.00    -0.245 C  
ENDBRANCH  11  36
TORSDOF 6
ENDMDL
MODEL      109
REMARK 921   NORMALIZED FREE ENERGY PREDICTED BY IDOCK:   15.72 KCAL/MOL
REMARK 922        TOTAL FREE ENERGY PREDICTED BY IDOCK:   19.50 KCAL/MOL
REMARK 923 INTER-LIGAND FREE ENERGY PREDICTED BY IDOCK:   19.98 KCAL/MOL
REMARK 924 INTRA-LIGAND FREE ENERGY PREDICTED BY IDOCK:   -0.48 KCAL/MOL
REMARK 927      BINDING AFFINITY PREDICTED BY RF-SCORE:    0.00 PKD
ROOT
HETATM    1  C   UNL     1     -10.447   7.489  68.928  1.00  0.00    -0.214 C  
HETATM    2  C   UNL     1     -11.390   8.384  69.504  1.00  0.00     0.282 C  
HETATM    3  C   UNL     1     -10.873   9.074  68.249  1.00  0.00    -0.017 C  
HETATM    4  C   UNL     1      -9.773   7.736  67.123  1.00  0.00    -0.186 C  
HETATM    5  C   UNL     1      -5.739   9.699  68.223  1.00  0.00    -0.040 C  
HETATM    6  C   UNL     1     -11.117   7.905  67.224  1.00  0.00     0.234 C  
HETATM    7  C   UNL     1      -6.820  10.250  69.185  1.00  0.00    -0.062 C  
HETATM    8  C   UNL     1      -6.784  11.963  69.113  1.00  0.00    -0.105 C  
HETATM    9  C   UNL     1     -12.334   7.118  66.777  1.00  0.00     6.181 C  
HETATM   10  C   UNL     1     -10.227   9.236  66.183  1.00  0.00    -0.229 C  
HETATM   11  C   UNL     1      -6.976  12.735  70.536  1.00  0.00     1.844 C  
HETATM   12  C   UNL     1      -5.847  12.039  71.331  1.00  0.00     0.654 C  
HETATM   13  C   UNL     1      -6.498  10.736  71.842  1.00  0.00     2.130 C  
HETATM   14  C   UNL     1      -8.621   9.754  66.945  1.00  0.00    -0.128 C  
HETATM   15  C   UNL     1      -6.408   9.716  70.660  1.00  0.00    -0.097 C  
HETATM   16  C   UNL     1      -6.928   8.319  71.036  1.00  0.00    -0.054 C  
HETATM   17  C   UNL     1      -8.418   8.085  70.799  1.00  0.00    -0.124 C  
HETATM   18  C   UNL     1      -8.732   8.149  69.302  1.00  0.00    -0.140 C  
HETATM   19  C   UNL     1      -8.244   9.648  68.651  1.00  0.00    -0.105 C  
ENDROOT
BRANCH   3  20
HETATM   20  N   UNL     1     -11.770  10.357  67.873  1.00  0.00    -0.260 NA 
HETATM   21  C   UNL     1     -11.768  12.175  71.510  1.00  0.00     1.880 C  
HETATM   22  C   UNL     1     -13.105  10.684  68.387  1.00  0.00     4.729 C  
HETATM   23  C   UNL     1     -12.025  13.996  69.848  1.00  0.00    -0.336 C  
HETATM   24  C   UNL     1     -11.019  11.618  67.830  1.00  0.00    -0.225 C  
HETATM   25  C   UNL     1     -13.266  11.734  69.550  1.00  0.00     1.933 C  
HETATM   26  N   UNL     1     -11.956  12.482  70.019  1.00  0.00    -0.334 N  
HETATM   27  C   UNL     1     -10.710  12.044  69.256  1.00  0.00    -0.013 C  
ENDBRANCH   3  20
BRANCH   4  28
HETATM   28  O   UNL     1     -10.048   6.844  65.898  1.00  0.00     0.355 OA 
BRANCH  28  29
HETATM   29  C   UNL     1      -9.025   6.333  65.171  1.00  0.00     0.235 C  
HETATM   30  C   UNL     1      -8.181   5.367  65.956  1.00  0.00    -0.116 C  
HETATM   31  O   UNL     1      -8.838   6.565  63.972  1.00  0.00     0.451 OA 
ENDBRANCH  28  29
ENDBRANCH   4  28
BRANCH  12  32
HETATM   32  O   UNL     1      -5.126  12.918  72.195  1.00  0.00    -0.308 OA 
BRANCH  32  33
HETATM   33  C   UNL     1      -5.612  12.913  73.468  1.00  0.00     0.911 C  
HETATM   34  O   UNL     1      -6.149  13.903  73.931  1.00  0.00    -0.471 OA 
HETATM   35  C   UNL     1      -5.345  11.685  74.311  1.00  0.00     0.606 C  
ENDBRANCH  32  33
ENDBRANCH  12  32
BRANCH  11  36
HETATM   36  N   UNL     1      -7.203  14.225  70.764  1.00  0.00     0.904 NA 
HETATM   37  C   UNL     1      -8.584  15.715  69.006  1.00  0.00    -0.232 C  
HETATM   38  C   UNL     1      -8.449  14.921  70.372  1.00  0.00     1.234 C  
HETATM   39  N   UNL     1      -7.316  16.436  68.488  1.00  0.00    -0.171 N  
HETATM   40  C   UNL     1      -7.293  17.893  68.955  1.00  0.00    -0.190 C  
HETATM   41  C   UNL     1      -6.051  15.660  68.896  1.00  0.00    -0.108 C  
HETATM   42  C   UNL     1      -7.353  16.501  66.939  1.00  0.00    -0.225 C  
HETATM   43  C   UNL     1      -6.085  15.135  70.361  1.00  0.00    -0.095 C  
ENDBRANCH  11  36
TORSDOF 6
ENDMDL
MODEL      110
REMARK 921   NORMALIZED FREE ENERGY PREDICTED BY IDOCK:   15.72 KCAL/MOL
REMARK 922        TOTAL FREE ENERGY PREDICTED BY IDOCK:   19.50 KCAL/MOL
REMARK 923 INTER-LIGAND FREE ENERGY PREDICTED BY IDOCK:   18.21 KCAL/MOL
REMARK 924 INTRA-LIGAND FREE ENERGY PREDICTED BY IDOCK:    1.29 KCAL/MOL
REMARK 927      BINDING AFFINITY PREDICTED BY RF-SCORE:    0.00 PKD
ROOT
HETATM    1  C   UNL     1     -11.194  14.329  67.670  1.00  0.00    -0.321 C  
HETATM    2  C   UNL     1     -10.114  14.109  68.568  1.00  0.00    -0.243 C  
HETATM    3  C   UNL     1      -9.494  14.183  67.179  1.00  0.00    -0.236 C  
HETATM    4  C   UNL     1     -10.899  14.861  65.824  1.00  0.00    -0.339 C  
HETATM    5  C   UNL     1     -11.438  10.705  63.882  1.00  0.00     1.690 C  
HETATM    6  C   UNL     1     -10.130  15.544  66.712  1.00  0.00    -0.268 C  
HETATM    7  C   UNL     1     -10.669  10.517  65.213  1.00  0.00    -0.019 C  
HETATM    8  C   UNL     1      -9.223   9.658  64.884  1.00  0.00    -0.306 C  
HETATM    9  C   UNL     1     -10.105  16.967  67.238  1.00  0.00    -0.286 C  
HETATM   10  C   UNL     1      -9.197  14.930  65.163  1.00  0.00     1.070 C  
HETATM   11  C   UNL     1      -8.802   8.533  65.986  1.00  0.00    -0.173 C  
HETATM   12  C   UNL     1     -10.117   7.719  66.001  1.00  0.00     0.504 C  
HETATM   13  C   UNL     1     -11.021   8.487  66.988  1.00  0.00     0.207 C  
HETATM   14  C   UNL     1      -9.708  13.218  64.678  1.00  0.00     0.176 C  
HETATM   15  C   UNL     1     -11.657   9.659  66.171  1.00  0.00     3.134 C  
HETATM   16  C   UNL     1     -12.672  10.474  66.989  1.00  0.00     6.869 C  
HETATM   17  C   UNL     1     -12.097  11.656  67.765  1.00  0.00     0.089 C  
HETATM   18  C   UNL     1     -11.549  12.708  66.797  1.00  0.00    -0.438 C  
HETATM   19  C   UNL     1     -10.369  12.024  65.774  1.00  0.00    -0.289 C  
ENDROOT
BRANCH   3  20
HETATM   20  N   UNL     1      -7.890  14.302  67.258  1.00  0.00    -0.181 NA 
HETATM   21  C   UNL     1      -7.211  11.404  70.028  1.00  0.00     0.573 C  
HETATM   22  C   UNL     1      -7.091  14.740  68.408  1.00  0.00    -0.114 C  
HETATM   23  C   UNL     1      -5.159  11.501  68.641  1.00  0.00    -0.043 C  
HETATM   24  C   UNL     1      -7.177  13.163  66.665  1.00  0.00     1.165 C  
HETATM   25  C   UNL     1      -6.401  13.673  69.339  1.00  0.00    -0.108 C  
HETATM   26  N   UNL     1      -6.510  12.162  68.893  1.00  0.00    -0.081 N  
HETATM   27  C   UNL     1      -7.301  11.974  67.602  1.00  0.00    -0.121 C  
ENDBRANCH   3  20
BRANCH   4  28
HETATM   28  O   UNL     1     -11.240  16.218  65.182  1.00  0.00    -0.235 OA 
BRANCH  28  29
HETATM   29  C   UNL     1     -12.158  16.301  64.189  1.00  0.00     0.669 C  
HETATM   30  C   UNL     1     -12.926  15.022  63.999  1.00  0.00     1.057 C  
HETATM   31  O   UNL     1     -12.404  17.331  63.553  1.00  0.00     3.373 OA 
ENDBRANCH  28  29
ENDBRANCH   4  28
BRANCH  12  32
HETATM   32  O   UNL     1      -9.919   6.308  66.090  1.00  0.00    -0.038 OA 
BRANCH  32  33
HETATM   33  C   UNL     1     -11.004   5.661  66.603  1.00  0.00    -0.091 C  
HETATM   34  O   UNL     1     -11.306   5.792  67.776  1.00  0.00     0.166 OA 
HETATM   35  C   UNL     1     -11.727   4.688  65.698  1.00  0.00     1.930 C  
ENDBRANCH  32  33
ENDBRANCH  12  32
BRANCH  11  36
HETATM   36  N   UNL     1      -7.485   7.772  66.085  1.00  0.00    -0.078 NA 
HETATM   37  C   UNL     1      -6.885   5.786  64.378  1.00  0.00    -0.050 C  
HETATM   38  C   UNL     1      -6.747   7.276  64.901  1.00  0.00    -0.047 C  
HETATM   39  N   UNL     1      -7.093   4.686  65.448  1.00  0.00    -0.062 N  
HETATM   40  C   UNL     1      -5.753   4.072  65.860  1.00  0.00    -0.018 C  
HETATM   41  C   UNL     1      -7.887   5.241  66.643  1.00  0.00    -0.100 C  
HETATM   42  C   UNL     1      -7.911   3.518  64.838  1.00  0.00    -0.090 C  
HETATM   43  C   UNL     1      -7.434   6.662  67.089  1.00  0.00    -0.088 C  
ENDBRANCH  11  36
TORSDOF 6
ENDMDL
MODEL      111
REMARK 921   NORMALIZED FREE ENERGY PREDICTED BY IDOCK:   16.59 KCAL/MOL
REMARK 922        TOTAL FREE ENERGY PREDICTED BY IDOCK:   20.67 KCAL/MOL
REMARK 923 INTER-LIGAND FREE ENERGY PREDICTED BY IDOCK:   17.98 KCAL/MOL
REMARK 924 INTRA-LIGAND FREE ENERGY PREDICTED BY IDOCK:    2.70 KCAL/MOL
REMARK 927      BINDING AFFINITY PREDICTED BY RF-SCORE:    0.00 PKD
ROOT
HETATM    1  C   UNL     1     -10.436   8.498  72.301  1.00  0.00    -0.402 C  
HETATM    2  C   UNL     1     -11.232   7.851  71.316  1.00  0.00    -0.283 C  
HETATM    3  C   UNL     1      -9.811   7.856  70.768  1.00  0.00    -0.180 C  
HETATM    4  C   UNL     1      -8.495   8.436  72.251  1.00  0.00    -0.177 C  
HETATM    5  C   UNL     1      -7.783  12.597  70.376  1.00  0.00     3.634 C  
HETATM    6  C   UNL     1      -9.079   7.233  72.015  1.00  0.00    -0.144 C  
HETATM    7  C   UNL     1      -9.021  11.966  69.692  1.00  0.00     1.607 C  
HETATM    8  C   UNL     1      -8.766  11.983  67.996  1.00  0.00    -0.175 C  
HETATM    9  C   UNL     1      -9.207   5.932  72.784  1.00  0.00    -0.142 C  
HETATM   10  C   UNL     1      -7.649   7.668  70.825  1.00  0.00    -0.080 C  
HETATM   11  C   UNL     1     -10.070  12.352  67.089  1.00  0.00    -0.213 C  
HETATM   12  C   UNL     1     -10.446  13.694  67.758  1.00  0.00    -0.240 C  
HETATM   13  C   UNL     1     -11.294  13.279  68.979  1.00  0.00    -0.334 C  
HETATM   14  C   UNL     1      -7.691   9.446  70.311  1.00  0.00    -0.151 C  
HETATM   15  C   UNL     1     -10.276  12.906  70.106  1.00  0.00     2.471 C  
HETATM   16  C   UNL     1     -10.962  12.559  71.438  1.00  0.00     4.897 C  
HETATM   17  C   UNL     1     -11.330  11.089  71.627  1.00  0.00     2.080 C  
HETATM   18  C   UNL     1     -10.065  10.230  71.686  1.00  0.00     2.908 C  
HETATM   19  C   UNL     1      -9.129  10.443  70.277  1.00  0.00     0.624 C  
ENDROOT
BRANCH   3  20
HETATM   20  N   UNL     1      -9.674   6.891  69.487  1.00  0.00    -0.158 NA 
HETATM   21  C   UNL     1      -7.199   4.098  71.101  1.00  0.00    -0.040 C  
HETATM   22  C   UNL     1      -8.462   6.630  68.701  1.00  0.00    -0.122 C  
HETATM   23  C   UNL     1      -8.510   2.911  69.364  1.00  0.00    -0.062 C  
HETATM   24  C   UNL     1     -10.361   5.601  69.634  1.00  0.00    -0.276 C  
HETATM   25  C   UNL     1      -7.627   5.319  68.954  1.00  0.00    -0.081 C  
HETATM   26  N   UNL     1      -8.229   4.278  69.978  1.00  0.00    -0.062 N  
HETATM   27  C   UNL     1      -9.555   4.731  70.583  1.00  0.00    -0.185 C  
ENDBRANCH   3  20
BRANCH   4  28
HETATM   28  O   UNL     1      -7.562   7.710  73.239  1.00  0.00    -0.092 OA 
BRANCH  28  29
HETATM   29  C   UNL     1      -6.632   8.398  73.943  1.00  0.00    -0.119 C  
HETATM   30  C   UNL     1      -5.279   7.742  73.914  1.00  0.00    -0.045 C  
HETATM   31  O   UNL     1      -6.838   9.487  74.491  1.00  0.00    -0.259 OA 
ENDBRANCH  28  29
ENDBRANCH   4  28
BRANCH  12  32
HETATM   32  O   UNL     1     -10.879  14.695  66.836  1.00  0.00    -0.293 OA 
BRANCH  32  33
HETATM   33  C   UNL     1     -10.362  15.924  67.120  1.00  0.00    -0.300 C  
HETATM   34  O   UNL     1      -9.235  16.033  67.567  1.00  0.00    -0.208 OA 
HETATM   35  C   UNL     1     -11.282  17.116  66.979  1.00  0.00     0.414 C  
ENDBRANCH  32  33
ENDBRANCH  12  32
BRANCH  11  36
HETATM   36  N   UNL     1     -10.214  12.238  65.576  1.00  0.00    -0.265 NA 
HETATM   37  C   UNL     1     -10.943   9.929  64.410  1.00  0.00     3.135 C  
HETATM   38  C   UNL     1     -11.245  11.398  64.924  1.00  0.00    -0.110 C  
HETATM   39  N   UNL     1      -9.523   9.661  63.854  1.00  0.00    -0.051 N  
HETATM   40  C   UNL     1      -9.493   9.847  62.335  1.00  0.00    -0.137 C  
HETATM   41  C   UNL     1      -8.485  10.534  64.581  1.00  0.00    -0.139 C  
HETATM   42  C   UNL     1      -9.143   8.177  64.094  1.00  0.00     1.067 C  
HETATM   43  C   UNL     1      -8.952  12.002  64.805  1.00  0.00     0.668 C  
ENDBRANCH  11  36
TORSDOF 6
ENDMDL
MODEL      112
REMARK 921   NORMALIZED FREE ENERGY PREDICTED BY IDOCK:   16.75 KCAL/MOL
REMARK 922        TOTAL FREE ENERGY PREDICTED BY IDOCK:   20.90 KCAL/MOL
REMARK 923 INTER-LIGAND FREE ENERGY PREDICTED BY IDOCK:   20.06 KCAL/MOL
REMARK 924 INTRA-LIGAND FREE ENERGY PREDICTED BY IDOCK:    0.84 KCAL/MOL
REMARK 927      BINDING AFFINITY PREDICTED BY RF-SCORE:    0.00 PKD
ROOT
HETATM    1  C   UNL     1      -9.095  10.344  71.519  1.00  0.00     4.519 C  
HETATM    2  C   UNL     1     -10.234  11.195  71.471  1.00  0.00     6.385 C  
HETATM    3  C   UNL     1     -10.079  10.624  70.068  1.00  0.00     0.232 C  
HETATM    4  C   UNL     1      -8.690   9.095  70.087  1.00  0.00    -0.181 C  
HETATM    5  C   UNL     1      -5.469  11.622  67.947  1.00  0.00    -0.048 C  
HETATM    6  C   UNL     1     -10.000   9.098  70.445  1.00  0.00    -0.263 C  
HETATM    7  C   UNL     1      -6.592  12.577  68.423  1.00  0.00    -0.070 C  
HETATM    8  C   UNL     1      -7.136  13.485  67.074  1.00  0.00     0.474 C  
HETATM    9  C   UNL     1     -10.916   8.132  71.172  1.00  0.00    -0.271 C  
HETATM   10  C   UNL     1      -9.693   9.112  68.560  1.00  0.00    -0.166 C  
HETATM   11  C   UNL     1      -7.460  15.056  67.363  1.00  0.00    -0.205 C  
HETATM   12  C   UNL     1      -6.104  15.462  67.985  1.00  0.00    -0.142 C  
HETATM   13  C   UNL     1      -6.238  15.062  69.470  1.00  0.00    -0.124 C  
HETATM   14  C   UNL     1      -8.297  10.234  68.092  1.00  0.00    -0.118 C  
HETATM   15  C   UNL     1      -5.908  13.535  69.538  1.00  0.00    -0.104 C  
HETATM   16  C   UNL     1      -5.899  12.991  70.976  1.00  0.00     0.032 C  
HETATM   17  C   UNL     1      -7.239  12.471  71.491  1.00  0.00     6.716 C  
HETATM   18  C   UNL     1      -7.676  11.244  70.688  1.00  0.00     3.090 C  
HETATM   19  C   UNL     1      -7.771  11.617  69.027  1.00  0.00    -0.002 C  
ENDROOT
BRANCH   3  20
HETATM   20  N   UNL     1     -11.381  10.921  69.168  1.00  0.00    -0.258 NA 
HETATM   21  C   UNL     1     -12.138  14.708  70.440  1.00  0.00    -0.319 C  
HETATM   22  C   UNL     1     -12.753  11.137  69.640  1.00  0.00     0.147 C  
HETATM   23  C   UNL     1     -13.016  14.588  68.126  1.00  0.00     1.931 C  
HETATM   24  C   UNL     1     -11.153  11.893  68.091  1.00  0.00    -0.242 C  
HETATM   25  C   UNL     1     -13.319  12.601  69.771  1.00  0.00     2.159 C  
HETATM   26  N   UNL     1     -12.393  13.771  69.252  1.00  0.00    -0.252 N  
HETATM   27  C   UNL     1     -11.056  13.280  68.705  1.00  0.00    -0.266 C  
ENDBRANCH   3  20
BRANCH   4  28
HETATM   28  O   UNL     1      -8.748   7.558  70.150  1.00  0.00    -0.140 OA 
BRANCH  28  29
HETATM   29  C   UNL     1      -7.626   6.832  70.373  1.00  0.00    -0.095 C  
HETATM   30  C   UNL     1      -6.734   7.447  71.415  1.00  0.00    -0.050 C  
HETATM   31  O   UNL     1      -7.385   5.742  69.842  1.00  0.00    -0.067 OA 
ENDBRANCH  28  29
ENDBRANCH   4  28
BRANCH  12  32
HETATM   32  O   UNL     1      -5.651  16.756  67.584  1.00  0.00    -0.120 OA 
BRANCH  32  33
HETATM   33  C   UNL     1      -5.415  17.578  68.645  1.00  0.00    -0.150 C  
HETATM   34  O   UNL     1      -5.281  17.120  69.766  1.00  0.00    -0.156 OA 
HETATM   35  C   UNL     1      -5.456  19.069  68.394  1.00  0.00    -0.197 C  
ENDBRANCH  32  33
ENDBRANCH  12  32
BRANCH  11  36
HETATM   36  N   UNL     1      -8.153  16.050  66.438  1.00  0.00    -0.268 NA 
HETATM   37  C   UNL     1      -8.635  18.578  67.211  1.00  0.00    -0.262 C  
HETATM   38  C   UNL     1      -7.813  17.491  66.401  1.00  0.00    -0.294 C  
HETATM   39  N   UNL     1     -10.157  18.333  67.365  1.00  0.00    -0.335 N  
HETATM   40  C   UNL     1     -10.934  19.045  66.256  1.00  0.00     0.007 C  
HETATM   41  C   UNL     1     -10.455  16.824  67.428  1.00  0.00    -0.310 C  
HETATM   42  C   UNL     1     -10.652  18.968  68.690  1.00  0.00     0.123 C  
HETATM   43  C   UNL     1      -9.648  15.984  66.396  1.00  0.00    -0.283 C  
ENDBRANCH  11  36
TORSDOF 6
ENDMDL
MODEL      113
REMARK 921   NORMALIZED FREE ENERGY PREDICTED BY IDOCK:   17.77 KCAL/MOL
REMARK 922        TOTAL FREE ENERGY PREDICTED BY IDOCK:   22.27 KCAL/MOL
REMARK 923 INTER-LIGAND FREE ENERGY PREDICTED BY IDOCK:   11.86 KCAL/MOL
REMARK 924 INTRA-LIGAND FREE ENERGY PREDICTED BY IDOCK:   10.41 KCAL/MOL
REMARK 927      BINDING AFFINITY PREDICTED BY RF-SCORE:    0.00 PKD
ROOT
HETATM    1  C   UNL     1      -6.869   5.711  68.989  1.00  0.00    -0.062 C  
HETATM    2  C   UNL     1      -7.060   6.062  70.353  1.00  0.00    -0.070 C  
HETATM    3  C   UNL     1      -8.418   6.230  69.685  1.00  0.00    -0.129 C  
HETATM    4  C   UNL     1      -8.368   5.407  67.791  1.00  0.00    -0.099 C  
HETATM    5  C   UNL     1      -8.344   9.526  65.700  1.00  0.00    -0.131 C  
HETATM    6  C   UNL     1      -8.519   4.815  69.004  1.00  0.00    -0.087 C  
HETATM    7  C   UNL     1      -8.034   9.747  67.201  1.00  0.00    -0.102 C  
HETATM    8  C   UNL     1      -9.145  10.898  67.817  1.00  0.00    -0.149 C  
HETATM    9  C   UNL     1      -8.496   3.386  69.511  1.00  0.00    -0.097 C  
HETATM   10  C   UNL     1     -10.071   5.731  68.370  1.00  0.00    -0.216 C  
HETATM   11  C   UNL     1      -8.529  11.987  68.863  1.00  0.00     0.177 C  
HETATM   12  C   UNL     1      -7.373  12.521  67.987  1.00  0.00    -0.111 C  
HETATM   13  C   UNL     1      -6.230  11.510  68.218  1.00  0.00    -0.045 C  
HETATM   14  C   UNL     1      -9.645   7.343  67.567  1.00  0.00    -0.171 C  
HETATM   15  C   UNL     1      -6.515  10.310  67.257  1.00  0.00    -0.067 C  
HETATM   16  C   UNL     1      -5.406   9.245  67.289  1.00  0.00    -0.037 C  
HETATM   17  C   UNL     1      -5.586   8.136  68.324  1.00  0.00    -0.034 C  
HETATM   18  C   UNL     1      -6.824   7.299  67.993  1.00  0.00    -0.070 C  
HETATM   19  C   UNL     1      -8.212   8.286  67.915  1.00  0.00    -0.128 C  
ENDROOT
BRANCH   3  20
HETATM   20  N   UNL     1      -9.588   6.423  70.774  1.00  0.00    -0.178 NA 
HETATM   21  C   UNL     1     -11.389   9.686  69.150  1.00  0.00     0.071 C  
HETATM   22  C   UNL     1      -9.756   7.546  71.704  1.00  0.00    -0.161 C  
HETATM   23  C   UNL     1     -13.170   8.478  70.381  1.00  0.00     1.226 C  
HETATM   24  C   UNL     1     -10.928   6.090  70.276  1.00  0.00    -0.342 C  
HETATM   25  C   UNL     1     -10.778   8.697  71.370  1.00  0.00    -0.268 C  
HETATM   26  N   UNL     1     -11.674   8.502  70.084  1.00  0.00     0.081 N  
HETATM   27  C   UNL     1     -11.386   7.200  69.344  1.00  0.00     0.031 C  
ENDBRANCH   3  20
BRANCH   4  28
HETATM   28  O   UNL     1      -8.799   4.069  67.163  1.00  0.00    -0.109 OA 
BRANCH  28  29
HETATM   29  C   UNL     1      -8.265   3.652  65.989  1.00  0.00    -0.101 C  
HETATM   30  C   UNL     1      -6.886   3.075  66.151  1.00  0.00    -0.048 C  
HETATM   31  O   UNL     1      -8.863   3.667  64.908  1.00  0.00    -0.115 OA 
ENDBRANCH  28  29
ENDBRANCH   4  28
BRANCH  12  32
HETATM   32  O   UNL     1      -7.173  13.931  68.096  1.00  0.00    -0.093 OA 
BRANCH  32  33
HETATM   33  C   UNL     1      -8.213  14.646  67.580  1.00  0.00    -0.188 C  
HETATM   34  O   UNL     1      -8.786  15.482  68.255  1.00  0.00    -0.164 OA 
HETATM   35  C   UNL     1      -8.698  14.270  66.197  1.00  0.00     0.442 C  
ENDBRANCH  32  33
ENDBRANCH  12  32
BRANCH  11  36
HETATM   36  N   UNL     1      -9.293  12.980  69.731  1.00  0.00     1.974 NA 
HETATM   37  C   UNL     1     -11.770  12.445  70.622  1.00  0.00     0.284 C  
HETATM   38  C   UNL     1     -10.203  12.566  70.824  1.00  0.00     5.566 C  
HETATM   39  N   UNL     1     -12.432  13.456  69.653  1.00  0.00    -0.111 N  
HETATM   40  C   UNL     1     -12.952  14.675  70.417  1.00  0.00    -0.200 C  
HETATM   41  C   UNL     1     -11.458  13.833  68.522  1.00  0.00    -0.307 C  
HETATM   42  C   UNL     1     -13.683  12.810  69.004  1.00  0.00     6.218 C  
HETATM   43  C   UNL     1     -10.001  14.084  69.009  1.00  0.00    -0.017 C  
ENDBRANCH  11  36
TORSDOF 6
ENDMDL
MODEL      114
REMARK 921   NORMALIZED FREE ENERGY PREDICTED BY IDOCK:   17.80 KCAL/MOL
REMARK 922        TOTAL FREE ENERGY PREDICTED BY IDOCK:   22.31 KCAL/MOL
REMARK 923 INTER-LIGAND FREE ENERGY PREDICTED BY IDOCK:   14.17 KCAL/MOL
REMARK 924 INTRA-LIGAND FREE ENERGY PREDICTED BY IDOCK:    8.15 KCAL/MOL
REMARK 927      BINDING AFFINITY PREDICTED BY RF-SCORE:    0.00 PKD
ROOT
HETATM    1  C   UNL     1     -10.369  15.442  71.005  1.00  0.00     0.443 C  
HETATM    2  C   UNL     1      -8.973  15.301  71.232  1.00  0.00     3.320 C  
HETATM    3  C   UNL     1      -9.125  15.609  69.749  1.00  0.00    -0.040 C  
HETATM    4  C   UNL     1     -11.066  16.196  69.356  1.00  0.00    -0.335 C  
HETATM    5  C   UNL     1     -12.137  12.225  67.253  1.00  0.00    -0.017 C  
HETATM    6  C   UNL     1     -10.022  16.897  69.870  1.00  0.00     0.404 C  
HETATM    7  C   UNL     1     -10.800  12.024  68.009  1.00  0.00    -0.254 C  
HETATM    8  C   UNL     1      -9.635  11.435  66.897  1.00  0.00    -0.203 C  
HETATM    9  C   UNL     1      -9.862  18.245  70.545  1.00  0.00     2.407 C  
HETATM   10  C   UNL     1      -9.923  16.593  67.986  1.00  0.00    -0.258 C  
HETATM   11  C   UNL     1      -8.633  10.282  67.466  1.00  0.00    -0.118 C  
HETATM   12  C   UNL     1      -9.697   9.279  67.970  1.00  0.00    -0.150 C  
HETATM   13  C   UNL     1     -10.059   9.795  69.379  1.00  0.00    -0.221 C  
HETATM   14  C   UNL     1     -10.459  14.881  67.530  1.00  0.00    -0.254 C  
HETATM   15  C   UNL     1     -11.111  10.932  69.166  1.00  0.00    -0.301 C  
HETATM   16  C   UNL     1     -11.658  11.494  70.489  1.00  0.00    -0.096 C  
HETATM   17  C   UNL     1     -10.878  12.666  71.079  1.00  0.00     3.984 C  
HETATM   18  C   UNL     1     -10.969  13.882  70.154  1.00  0.00     0.308 C  
HETATM   19  C   UNL     1     -10.392  13.495  68.597  1.00  0.00    -0.220 C  
ENDROOT
BRANCH   3  20
HETATM   20  N   UNL     1      -7.706  15.964  69.075  1.00  0.00    -0.195 NA 
HETATM   21  C   UNL     1      -6.311  12.177  68.584  1.00  0.00    -0.063 C  
HETATM   22  C   UNL     1      -6.374  15.732  69.644  1.00  0.00    -0.178 C  
HETATM   23  C   UNL     1      -5.248  13.522  66.794  1.00  0.00     1.715 C  
HETATM   24  C   UNL     1      -7.618  15.617  67.651  1.00  0.00    -0.158 C  
HETATM   25  C   UNL     1      -5.532  14.480  69.192  1.00  0.00    -0.084 C  
HETATM   26  N   UNL     1      -6.138  13.597  68.031  1.00  0.00    -0.124 N  
HETATM   27  C   UNL     1      -7.485  14.107  67.530  1.00  0.00    -0.174 C  
ENDBRANCH   3  20
BRANCH   4  28
HETATM   28  O   UNL     1     -11.793  17.543  69.184  1.00  0.00     1.563 OA 
BRANCH  28  29
HETATM   29  C   UNL     1     -11.613  18.288  68.066  1.00  0.00     1.478 C  
HETATM   30  C   UNL     1     -11.739  17.480  66.804  1.00  0.00     2.015 C  
HETATM   31  O   UNL     1     -11.442  19.512  68.065  1.00  0.00     0.453 OA 
ENDBRANCH  28  29
ENDBRANCH   4  28
BRANCH  12  32
HETATM   32  O   UNL     1      -9.362   7.913  67.723  1.00  0.00    -0.139 OA 
BRANCH  32  33
HETATM   33  C   UNL     1     -10.445   7.089  67.796  1.00  0.00    -0.223 C  
HETATM   34  O   UNL     1     -11.567   7.550  67.900  1.00  0.00     0.704 OA 
HETATM   35  C   UNL     1     -10.185   5.601  67.872  1.00  0.00    -0.234 C  
ENDBRANCH  32  33
ENDBRANCH  12  32
BRANCH  11  36
HETATM   36  N   UNL     1      -7.379   9.727  66.802  1.00  0.00    -0.090 NA 
HETATM   37  C   UNL     1      -7.165   9.568  64.128  1.00  0.00    -0.115 C  
HETATM   38  C   UNL     1      -6.843  10.249  65.523  1.00  0.00    -0.134 C  
HETATM   39  N   UNL     1      -7.319   8.027  64.120  1.00  0.00    -0.090 N  
HETATM   40  C   UNL     1      -5.990   7.353  63.773  1.00  0.00    -0.048 C  
HETATM   41  C   UNL     1      -7.904   7.538  65.456  1.00  0.00    -0.114 C  
HETATM   42  C   UNL     1      -8.299   7.610  62.993  1.00  0.00     0.088 C  
HETATM   43  C   UNL     1      -7.286   8.236  66.703  1.00  0.00    -0.082 C  
ENDBRANCH  11  36
TORSDOF 6
ENDMDL
MODEL      115
REMARK 921   NORMALIZED FREE ENERGY PREDICTED BY IDOCK:   18.92 KCAL/MOL
REMARK 922        TOTAL FREE ENERGY PREDICTED BY IDOCK:   23.82 KCAL/MOL
REMARK 923 INTER-LIGAND FREE ENERGY PREDICTED BY IDOCK:    4.10 KCAL/MOL
REMARK 924 INTRA-LIGAND FREE ENERGY PREDICTED BY IDOCK:   19.72 KCAL/MOL
REMARK 927      BINDING AFFINITY PREDICTED BY RF-SCORE:    0.00 PKD
ROOT
HETATM    1  C   UNL     1     -12.005   6.216  71.523  1.00  0.00    -0.132 C  
HETATM    2  C   UNL     1     -12.162   5.738  70.193  1.00  0.00     2.229 C  
HETATM    3  C   UNL     1     -10.661   5.836  70.427  1.00  0.00    -0.294 C  
HETATM    4  C   UNL     1     -10.289   6.168  72.432  1.00  0.00    -0.192 C  
HETATM    5  C   UNL     1      -9.103  10.582  71.768  1.00  0.00     6.523 C  
HETATM    6  C   UNL     1     -10.581   5.018  71.769  1.00  0.00    -0.204 C  
HETATM    7  C   UNL     1      -9.792  10.070  70.478  1.00  0.00     0.017 C  
HETATM    8  C   UNL     1      -8.745  10.366  69.154  1.00  0.00    -0.173 C  
HETATM    9  C   UNL     1     -10.959   3.608  72.181  1.00  0.00     0.557 C  
HETATM   10  C   UNL     1      -8.794   5.647  71.519  1.00  0.00    -0.141 C  
HETATM   11  C   UNL     1      -9.466  10.876  67.783  1.00  0.00    -0.157 C  
HETATM   12  C   UNL     1     -10.231  12.089  68.361  1.00  0.00    -0.209 C  
HETATM   13  C   UNL     1     -11.529  11.477  68.928  1.00  0.00    -0.352 C  
HETATM   14  C   UNL     1      -8.728   7.485  71.310  1.00  0.00    -0.127 C  
HETATM   15  C   UNL     1     -11.163  10.926  70.345  1.00  0.00    -0.191 C  
HETATM   16  C   UNL     1     -12.380  10.363  71.099  1.00  0.00    -0.505 C  
HETATM   17  C   UNL     1     -12.669   8.881  70.870  1.00  0.00     0.015 C  
HETATM   18  C   UNL     1     -11.527   8.027  71.425  1.00  0.00    -0.293 C  
HETATM   19  C   UNL     1     -10.044   8.471  70.710  1.00  0.00    -0.237 C  
ENDROOT
BRANCH   3  20
HETATM   20  N   UNL     1      -9.836   5.096  69.259  1.00  0.00    -0.172 NA 
HETATM   21  C   UNL     1      -7.021   3.286  71.568  1.00  0.00    -0.031 C  
HETATM   22  C   UNL     1      -8.453   5.362  68.847  1.00  0.00    -0.099 C  
HETATM   23  C   UNL     1      -7.277   1.845  69.568  1.00  0.00    -0.036 C  
HETATM   24  C   UNL     1     -10.001   3.637  69.244  1.00  0.00     0.343 C  
HETATM   25  C   UNL     1      -7.287   4.434  69.356  1.00  0.00    -0.051 C  
HETATM   26  N   UNL     1      -7.704   3.166  70.200  1.00  0.00    -0.044 N  
HETATM   27  C   UNL     1      -9.212   3.049  70.402  1.00  0.00    -0.141 C  
ENDBRANCH   3  20
BRANCH   4  28
HETATM   28  O   UNL     1      -9.900   5.291  73.637  1.00  0.00    -0.151 OA 
BRANCH  28  29
HETATM   29  C   UNL     1      -9.506   4.007  73.458  1.00  0.00    -0.103 C  
HETATM   30  C   UNL     1     -10.523   3.014  73.950  1.00  0.00    -0.245 C  
HETATM   31  O   UNL     1      -8.464   3.671  72.885  1.00  0.00    -0.085 OA 
ENDBRANCH  28  29
ENDBRANCH   4  28
BRANCH  12  32
HETATM   32  O   UNL     1     -10.241  13.227  67.498  1.00  0.00    -0.220 OA 
BRANCH  32  33
HETATM   33  C   UNL     1     -11.352  13.999  67.667  1.00  0.00    -0.312 C  
HETATM   34  O   UNL     1     -12.374  13.756  67.050  1.00  0.00    -0.378 OA 
HETATM   35  C   UNL     1     -11.221  15.227  68.540  1.00  0.00    -0.308 C  
ENDBRANCH  32  33
ENDBRANCH  12  32
BRANCH  11  36
HETATM   36  N   UNL     1      -8.843  11.013  66.398  1.00  0.00    -0.171 NA 
HETATM   37  C   UNL     1      -9.895  12.651  64.547  1.00  0.00    -0.042 C  
HETATM   38  C   UNL     1      -8.814  12.289  65.648  1.00  0.00     0.443 C  
HETATM   39  N   UNL     1     -10.451  11.480  63.699  1.00  0.00    -0.386 N  
HETATM   40  C   UNL     1      -9.656  11.327  62.401  1.00  0.00     0.088 C  
HETATM   41  C   UNL     1     -10.488  10.185  64.530  1.00  0.00     0.521 C  
HETATM   42  C   UNL     1     -11.902  11.802  63.259  1.00  0.00    -0.240 C  
HETATM   43  C   UNL     1      -9.215   9.962  65.398  1.00  0.00    -0.211 C  
ENDBRANCH  11  36
TORSDOF 6
ENDMDL
MODEL      116
REMARK 921   NORMALIZED FREE ENERGY PREDICTED BY IDOCK:   19.59 KCAL/MOL
REMARK 922        TOTAL FREE ENERGY PREDICTED BY IDOCK:   24.72 KCAL/MOL
REMARK 923 INTER-LIGAND FREE ENERGY PREDICTED BY IDOCK:    9.76 KCAL/MOL
REMARK 924 INTRA-LIGAND FREE ENERGY PREDICTED BY IDOCK:   14.96 KCAL/MOL
REMARK 927      BINDING AFFINITY PREDICTED BY RF-SCORE:    0.00 PKD
ROOT
HETATM    1  C   UNL     1     -11.142   5.895  69.740  1.00  0.00    -0.422 C  
HETATM    2  C   UNL     1     -11.162   6.387  68.406  1.00  0.00    -0.297 C  
HETATM    3  C   UNL     1      -9.921   6.987  69.054  1.00  0.00    -0.164 C  
HETATM    4  C   UNL     1      -9.572   6.068  70.871  1.00  0.00    -0.169 C  
HETATM    5  C   UNL     1     -10.959   9.739  73.308  1.00  0.00     6.105 C  
HETATM    6  C   UNL     1      -9.284   5.659  69.608  1.00  0.00    -0.163 C  
HETATM    7  C   UNL     1     -11.406   9.940  71.839  1.00  0.00     0.361 C  
HETATM    8  C   UNL     1     -10.816  11.456  71.298  1.00  0.00     3.453 C  
HETATM    9  C   UNL     1      -8.819   4.358  68.981  1.00  0.00    -0.131 C  
HETATM   10  C   UNL     1      -8.132   7.026  70.282  1.00  0.00    -0.119 C  
HETATM   11  C   UNL     1     -11.836  12.320  70.364  1.00  0.00    -0.170 C  
HETATM   12  C   UNL     1     -13.059  12.336  71.310  1.00  0.00    -0.116 C  
HETATM   13  C   UNL     1     -13.774  10.999  71.021  1.00  0.00     0.903 C  
HETATM   14  C   UNL     1      -9.063   8.314  71.230  1.00  0.00    -0.202 C  
HETATM   15  C   UNL     1     -13.028   9.918  71.868  1.00  0.00    -0.545 C  
HETATM   16  C   UNL     1     -13.681   8.529  71.771  1.00  0.00    -0.444 C  
HETATM   17  C   UNL     1     -13.171   7.638  70.641  1.00  0.00     0.383 C  
HETATM   18  C   UNL     1     -11.700   7.284  70.869  1.00  0.00    -0.348 C  
HETATM   19  C   UNL     1     -10.755   8.697  70.998  1.00  0.00    -0.284 C  
ENDROOT
BRANCH   3  20
HETATM   20  N   UNL     1      -8.958   7.667  67.958  1.00  0.00    -0.127 NA 
HETATM   21  C   UNL     1      -5.605   5.479  68.668  1.00  0.00    -0.008 C  
HETATM   22  C   UNL     1      -7.755   8.468  68.211  1.00  0.00    -0.102 C  
HETATM   23  C   UNL     1      -5.477   6.151  66.285  1.00  0.00    -0.013 C  
HETATM   24  C   UNL     1      -8.645   6.797  66.816  1.00  0.00    -0.119 C  
HETATM   25  C   UNL     1      -6.330   7.809  68.094  1.00  0.00    -0.050 C  
HETATM   26  N   UNL     1      -6.276   6.318  67.573  1.00  0.00    -0.027 N  
HETATM   27  C   UNL     1      -7.655   5.738  67.273  1.00  0.00    -0.096 C  
ENDBRANCH   3  20
BRANCH   4  28
HETATM   28  O   UNL     1      -8.657   4.935  71.372  1.00  0.00    -0.120 OA 
BRANCH  28  29
HETATM   29  C   UNL     1      -8.826   3.665  70.931  1.00  0.00    -0.083 C  
HETATM   30  C   UNL     1     -10.183   3.110  71.265  1.00  0.00     0.287 C  
HETATM   31  O   UNL     1      -7.995   3.045  70.259  1.00  0.00    -0.043 OA 
ENDBRANCH  28  29
ENDBRANCH   4  28
BRANCH  12  32
HETATM   32  O   UNL     1     -13.756  13.583  71.328  1.00  0.00    -0.120 OA 
BRANCH  32  33
HETATM   33  C   UNL     1     -13.473  14.322  72.437  1.00  0.00    -0.489 C  
HETATM   34  O   UNL     1     -12.594  13.975  73.206  1.00  0.00    -0.260 OA 
HETATM   35  C   UNL     1     -14.370  15.504  72.735  1.00  0.00    -0.018 C  
ENDBRANCH  32  33
ENDBRANCH  12  32
BRANCH  11  36
HETATM   36  N   UNL     1     -11.527  13.581  69.567  1.00  0.00    -0.272 NA 
HETATM   37  C   UNL     1      -9.895  15.483  70.535  1.00  0.00     0.551 C  
HETATM   38  C   UNL     1     -10.205  14.249  69.591  1.00  0.00     0.281 C  
HETATM   39  N   UNL     1     -11.059  16.468  70.804  1.00  0.00    -0.158 N  
HETATM   40  C   UNL     1     -11.021  17.634  69.813  1.00  0.00     1.109 C  
HETATM   41  C   UNL     1     -12.406  15.724  70.798  1.00  0.00    -0.390 C  
HETATM   42  C   UNL     1     -10.880  17.112  72.204  1.00  0.00     2.467 C  
HETATM   43  C   UNL     1     -12.539  14.682  69.649  1.00  0.00    -0.068 C  
ENDBRANCH  11  36
TORSDOF 6
ENDMDL
MODEL      117
REMARK 921   NORMALIZED FREE ENERGY PREDICTED BY IDOCK:   19.59 KCAL/MOL
REMARK 922        TOTAL FREE ENERGY PREDICTED BY IDOCK:   24.73 KCAL/MOL
REMARK 923 INTER-LIGAND FREE ENERGY PREDICTED BY IDOCK:    8.46 KCAL/MOL
REMARK 924 INTRA-LIGAND FREE ENERGY PREDICTED BY IDOCK:   16.27 KCAL/MOL
REMARK 927      BINDING AFFINITY PREDICTED BY RF-SCORE:    0.00 PKD
ROOT
HETATM    1  C   UNL     1     -11.266  10.075  64.834  1.00  0.00     2.660 C  
HETATM    2  C   UNL     1     -12.030   9.816  66.005  1.00  0.00     5.549 C  
HETATM    3  C   UNL     1     -11.115  10.983  66.353  1.00  0.00    -0.068 C  
HETATM    4  C   UNL     1     -10.215  11.697  64.636  1.00  0.00    -0.281 C  
HETATM    5  C   UNL     1      -6.095   9.910  65.718  1.00  0.00    -0.076 C  
HETATM    6  C   UNL     1     -11.459  11.918  65.135  1.00  0.00    -0.304 C  
HETATM    7  C   UNL     1      -7.156   9.275  66.652  1.00  0.00    -0.082 C  
HETATM    8  C   UNL     1      -6.651   9.503  68.275  1.00  0.00    -0.057 C  
HETATM    9  C   UNL     1     -12.732  12.551  64.605  1.00  0.00    -0.434 C  
HETATM   10  C   UNL     1     -10.063  12.855  66.041  1.00  0.00    -0.290 C  
HETATM   11  C   UNL     1      -6.901   8.241  69.277  1.00  0.00    -0.050 C  
HETATM   12  C   UNL     1      -6.174   7.148  68.459  1.00  0.00    -0.035 C  
HETATM   13  C   UNL     1      -7.234   6.674  67.443  1.00  0.00    -0.086 C  
HETATM   14  C   UNL     1      -8.556  11.805  66.269  1.00  0.00    -0.062 C  
HETATM   15  C   UNL     1      -7.193   7.701  66.264  1.00  0.00    -0.071 C  
HETATM   16  C   UNL     1      -8.129   7.318  65.106  1.00  0.00    -0.128 C  
HETATM   17  C   UNL     1      -9.553   7.862  65.202  1.00  0.00     1.182 C  
HETATM   18  C   UNL     1      -9.543   9.389  65.113  1.00  0.00    -0.195 C  
HETATM   19  C   UNL     1      -8.558  10.056  66.335  1.00  0.00    -0.136 C  
ENDROOT
BRANCH   3  20
HETATM   20  N   UNL     1     -11.548  11.673  67.742  1.00  0.00    -0.484 NA 
HETATM   21  C   UNL     1     -10.983   8.483  70.199  1.00  0.00    -0.216 C  
HETATM   22  C   UNL     1     -12.709  11.337  68.573  1.00  0.00     1.640 C  
HETATM   23  C   UNL     1     -10.628  10.490  71.610  1.00  0.00     2.865 C  
HETATM   24  C   UNL     1     -10.430  11.911  68.664  1.00  0.00    -0.212 C  
HETATM   25  C   UNL     1     -12.531  10.422  69.843  1.00  0.00    -0.056 C  
HETATM   26  N   UNL     1     -11.052  10.016  70.224  1.00  0.00    -0.295 N  
HETATM   27  C   UNL     1     -10.009  10.580  69.265  1.00  0.00    -0.213 C  
ENDBRANCH   3  20
BRANCH   4  28
HETATM   28  O   UNL     1     -10.476  12.861  63.661  1.00  0.00    -0.324 OA 
BRANCH  28  29
HETATM   29  C   UNL     1     -11.287  13.888  64.013  1.00  0.00    -0.086 C  
HETATM   30  C   UNL     1     -11.228  14.196  65.484  1.00  0.00    -0.317 C  
HETATM   31  O   UNL     1     -11.948  14.559  63.214  1.00  0.00     0.080 OA 
ENDBRANCH  28  29
ENDBRANCH   4  28
BRANCH  12  32
HETATM   32  O   UNL     1      -5.426   6.233  69.260  1.00  0.00    -0.011 OA 
BRANCH  32  33
HETATM   33  C   UNL     1      -5.915   4.962  69.196  1.00  0.00    -0.021 C  
HETATM   34  O   UNL     1      -6.387   4.532  68.159  1.00  0.00    -0.035 OA 
HETATM   35  C   UNL     1      -5.965   4.169  70.483  1.00  0.00    -0.017 C  
ENDBRANCH  32  33
ENDBRANCH  12  32
BRANCH  11  36
HETATM   36  N   UNL     1      -6.763   8.215  70.794  1.00  0.00    -0.037 NA 
HETATM   37  C   UNL     1      -7.387   6.024  72.218  1.00  0.00    -0.094 C  
HETATM   38  C   UNL     1      -6.343   7.011  71.547  1.00  0.00    -0.037 C  
HETATM   39  N   UNL     1      -8.681   6.655  72.787  1.00  0.00    -0.123 N  
HETATM   40  C   UNL     1      -8.518   6.975  74.275  1.00  0.00    -0.164 C  
HETATM   41  C   UNL     1      -9.091   7.884  71.956  1.00  0.00    -0.148 C  
HETATM   42  C   UNL     1      -9.838   5.625  72.711  1.00  0.00    -0.164 C  
HETATM   43  C   UNL     1      -7.896   8.806  71.573  1.00  0.00    -0.104 C  
ENDBRANCH  11  36
TORSDOF 6
ENDMDL
MODEL      118
REMARK 921   NORMALIZED FREE ENERGY PREDICTED BY IDOCK:   21.06 KCAL/MOL
REMARK 922        TOTAL FREE ENERGY PREDICTED BY IDOCK:   26.72 KCAL/MOL
REMARK 923 INTER-LIGAND FREE ENERGY PREDICTED BY IDOCK:   18.97 KCAL/MOL
REMARK 924 INTRA-LIGAND FREE ENERGY PREDICTED BY IDOCK:    7.75 KCAL/MOL
REMARK 927      BINDING AFFINITY PREDICTED BY RF-SCORE:    0.00 PKD
ROOT
HETATM    1  C   UNL     1      -7.500   7.626  64.382  1.00  0.00    -0.099 C  
HETATM    2  C   UNL     1      -6.331   8.215  64.936  1.00  0.00    -0.049 C  
HETATM    3  C   UNL     1      -7.133   7.687  66.118  1.00  0.00    -0.070 C  
HETATM    4  C   UNL     1      -8.670   6.488  65.435  1.00  0.00    -0.008 C  
HETATM    5  C   UNL     1     -11.917   9.635  66.381  1.00  0.00     5.259 C  
HETATM    6  C   UNL     1      -7.351   6.214  65.610  1.00  0.00    -0.080 C  
HETATM    7  C   UNL     1     -10.535  10.331  66.457  1.00  0.00    -0.241 C  
HETATM    8  C   UNL     1     -10.401  11.100  67.983  1.00  0.00    -0.208 C  
HETATM    9  C   UNL     1      -6.429   5.077  65.211  1.00  0.00    -0.036 C  
HETATM   10  C   UNL     1      -8.367   6.288  67.226  1.00  0.00    -0.109 C  
HETATM   11  C   UNL     1      -9.691  12.568  67.977  1.00  0.00    -0.215 C  
HETATM   12  C   UNL     1     -10.587  13.253  66.919  1.00  0.00    -0.264 C  
HETATM   13  C   UNL     1      -9.959  12.838  65.571  1.00  0.00    -0.234 C  
HETATM   14  C   UNL     1      -9.588   7.679  67.216  1.00  0.00    -0.201 C  
HETATM   15  C   UNL     1     -10.525  11.416  65.251  1.00  0.00    -0.340 C  
HETATM   16  C   UNL     1     -10.072  10.888  63.879  1.00  0.00    -0.422 C  
HETATM   17  C   UNL     1      -8.766  10.097  63.876  1.00  0.00    -0.220 C  
HETATM   18  C   UNL     1      -8.928   8.804  64.677  1.00  0.00     0.032 C  
HETATM   19  C   UNL     1      -9.424   9.145  66.272  1.00  0.00    -0.299 C  
ENDROOT
BRANCH   3  20
HETATM   20  N   UNL     1      -6.260   7.700  67.471  1.00  0.00    -0.048 NA 
HETATM   21  C   UNL     1      -9.223   8.650  70.087  1.00  0.00    -0.159 C  
HETATM   22  C   UNL     1      -5.966   8.857  68.324  1.00  0.00    -0.042 C  
HETATM   23  C   UNL     1      -7.569   7.343  71.391  1.00  0.00    -0.082 C  
HETATM   24  C   UNL     1      -6.543   6.578  68.374  1.00  0.00    -0.059 C  
HETATM   25  C   UNL     1      -6.799   9.098  69.638  1.00  0.00    -0.054 C  
HETATM   26  N   UNL     1      -7.843   7.981  70.033  1.00  0.00    -0.102 N  
HETATM   27  C   UNL     1      -7.887   6.822  69.042  1.00  0.00    -0.111 C  
ENDBRANCH   3  20
BRANCH   4  28
HETATM   28  O   UNL     1      -8.891   4.973  65.268  1.00  0.00    -0.147 OA 
BRANCH  28  29
HETATM   29  C   UNL     1      -9.945   4.359  65.859  1.00  0.00    -0.240 C  
HETATM   30  C   UNL     1     -11.018   5.325  66.281  1.00  0.00    -0.056 C  
HETATM   31  O   UNL     1     -10.062   3.134  65.974  1.00  0.00     0.312 OA 
ENDBRANCH  28  29
ENDBRANCH   4  28
BRANCH  12  32
HETATM   32  O   UNL     1     -10.901  14.613  67.224  1.00  0.00    -0.291 OA 
BRANCH  32  33
HETATM   33  C   UNL     1     -10.075  15.493  66.592  1.00  0.00    -0.267 C  
HETATM   34  O   UNL     1      -9.102  15.951  67.164  1.00  0.00    -0.200 OA 
HETATM   35  C   UNL     1     -10.486  15.969  65.215  1.00  0.00    -0.384 C  
ENDBRANCH  32  33
ENDBRANCH  12  32
BRANCH  11  36
HETATM   36  N   UNL     1      -9.240  13.390  69.178  1.00  0.00     0.433 NA 
HETATM   37  C   UNL     1      -6.635  13.720  69.748  1.00  0.00    -0.034 C  
HETATM   38  C   UNL     1      -8.020  14.230  69.170  1.00  0.00     0.046 C  
HETATM   39  N   UNL     1      -6.693  12.775  70.973  1.00  0.00     1.933 N  
HETATM   40  C   UNL     1      -6.573  13.569  72.275  1.00  0.00     3.040 C  
HETATM   41  C   UNL     1      -7.962  11.905  70.921  1.00  0.00     6.677 C  
HETATM   42  C   UNL     1      -5.467  11.826  70.954  1.00  0.00    -0.107 C  
HETATM   43  C   UNL     1      -9.240  12.687  70.500  1.00  0.00     6.711 C  
ENDBRANCH  11  36
TORSDOF 6
ENDMDL
MODEL      119
REMARK 921   NORMALIZED FREE ENERGY PREDICTED BY IDOCK:   21.95 KCAL/MOL
REMARK 922        TOTAL FREE ENERGY PREDICTED BY IDOCK:   27.91 KCAL/MOL
REMARK 923 INTER-LIGAND FREE ENERGY PREDICTED BY IDOCK:   23.00 KCAL/MOL
REMARK 924 INTRA-LIGAND FREE ENERGY PREDICTED BY IDOCK:    4.91 KCAL/MOL
REMARK 927      BINDING AFFINITY PREDICTED BY RF-SCORE:    0.00 PKD
ROOT
HETATM    1  C   UNL     1     -11.330  15.422  69.671  1.00  0.00    -0.315 C  
HETATM    2  C   UNL     1     -11.107  14.328  70.550  1.00  0.00     0.186 C  
HETATM    3  C   UNL     1      -9.733  14.740  70.039  1.00  0.00     0.415 C  
HETATM    4  C   UNL     1      -9.874  16.544  69.042  1.00  0.00    -0.266 C  
HETATM    5  C   UNL     1      -9.340  14.604  64.884  1.00  0.00     1.327 C  
HETATM    6  C   UNL     1      -9.813  16.276  70.372  1.00  0.00     0.973 C  
HETATM    7  C   UNL     1      -9.630  13.478  65.907  1.00  0.00    -0.132 C  
HETATM    8  C   UNL     1      -8.383  12.307  65.788  1.00  0.00     0.863 C  
HETATM    9  C   UNL     1     -10.027  17.081  71.640  1.00  0.00     5.413 C  
HETATM   10  C   UNL     1      -8.149  16.102  69.450  1.00  0.00    -0.097 C  
HETATM   11  C   UNL     1      -8.860  10.752  65.897  1.00  0.00    -0.179 C  
HETATM   12  C   UNL     1      -9.929  10.758  64.780  1.00  0.00    -0.320 C  
HETATM   13  C   UNL     1     -11.196  11.295  65.478  1.00  0.00    -0.069 C  
HETATM   14  C   UNL     1      -8.352  15.292  67.798  1.00  0.00    -0.161 C  
HETATM   15  C   UNL     1     -11.063  12.853  65.475  1.00  0.00    -0.306 C  
HETATM   16  C   UNL     1     -12.302  13.558  66.052  1.00  0.00    -0.486 C  
HETATM   17  C   UNL     1     -12.278  13.807  67.558  1.00  0.00    -0.262 C  
HETATM   18  C   UNL     1     -11.158  14.787  67.915  1.00  0.00    -0.301 C  
HETATM   19  C   UNL     1      -9.652  14.199  67.374  1.00  0.00    -0.229 C  
ENDROOT
BRANCH   3  20
HETATM   20  N   UNL     1      -8.557  14.035  70.883  1.00  0.00     4.022 NA 
HETATM   21  C   UNL     1      -5.647  16.811  70.292  1.00  0.00    -0.198 C  
HETATM   22  C   UNL     1      -7.298  13.490  70.363  1.00  0.00     1.741 C  
HETATM   23  C   UNL     1      -5.133  15.754  72.474  1.00  0.00     0.718 C  
HETATM   24  C   UNL     1      -8.226  14.725  72.137  1.00  0.00     6.088 C  
HETATM   25  C   UNL     1      -5.972  14.333  70.468  1.00  0.00    -0.183 C  
HETATM   26  N   UNL     1      -6.057  15.696  71.262  1.00  0.00     0.589 N  
HETATM   27  C   UNL     1      -7.453  15.990  71.802  1.00  0.00     6.212 C  
ENDBRANCH   3  20
BRANCH   4  28
HETATM   28  O   UNL     1      -9.617  18.020  69.398  1.00  0.00     0.010 OA 
BRANCH  28  29
HETATM   29  C   UNL     1      -9.949  19.008  68.533  1.00  0.00    -0.421 C  
HETATM   30  C   UNL     1     -10.186  18.501  67.137  1.00  0.00    -0.408 C  
HETATM   31  O   UNL     1     -10.118  20.189  68.855  1.00  0.00    -0.342 OA 
ENDBRANCH  28  29
ENDBRANCH   4  28
BRANCH  12  32
HETATM   32  O   UNL     1      -9.942   9.568  63.990  1.00  0.00     0.551 OA 
BRANCH  32  33
HETATM   33  C   UNL     1      -9.136   9.661  62.895  1.00  0.00    -0.218 C  
HETATM   34  O   UNL     1      -8.587   8.671  62.445  1.00  0.00    -0.209 OA 
HETATM   35  C   UNL     1      -8.856  11.044  62.351  1.00  0.00    -0.358 C  
ENDBRANCH  32  33
ENDBRANCH  12  32
BRANCH  11  36
HETATM   36  N   UNL     1      -7.980   9.516  66.044  1.00  0.00    -0.106 NA 
HETATM   37  C   UNL     1      -8.362   7.755  68.038  1.00  0.00    -0.124 C  
HETATM   38  C   UNL     1      -8.492   8.212  66.525  1.00  0.00    -0.130 C  
HETATM   39  N   UNL     1      -7.092   8.209  68.799  1.00  0.00    -0.069 N  
HETATM   40  C   UNL     1      -6.003   7.136  68.721  1.00  0.00    -0.023 C  
HETATM   41  C   UNL     1      -6.616   9.579  68.284  1.00  0.00    -0.057 C  
HETATM   42  C   UNL     1      -7.418   8.358  70.308  1.00  0.00    -0.063 C  
HETATM   43  C   UNL     1      -6.666   9.715  66.734  1.00  0.00    -0.075 C  
ENDBRANCH  11  36
TORSDOF 6
ENDMDL
MODEL      120
REMARK 921   NORMALIZED FREE ENERGY PREDICTED BY IDOCK:   22.11 KCAL/MOL
REMARK 922        TOTAL FREE ENERGY PREDICTED BY IDOCK:   28.13 KCAL/MOL
REMARK 923 INTER-LIGAND FREE ENERGY PREDICTED BY IDOCK:   20.45 KCAL/MOL
REMARK 924 INTRA-LIGAND FREE ENERGY PREDICTED BY IDOCK:    7.68 KCAL/MOL
REMARK 927      BINDING AFFINITY PREDICTED BY RF-SCORE:    0.00 PKD
ROOT
HETATM    1  C   UNL     1      -6.013  16.057  67.633  1.00  0.00    -0.176 C  
HETATM    2  C   UNL     1      -6.138  15.340  66.412  1.00  0.00     2.968 C  
HETATM    3  C   UNL     1      -7.559  15.554  66.917  1.00  0.00    -0.127 C  
HETATM    4  C   UNL     1      -7.542  16.895  68.489  1.00  0.00    -0.221 C  
HETATM    5  C   UNL     1      -8.359  13.627  71.650  1.00  0.00     9.772 C  
HETATM    6  C   UNL     1      -7.490  17.109  67.148  1.00  0.00    -0.199 C  
HETATM    7  C   UNL     1      -7.960  12.928  70.327  1.00  0.00     3.559 C  
HETATM    8  C   UNL     1      -9.183  11.796  69.925  1.00  0.00     2.213 C  
HETATM    9  C   UNL     1      -7.195  18.305  66.263  1.00  0.00    -0.297 C  
HETATM   10  C   UNL     1      -9.218  16.632  67.809  1.00  0.00    -0.214 C  
HETATM   11  C   UNL     1      -8.661  10.374  69.321  1.00  0.00    -0.150 C  
HETATM   12  C   UNL     1      -7.685   9.985  70.456  1.00  0.00     0.173 C  
HETATM   13  C   UNL     1      -6.380  10.726  70.098  1.00  0.00    -0.147 C  
HETATM   14  C   UNL     1      -9.128  15.295  69.086  1.00  0.00    -0.236 C  
HETATM   15  C   UNL     1      -6.551  12.186  70.632  1.00  0.00     1.174 C  
HETATM   16  C   UNL     1      -5.288  13.042  70.443  1.00  0.00    -0.128 C  
HETATM   17  C   UNL     1      -5.198  13.801  69.122  1.00  0.00    -0.077 C  
HETATM   18  C   UNL     1      -6.310  14.849  69.036  1.00  0.00    -0.099 C  
HETATM   19  C   UNL     1      -7.839  14.117  69.210  1.00  0.00     0.142 C  
ENDROOT
BRANCH   3  20
HETATM   20  N   UNL     1      -8.645  15.194  65.785  1.00  0.00     0.667 NA 
HETATM   21  C   UNL     1     -11.833  14.503  68.212  1.00  0.00    -0.312 C  
HETATM   22  C   UNL     1      -9.301  13.899  65.568  1.00  0.00     0.350 C  
HETATM   23  C   UNL     1     -12.784  15.279  66.058  1.00  0.00     1.201 C  
HETATM   24  C   UNL     1      -9.678  16.221  65.601  1.00  0.00    -0.171 C  
HETATM   25  C   UNL     1     -10.758  13.654  66.113  1.00  0.00    -0.286 C  
HETATM   26  N   UNL     1     -11.491  14.891  66.767  1.00  0.00    -0.333 N  
HETATM   27  C   UNL     1     -10.638  16.156  66.778  1.00  0.00    -0.277 C  
ENDBRANCH   3  20
BRANCH   4  28
HETATM   28  O   UNL     1      -7.807  18.404  68.649  1.00  0.00    -0.302 OA 
BRANCH  28  29
HETATM   29  C   UNL     1      -6.974  19.177  69.386  1.00  0.00    -0.237 C  
HETATM   30  C   UNL     1      -7.655  20.397  69.944  1.00  0.00     0.859 C  
HETATM   31  O   UNL     1      -5.801  18.886  69.647  1.00  0.00    -0.232 OA 
ENDBRANCH  28  29
ENDBRANCH   4  28
BRANCH  12  32
HETATM   32  O   UNL     1      -7.706   8.594  70.780  1.00  0.00    -0.070 OA 
BRANCH  32  33
HETATM   33  C   UNL     1      -8.839   8.230  71.443  1.00  0.00    -0.162 C  
HETATM   34  O   UNL     1      -9.523   7.307  71.040  1.00  0.00    -0.159 OA 
HETATM   35  C   UNL     1      -9.272   9.092  72.608  1.00  0.00     0.634 C  
ENDBRANCH  32  33
ENDBRANCH  12  32
BRANCH  11  36
HETATM   36  N   UNL     1      -9.495   9.271  68.680  1.00  0.00    -0.145 NA 
HETATM   37  C   UNL     1      -8.381   7.431  67.071  1.00  0.00    -0.121 C  
HETATM   38  C   UNL     1      -8.986   7.898  68.459  1.00  0.00    -0.133 C  
HETATM   39  N   UNL     1      -9.007   8.042  65.793  1.00  0.00    -0.143 N  
HETATM   40  C   UNL     1     -10.112   7.135  65.246  1.00  0.00     2.497 C  
HETATM   41  C   UNL     1      -9.494   9.476  66.065  1.00  0.00    -0.233 C  
HETATM   42  C   UNL     1      -7.937   8.110  64.673  1.00  0.00    -0.149 C  
HETATM   43  C   UNL     1     -10.229   9.639  67.428  1.00  0.00    -0.227 C  
ENDBRANCH  11  36
TORSDOF 6
ENDMDL
MODEL      121
REMARK 921   NORMALIZED FREE ENERGY PREDICTED BY IDOCK:   23.01 KCAL/MOL
REMARK 922        TOTAL FREE ENERGY PREDICTED BY IDOCK:   29.34 KCAL/MOL
REMARK 923 INTER-LIGAND FREE ENERGY PREDICTED BY IDOCK:   20.21 KCAL/MOL
REMARK 924 INTRA-LIGAND FREE ENERGY PREDICTED BY IDOCK:    9.13 KCAL/MOL
REMARK 927      BINDING AFFINITY PREDICTED BY RF-SCORE:    0.00 PKD
ROOT
HETATM    1  C   UNL     1      -8.781  13.162  68.606  1.00  0.00     0.045 C  
HETATM    2  C   UNL     1      -9.810  12.254  68.980  1.00  0.00     0.218 C  
HETATM    3  C   UNL     1      -8.499  11.578  69.358  1.00  0.00     0.566 C  
HETATM    4  C   UNL     1      -6.948  12.934  69.207  1.00  0.00     0.039 C  
HETATM    5  C   UNL     1      -5.264  11.001  65.364  1.00  0.00    -0.060 C  
HETATM    6  C   UNL     1      -7.865  12.752  70.193  1.00  0.00     2.815 C  
HETATM    7  C   UNL     1      -6.685  10.433  65.606  1.00  0.00    -0.127 C  
HETATM    8  C   UNL     1      -6.586   8.721  65.618  1.00  0.00    -0.064 C  
HETATM    9  C   UNL     1      -8.285  13.531  71.425  1.00  0.00     8.762 C  
HETATM   10  C   UNL     1      -6.481  11.436  70.144  1.00  0.00    -0.041 C  
HETATM   11  C   UNL     1      -7.808   7.937  64.876  1.00  0.00    -0.126 C  
HETATM   12  C   UNL     1      -7.732   8.638  63.500  1.00  0.00    -0.136 C  
HETATM   13  C   UNL     1      -8.551   9.931  63.693  1.00  0.00    -0.203 C  
HETATM   14  C   UNL     1      -6.067  10.928  68.413  1.00  0.00    -0.046 C  
HETATM   15  C   UNL     1      -7.584  10.960  64.364  1.00  0.00     0.467 C  
HETATM   16  C   UNL     1      -8.219  12.349  64.539  1.00  0.00     3.291 C  
HETATM   17  C   UNL     1      -8.967  12.572  65.852  1.00  0.00     0.244 C  
HETATM   18  C   UNL     1      -7.994  12.515  67.031  1.00  0.00    -0.086 C  
HETATM   19  C   UNL     1      -7.164  11.026  67.053  1.00  0.00    -0.123 C  
ENDROOT
BRANCH   3  20
HETATM   20  N   UNL     1      -8.752  10.290  70.290  1.00  0.00     0.192 NA 
HETATM   21  C   UNL     1     -11.548   8.431  67.996  1.00  0.00     1.775 C  
HETATM   22  C   UNL     1      -9.986   9.942  71.004  1.00  0.00     0.318 C  
HETATM   23  C   UNL     1     -10.390   6.626  69.239  1.00  0.00    -0.200 C  
HETATM   24  C   UNL     1      -8.226   9.037  69.732  1.00  0.00    -0.122 C  
HETATM   25  C   UNL     1     -10.974   8.878  70.395  1.00  0.00    -0.244 C  
HETATM   26  N   UNL     1     -10.503   8.139  69.081  1.00  0.00    -0.220 N  
HETATM   27  C   UNL     1      -9.132   8.599  68.593  1.00  0.00    -0.138 C  
ENDBRANCH   3  20
BRANCH   4  28
HETATM   28  O   UNL     1      -6.173  13.832  70.190  1.00  0.00    -0.145 OA 
BRANCH  28  29
HETATM   29  C   UNL     1      -6.462  15.152  70.294  1.00  0.00    -0.065 C  
HETATM   30  C   UNL     1      -5.428  15.912  71.079  1.00  0.00     0.032 C  
HETATM   31  O   UNL     1      -7.423  15.700  69.744  1.00  0.00    -0.175 OA 
ENDBRANCH  28  29
ENDBRANCH   4  28
BRANCH  12  32
HETATM   32  O   UNL     1      -7.946   7.759  62.394  1.00  0.00    -0.128 OA 
BRANCH  32  33
HETATM   33  C   UNL     1      -8.862   6.789  62.669  1.00  0.00     0.596 C  
HETATM   34  O   UNL     1     -10.033   7.075  62.848  1.00  0.00     3.914 OA 
HETATM   35  C   UNL     1      -8.348   5.381  62.868  1.00  0.00    -0.101 C  
ENDBRANCH  32  33
ENDBRANCH  12  32
BRANCH  11  36
HETATM   36  N   UNL     1      -8.111   6.444  64.907  1.00  0.00    -0.124 NA 
HETATM   37  C   UNL     1      -7.564   4.949  67.071  1.00  0.00    -0.087 C  
HETATM   38  C   UNL     1      -8.564   5.736  66.126  1.00  0.00    -0.135 C  
HETATM   39  N   UNL     1      -6.365   4.244  66.390  1.00  0.00    -0.035 N  
HETATM   40  C   UNL     1      -6.703   2.785  66.076  1.00  0.00    -0.043 C  
HETATM   41  C   UNL     1      -5.914   5.031  65.146  1.00  0.00    -0.025 C  
HETATM   42  C   UNL     1      -5.168   4.188  67.374  1.00  0.00    -0.012 C  
HETATM   43  C   UNL     1      -7.094   5.548  64.272  1.00  0.00    -0.049 C  
ENDBRANCH  11  36
TORSDOF 6
ENDMDL
MODEL      122
REMARK 921   NORMALIZED FREE ENERGY PREDICTED BY IDOCK:   24.60 KCAL/MOL
REMARK 922        TOTAL FREE ENERGY PREDICTED BY IDOCK:   31.50 KCAL/MOL
REMARK 923 INTER-LIGAND FREE ENERGY PREDICTED BY IDOCK:   10.82 KCAL/MOL
REMARK 924 INTRA-LIGAND FREE ENERGY PREDICTED BY IDOCK:   20.68 KCAL/MOL
REMARK 927      BINDING AFFINITY PREDICTED BY RF-SCORE:    0.00 PKD
ROOT
HETATM    1  C   UNL     1      -6.426   9.995  66.607  1.00  0.00    -0.072 C  
HETATM    2  C   UNL     1      -6.357  10.113  68.022  1.00  0.00    -0.057 C  
HETATM    3  C   UNL     1      -7.597   9.278  67.732  1.00  0.00    -0.084 C  
HETATM    4  C   UNL     1      -7.614   8.724  65.742  1.00  0.00    -0.086 C  
HETATM    5  C   UNL     1     -11.004  11.670  64.662  1.00  0.00    -0.363 C  
HETATM    6  C   UNL     1      -6.937   8.199  66.796  1.00  0.00    -0.073 C  
HETATM    7  C   UNL     1     -10.468  12.047  66.066  1.00  0.00    -0.284 C  
HETATM    8  C   UNL     1     -11.791  12.088  67.156  1.00  0.00    -0.251 C  
HETATM    9  C   UNL     1      -5.809   7.198  66.956  1.00  0.00    -0.026 C  
HETATM   10  C   UNL     1      -8.796   7.760  66.748  1.00  0.00    -0.154 C  
HETATM   11  C   UNL     1     -11.769  13.297  68.249  1.00  0.00    -0.353 C  
HETATM   12  C   UNL     1     -11.622  14.488  67.275  1.00  0.00    -0.385 C  
HETATM   13  C   UNL     1     -10.104  14.571  67.012  1.00  0.00    -0.254 C  
HETATM   14  C   UNL     1      -9.838   9.205  66.246  1.00  0.00    -0.359 C  
HETATM   15  C   UNL     1      -9.800  13.515  65.899  1.00  0.00    -0.255 C  
HETATM   16  C   UNL     1      -8.331  13.535  65.443  1.00  0.00     3.251 C  
HETATM   17  C   UNL     1      -7.387  12.621  66.221  1.00  0.00     1.478 C  
HETATM   18  C   UNL     1      -7.769  11.156  66.002  1.00  0.00    -0.001 C  
HETATM   19  C   UNL     1      -9.389  10.883  66.461  1.00  0.00    -0.195 C  
ENDROOT
BRANCH   3  20
HETATM   20  N   UNL     1      -8.171   8.596  69.073  1.00  0.00    -0.120 NA 
HETATM   21  C   UNL     1     -11.661  10.662  69.352  1.00  0.00    -0.280 C  
HETATM   22  C   UNL     1      -8.389   9.242  70.372  1.00  0.00    -0.199 C  
HETATM   23  C   UNL     1     -12.087   8.474  70.436  1.00  0.00     0.263 C  
HETATM   24  C   UNL     1      -9.324   7.714  68.848  1.00  0.00    -0.145 C  
HETATM   25  C   UNL     1      -9.832   9.718  70.782  1.00  0.00    -0.032 C  
HETATM   26  N   UNL     1     -11.011   9.346  69.798  1.00  0.00    -0.235 N  
HETATM   27  C   UNL     1     -10.543   8.576  68.566  1.00  0.00    -0.111 C  
ENDBRANCH   3  20
BRANCH   4  28
HETATM   28  O   UNL     1      -7.212   7.467  64.948  1.00  0.00    -0.064 OA 
BRANCH  28  29
HETATM   29  C   UNL     1      -6.531   6.461  65.547  1.00  0.00    -0.039 C  
HETATM   30  C   UNL     1      -7.006   5.101  65.116  1.00  0.00    -0.061 C  
HETATM   31  O   UNL     1      -5.570   6.625  66.306  1.00  0.00    -0.017 OA 
ENDBRANCH  28  29
ENDBRANCH   4  28
BRANCH  12  32
HETATM   32  O   UNL     1     -12.393  15.633  67.644  1.00  0.00     0.545 OA 
BRANCH  32  33
HETATM   33  C   UNL     1     -12.147  16.708  66.844  1.00  0.00     2.163 C  
HETATM   34  O   UNL     1     -12.389  17.836  67.231  1.00  0.00     3.052 OA 
HETATM   35  C   UNL     1     -11.690  16.432  65.428  1.00  0.00     0.867 C  
ENDBRANCH  32  33
ENDBRANCH  12  32
BRANCH  11  36
HETATM   36  N   UNL     1     -12.672  13.470  69.465  1.00  0.00     0.194 NA 
HETATM   37  C   UNL     1     -12.743  15.778  70.838  1.00  0.00    -0.370 C  
HETATM   38  C   UNL     1     -13.346  14.746  69.796  1.00  0.00     0.967 C  
HETATM   39  N   UNL     1     -11.973  15.186  72.044  1.00  0.00    -0.376 N  
HETATM   40  C   UNL     1     -12.903  15.012  73.247  1.00  0.00    -0.531 C  
HETATM   41  C   UNL     1     -11.268  13.877  71.643  1.00  0.00     2.177 C  
HETATM   42  C   UNL     1     -10.883  16.187  72.506  1.00  0.00     1.857 C  
HETATM   43  C   UNL     1     -12.146  12.940  70.763  1.00  0.00    -0.162 C  
ENDBRANCH  11  36
TORSDOF 6
ENDMDL
MODEL      123
REMARK 921   NORMALIZED FREE ENERGY PREDICTED BY IDOCK:   24.60 KCAL/MOL
REMARK 922        TOTAL FREE ENERGY PREDICTED BY IDOCK:   31.50 KCAL/MOL
REMARK 923 INTER-LIGAND FREE ENERGY PREDICTED BY IDOCK:   24.10 KCAL/MOL
REMARK 924 INTRA-LIGAND FREE ENERGY PREDICTED BY IDOCK:    7.41 KCAL/MOL
REMARK 927      BINDING AFFINITY PREDICTED BY RF-SCORE:    0.00 PKD
ROOT
HETATM    1  C   UNL     1      -9.802   9.584  67.553  1.00  0.00    -0.213 C  
HETATM    2  C   UNL     1      -8.659   9.883  66.763  1.00  0.00    -0.133 C  
HETATM    3  C   UNL     1      -8.457  10.614  68.084  1.00  0.00    -0.122 C  
HETATM    4  C   UNL     1      -9.863   9.973  69.455  1.00  0.00    -0.229 C  
HETATM    5  C   UNL     1     -12.291  13.895  69.215  1.00  0.00    -0.201 C  
HETATM    6  C   UNL     1      -8.696   9.401  69.058  1.00  0.00    -0.136 C  
HETATM    7  C   UNL     1     -11.298  13.871  68.027  1.00  0.00    -0.317 C  
HETATM    8  C   UNL     1     -10.378  15.317  68.064  1.00  0.00    -0.244 C  
HETATM    9  C   UNL     1      -8.047   8.044  69.248  1.00  0.00    -0.118 C  
HETATM   10  C   UNL     1      -8.490  10.892  70.236  1.00  0.00     1.709 C  
HETATM   11  C   UNL     1     -10.078  16.002  66.616  1.00  0.00    -0.279 C  
HETATM   12  C   UNL     1     -11.534  16.106  66.103  1.00  0.00     0.553 C  
HETATM   13  C   UNL     1     -11.816  14.716  65.494  1.00  0.00    -0.292 C  
HETATM   14  C   UNL     1      -9.664  12.264  69.831  1.00  0.00     2.334 C  
HETATM   15  C   UNL     1     -12.214  13.793  66.692  1.00  0.00    -0.454 C  
HETATM   16  C   UNL     1     -12.628  12.381  66.244  1.00  0.00     0.845 C  
HETATM   17  C   UNL     1     -11.496  11.359  66.157  1.00  0.00    -0.002 C  
HETATM   18  C   UNL     1     -10.912  11.096  67.546  1.00  0.00    -0.331 C  
HETATM   19  C   UNL     1     -10.363  12.548  68.252  1.00  0.00    -0.241 C  
ENDROOT
BRANCH   3  20
HETATM   20  N   UNL     1      -6.952  11.168  68.223  1.00  0.00    -0.068 NA 
HETATM   21  C   UNL     1      -7.539  13.719  71.334  1.00  0.00     5.082 C  
HETATM   22  C   UNL     1      -6.487  12.538  67.977  1.00  0.00    -0.087 C  
HETATM   23  C   UNL     1      -5.169  13.006  71.487  1.00  0.00    -0.150 C  
HETATM   24  C   UNL     1      -6.252  10.700  69.426  1.00  0.00    -0.051 C  
HETATM   25  C   UNL     1      -6.261  13.521  69.187  1.00  0.00    -0.097 C  
HETATM   26  N   UNL     1      -6.432  12.917  70.636  1.00  0.00     0.501 N  
HETATM   27  C   UNL     1      -6.813  11.440  70.629  1.00  0.00     1.300 C  
ENDBRANCH   3  20
BRANCH   4  28
HETATM   28  O   UNL     1      -9.886   8.956  70.612  1.00  0.00    -0.184 OA 
BRANCH  28  29
HETATM   29  C   UNL     1     -10.366   9.306  71.829  1.00  0.00    -0.134 C  
HETATM   30  C   UNL     1      -9.875   8.405  72.929  1.00  0.00    -0.232 C  
HETATM   31  O   UNL     1     -11.070  10.300  72.042  1.00  0.00     1.059 OA 
ENDBRANCH  28  29
ENDBRANCH   4  28
BRANCH  12  32
HETATM   32  O   UNL     1     -11.810  17.316  65.396  1.00  0.00     1.314 OA 
BRANCH  32  33
HETATM   33  C   UNL     1     -11.800  17.144  64.044  1.00  0.00     3.132 C  
HETATM   34  O   UNL     1     -12.618  16.420  63.506  1.00  0.00     0.313 OA 
HETATM   35  C   UNL     1     -10.666  17.778  63.270  1.00  0.00    11.694 C  
ENDBRANCH  32  33
ENDBRANCH  12  32
BRANCH  11  36
HETATM   36  N   UNL     1      -9.124  17.150  66.307  1.00  0.00    -0.394 NA 
HETATM   37  C   UNL     1      -7.137  17.808  67.991  1.00  0.00    -0.209 C  
HETATM   38  C   UNL     1      -7.689  17.127  66.670  1.00  0.00    -0.265 C  
HETATM   39  N   UNL     1      -7.844  19.104  68.458  1.00  0.00    -0.332 N  
HETATM   40  C   UNL     1      -7.126  20.340  67.911  1.00  0.00    -0.292 C  
HETATM   41  C   UNL     1      -9.337  19.068  68.084  1.00  0.00    -0.335 C  
HETATM   42  C   UNL     1      -7.747  19.221  70.001  1.00  0.00     0.722 C  
HETATM   43  C   UNL     1      -9.608  18.525  66.650  1.00  0.00    -0.321 C  
ENDBRANCH  11  36
TORSDOF 6
ENDMDL
MODEL      124
REMARK 921   NORMALIZED FREE ENERGY PREDICTED BY IDOCK:   25.00 KCAL/MOL
REMARK 922        TOTAL FREE ENERGY PREDICTED BY IDOCK:   32.04 KCAL/MOL
REMARK 923 INTER-LIGAND FREE ENERGY PREDICTED BY IDOCK:   20.18 KCAL/MOL
REMARK 924 INTRA-LIGAND FREE ENERGY PREDICTED BY IDOCK:   11.86 KCAL/MOL
REMARK 927      BINDING AFFINITY PREDICTED BY RF-SCORE:    0.00 PKD
ROOT
HETATM    1  C   UNL     1     -10.328   8.953  68.311  1.00  0.00    -0.250 C  
HETATM    2  C   UNL     1     -10.728   9.362  67.010  1.00  0.00    -0.207 C  
HETATM    3  C   UNL     1      -9.308   9.882  67.193  1.00  0.00    -0.146 C  
HETATM    4  C   UNL     1      -8.476   9.048  68.891  1.00  0.00    -0.130 C  
HETATM    5  C   UNL     1      -8.774  12.977  71.302  1.00  0.00    12.643 C  
HETATM    6  C   UNL     1      -8.625   8.537  67.641  1.00  0.00    -0.133 C  
HETATM    7  C   UNL     1      -9.642  13.128  70.028  1.00  0.00     2.920 C  
HETATM    8  C   UNL     1      -9.144  14.545  69.202  1.00  0.00     0.025 C  
HETATM    9  C   UNL     1      -8.471   7.162  67.019  1.00  0.00    -0.122 C  
HETATM   10  C   UNL     1      -7.227   9.828  67.808  1.00  0.00    -0.088 C  
HETATM   11  C   UNL     1     -10.341  15.442  68.551  1.00  0.00    -0.226 C  
HETATM   12  C   UNL     1     -11.204  15.631  69.820  1.00  0.00    -0.321 C  
HETATM   13  C   UNL     1     -12.066  14.352  69.881  1.00  0.00    -0.398 C  
HETATM   14  C   UNL     1      -7.724  11.254  68.879  1.00  0.00    -0.125 C  
HETATM   15  C   UNL     1     -11.170  13.260  70.552  1.00  0.00     0.836 C  
HETATM   16  C   UNL     1     -11.917  11.935  70.781  1.00  0.00    -0.189 C  
HETATM   17  C   UNL     1     -11.848  10.932  69.632  1.00  0.00    -0.416 C  
HETATM   18  C   UNL     1     -10.408  10.456  69.430  1.00  0.00    -0.259 C  
HETATM   19  C   UNL     1      -9.373  11.780  69.141  1.00  0.00     0.345 C  
ENDROOT
BRANCH   3  20
HETATM   20  N   UNL     1      -8.688  10.399  65.800  1.00  0.00    -0.161 NA 
HETATM   21  C   UNL     1      -7.265   6.848  64.422  1.00  0.00    -0.067 C  
HETATM   22  C   UNL     1      -7.272  10.423  65.415  1.00  0.00    -0.121 C  
HETATM   23  C   UNL     1      -7.774   8.196  62.405  1.00  0.00    -0.123 C  
HETATM   24  C   UNL     1      -9.434   9.957  64.614  1.00  0.00    -0.278 C  
HETATM   25  C   UNL     1      -6.686   9.286  64.498  1.00  0.00    -0.085 C  
HETATM   26  N   UNL     1      -7.714   8.230  63.929  1.00  0.00    -0.133 N  
HETATM   27  C   UNL     1      -9.148   8.483  64.386  1.00  0.00     0.568 C  
ENDBRANCH   3  20
BRANCH   4  28
HETATM   28  O   UNL     1      -7.532   7.867  69.185  1.00  0.00    -0.088 OA 
BRANCH  28  29
HETATM   29  C   UNL     1      -6.443   7.644  68.412  1.00  0.00    -0.052 C  
HETATM   30  C   UNL     1      -5.228   7.266  69.214  1.00  0.00    -0.015 C  
HETATM   31  O   UNL     1      -6.449   7.667  67.176  1.00  0.00    -0.051 OA 
ENDBRANCH  28  29
ENDBRANCH   4  28
BRANCH  12  32
HETATM   32  O   UNL     1     -11.772  16.936  69.940  1.00  0.00     0.585 OA 
BRANCH  32  33
HETATM   33  C   UNL     1     -12.515  17.079  71.073  1.00  0.00     3.936 C  
HETATM   34  O   UNL     1     -12.154  17.831  71.960  1.00  0.00     3.144 OA 
HETATM   35  C   UNL     1     -13.722  16.181  71.232  1.00  0.00     1.354 C  
ENDBRANCH  32  33
ENDBRANCH  12  32
BRANCH  11  36
HETATM   36  N   UNL     1     -10.207  16.617  67.590  1.00  0.00    -0.277 NA 
HETATM   37  C   UNL     1      -7.959  18.083  67.477  1.00  0.00    -0.222 C  
HETATM   38  C   UNL     1      -8.937  16.969  66.916  1.00  0.00    -0.229 C  
HETATM   39  N   UNL     1      -8.613  19.300  68.178  1.00  0.00    -0.316 N  
HETATM   40  C   UNL     1      -8.824  20.446  67.186  1.00  0.00    -0.327 C  
HETATM   41  C   UNL     1      -9.912  18.878  68.886  1.00  0.00    -0.378 C  
HETATM   42  C   UNL     1      -7.647  19.858  69.255  1.00  0.00    -0.049 C  
HETATM   43  C   UNL     1     -10.799  17.915  68.044  1.00  0.00    -0.192 C  
ENDBRANCH  11  36
TORSDOF 6
ENDMDL
MODEL      125
REMARK 921   NORMALIZED FREE ENERGY PREDICTED BY IDOCK:   25.53 KCAL/MOL
REMARK 922        TOTAL FREE ENERGY PREDICTED BY IDOCK:   32.76 KCAL/MOL
REMARK 923 INTER-LIGAND FREE ENERGY PREDICTED BY IDOCK:   29.43 KCAL/MOL
REMARK 924 INTRA-LIGAND FREE ENERGY PREDICTED BY IDOCK:    3.32 KCAL/MOL
REMARK 927      BINDING AFFINITY PREDICTED BY RF-SCORE:    0.00 PKD
ROOT
HETATM    1  C   UNL     1      -9.806  17.609  65.411  1.00  0.00     0.673 C  
HETATM    2  C   UNL     1      -9.822  16.584  64.426  1.00  0.00     3.306 C  
HETATM    3  C   UNL     1     -10.812  16.148  65.498  1.00  0.00    -0.270 C  
HETATM    4  C   UNL     1     -11.158  17.711  66.803  1.00  0.00     0.387 C  
HETATM    5  C   UNL     1      -8.701  15.781  70.205  1.00  0.00     1.090 C  
HETATM    6  C   UNL     1     -11.671  17.464  65.570  1.00  0.00     2.254 C  
HETATM    7  C   UNL     1      -8.386  15.021  68.893  1.00  0.00    -0.183 C  
HETATM    8  C   UNL     1      -8.668  13.350  69.157  1.00  0.00     0.583 C  
HETATM    9  C   UNL     1     -12.489  18.258  64.569  1.00  0.00     9.816 C  
HETATM   10  C   UNL     1     -12.396  16.377  66.964  1.00  0.00     2.445 C  
HETATM   11  C   UNL     1      -7.588  12.335  68.480  1.00  0.00    -0.118 C  
HETATM   12  C   UNL     1      -6.296  12.935  69.081  1.00  0.00    -0.105 C  
HETATM   13  C   UNL     1      -5.945  14.097  68.129  1.00  0.00    -0.133 C  
HETATM   14  C   UNL     1     -11.093  15.812  68.151  1.00  0.00    -0.341 C  
HETATM   15  C   UNL     1      -6.820  15.310  68.585  1.00  0.00    -0.109 C  
HETATM   16  C   UNL     1      -6.519  16.594  67.795  1.00  0.00    -0.164 C  
HETATM   17  C   UNL     1      -7.343  16.795  66.525  1.00  0.00    -0.306 C  
HETATM   18  C   UNL     1      -8.821  16.976  66.876  1.00  0.00    -0.251 C  
HETATM   19  C   UNL     1      -9.395  15.638  67.764  1.00  0.00    -0.202 C  
ENDROOT
BRANCH   3  20
HETATM   20  N   UNL     1     -11.709  14.908  64.998  1.00  0.00    -0.353 NA 
HETATM   21  C   UNL     1      -8.704  12.352  64.012  1.00  0.00     2.048 C  
HETATM   22  C   UNL     1     -11.795  14.370  63.635  1.00  0.00     0.342 C  
HETATM   23  C   UNL     1     -10.629  10.919  64.635  1.00  0.00    -0.262 C  
HETATM   24  C   UNL     1     -11.685  13.751  65.901  1.00  0.00    -0.352 C  
HETATM   25  C   UNL     1     -10.974  13.085  63.243  1.00  0.00     0.340 C  
HETATM   26  N   UNL     1     -10.187  12.361  64.406  1.00  0.00    -0.322 N  
HETATM   27  C   UNL     1     -10.343  13.053  65.757  1.00  0.00    -0.286 C  
ENDBRANCH   3  20
BRANCH   4  28
HETATM   28  O   UNL     1     -12.247  18.788  66.963  1.00  0.00     2.670 OA 
BRANCH  28  29
HETATM   29  C   UNL     1     -11.913  20.081  67.192  1.00  0.00     2.412 C  
HETATM   30  C   UNL     1     -11.824  20.407  68.658  1.00  0.00     3.496 C  
HETATM   31  O   UNL     1     -11.631  20.895  66.306  1.00  0.00     2.777 OA 
ENDBRANCH  28  29
ENDBRANCH   4  28
BRANCH  12  32
HETATM   32  O   UNL     1      -5.334  11.955  69.472  1.00  0.00    -0.060 OA 
BRANCH  32  33
HETATM   33  C   UNL     1      -5.564  11.468  70.724  1.00  0.00    -0.111 C  
HETATM   34  O   UNL     1      -5.460  12.192  71.698  1.00  0.00    -0.383 OA 
HETATM   35  C   UNL     1      -5.821   9.984  70.859  1.00  0.00    -0.088 C  
ENDBRANCH  32  33
ENDBRANCH  12  32
BRANCH  11  36
HETATM   36  N   UNL     1      -7.686  10.819  68.354  1.00  0.00    -0.106 NA 
HETATM   37  C   UNL     1      -6.281   9.475  66.499  1.00  0.00    -0.065 C  
HETATM   38  C   UNL     1      -6.535   9.963  67.986  1.00  0.00    -0.056 C  
HETATM   39  N   UNL     1      -7.533   9.187  65.634  1.00  0.00    -0.092 N  
HETATM   40  C   UNL     1      -7.912   7.706  65.709  1.00  0.00    -0.116 C  
HETATM   41  C   UNL     1      -8.690  10.119  66.034  1.00  0.00    -0.140 C  
HETATM   42  C   UNL     1      -7.205   9.454  64.142  1.00  0.00    -0.106 C  
HETATM   43  C   UNL     1      -8.850  10.292  67.573  1.00  0.00    -0.128 C  
ENDBRANCH  11  36
TORSDOF 6
ENDMDL
MODEL      126
REMARK 921   NORMALIZED FREE ENERGY PREDICTED BY IDOCK:   28.46 KCAL/MOL
REMARK 922        TOTAL FREE ENERGY PREDICTED BY IDOCK:   36.71 KCAL/MOL
REMARK 923 INTER-LIGAND FREE ENERGY PREDICTED BY IDOCK:   31.08 KCAL/MOL
REMARK 924 INTRA-LIGAND FREE ENERGY PREDICTED BY IDOCK:    5.63 KCAL/MOL
REMARK 927      BINDING AFFINITY PREDICTED BY RF-SCORE:    0.00 PKD
ROOT
HETATM    1  C   UNL     1      -7.774  12.942  71.364  1.00  0.00     8.572 C  
HETATM    2  C   UNL     1      -6.584  12.888  70.589  1.00  0.00     1.048 C  
HETATM    3  C   UNL     1      -7.723  13.066  69.594  1.00  0.00     1.060 C  
HETATM    4  C   UNL     1      -9.465  13.524  70.605  1.00  0.00     5.392 C  
HETATM    5  C   UNL     1     -11.304   9.347  69.896  1.00  0.00    -0.121 C  
HETATM    6  C   UNL     1      -8.416  14.314  70.256  1.00  0.00     1.845 C  
HETATM    7  C   UNL     1      -9.796   9.274  69.549  1.00  0.00    -0.188 C  
HETATM    8  C   UNL     1      -9.637   8.653  67.959  1.00  0.00    -0.168 C  
HETATM    9  C   UNL     1      -7.968  15.720  70.606  1.00  0.00     2.087 C  
HETATM   10  C   UNL     1      -9.585  13.862  68.813  1.00  0.00    -0.073 C  
HETATM   11  C   UNL     1      -8.414   7.601  67.729  1.00  0.00    -0.122 C  
HETATM   12  C   UNL     1      -8.762   6.592  68.848  1.00  0.00    -0.128 C  
HETATM   13  C   UNL     1      -8.126   7.203  70.114  1.00  0.00    -0.130 C  
HETATM   14  C   UNL     1     -10.129  12.095  68.889  1.00  0.00    -0.012 C  
HETATM   15  C   UNL     1      -9.145   8.266  70.640  1.00  0.00    -0.164 C  
HETATM   16  C   UNL     1      -8.706   8.907  71.967  1.00  0.00    -0.031 C  
HETATM   17  C   UNL     1      -7.844  10.161  71.840  1.00  0.00     3.451 C  
HETATM   18  C   UNL     1      -8.644  11.291  71.189  1.00  0.00     7.476 C  
HETATM   19  C   UNL     1      -9.235  10.806  69.665  1.00  0.00     0.239 C  
ENDROOT
BRANCH   3  20
HETATM   20  N   UNL     1      -7.168  13.434  68.128  1.00  0.00    -0.098 NA 
HETATM   21  C   UNL     1     -10.309  15.675  66.844  1.00  0.00    -0.293 C  
HETATM   22  C   UNL     1      -7.727  13.010  66.838  1.00  0.00     0.213 C  
HETATM   23  C   UNL     1      -8.326  16.540  65.634  1.00  0.00     0.754 C  
HETATM   24  C   UNL     1      -6.781  14.842  67.971  1.00  0.00    -0.144 C  
HETATM   25  C   UNL     1      -8.646  13.991  66.018  1.00  0.00     0.981 C  
HETATM   26  N   UNL     1      -8.812  15.455  66.589  1.00  0.00    -0.273 N  
HETATM   27  C   UNL     1      -8.044  15.683  67.887  1.00  0.00    -0.141 C  
ENDBRANCH   3  20
BRANCH   4  28
HETATM   28  O   UNL     1     -10.237  14.816  70.935  1.00  0.00     0.505 OA 
BRANCH  28  29
HETATM   29  C   UNL     1     -11.582  14.795  71.097  1.00  0.00    -0.270 C  
HETATM   30  C   UNL     1     -12.324  15.043  69.812  1.00  0.00    -0.278 C  
HETATM   31  O   UNL     1     -12.152  14.525  72.159  1.00  0.00    -0.285 OA 
ENDBRANCH  28  29
ENDBRANCH   4  28
BRANCH  12  32
HETATM   32  O   UNL     1      -8.558   5.228  68.477  1.00  0.00    -0.095 OA 
BRANCH  32  33
HETATM   33  C   UNL     1      -9.716   4.608  68.113  1.00  0.00    -0.138 C  
HETATM   34  O   UNL     1     -10.783   5.187  68.202  1.00  0.00    -0.018 OA 
HETATM   35  C   UNL     1      -9.632   3.148  67.724  1.00  0.00    -0.120 C  
ENDBRANCH  32  33
ENDBRANCH  12  32
BRANCH  11  36
HETATM   36  N   UNL     1      -7.890   7.055  66.406  1.00  0.00    -0.103 NA 
HETATM   37  C   UNL     1      -6.799   8.672  64.559  1.00  0.00    -0.069 C  
HETATM   38  C   UNL     1      -6.695   7.601  65.722  1.00  0.00    -0.046 C  
HETATM   39  N   UNL     1      -8.021   8.565  63.615  1.00  0.00    -0.155 N  
HETATM   40  C   UNL     1      -7.677   7.733  62.377  1.00  0.00    -0.115 C  
HETATM   41  C   UNL     1      -9.243   8.021  64.377  1.00  0.00     1.306 C  
HETATM   42  C   UNL     1      -8.387   9.972  63.078  1.00  0.00    -0.166 C  
HETATM   43  C   UNL     1      -8.909   6.836  65.330  1.00  0.00     0.100 C  
ENDBRANCH  11  36
TORSDOF 6
ENDMDL
MODEL      127
REMARK 921   NORMALIZED FREE ENERGY PREDICTED BY IDOCK:   28.63 KCAL/MOL
REMARK 922        TOTAL FREE ENERGY PREDICTED BY IDOCK:   36.93 KCAL/MOL
REMARK 923 INTER-LIGAND FREE ENERGY PREDICTED BY IDOCK:   31.80 KCAL/MOL
REMARK 924 INTRA-LIGAND FREE ENERGY PREDICTED BY IDOCK:    5.14 KCAL/MOL
REMARK 927      BINDING AFFINITY PREDICTED BY RF-SCORE:    0.00 PKD
ROOT
HETATM    1  C   UNL     1      -8.231   9.606  68.224  1.00  0.00    -0.106 C  
HETATM    2  C   UNL     1      -8.313   9.882  69.616  1.00  0.00    -0.181 C  
HETATM    3  C   UNL     1      -9.676   9.332  69.218  1.00  0.00    -0.169 C  
HETATM    4  C   UNL     1      -9.580   8.550  67.308  1.00  0.00    -0.171 C  
HETATM    5  C   UNL     1     -11.963  12.048  65.458  1.00  0.00    -0.168 C  
HETATM    6  C   UNL     1      -9.195   8.018  68.498  1.00  0.00    -0.135 C  
HETATM    7  C   UNL     1     -11.530  12.463  66.886  1.00  0.00    -0.423 C  
HETATM    8  C   UNL     1     -12.927  12.951  67.752  1.00  0.00     2.654 C  
HETATM    9  C   UNL     1      -8.382   6.809  68.919  1.00  0.00    -0.121 C  
HETATM   10  C   UNL     1     -11.083   8.025  68.207  1.00  0.00     0.328 C  
HETATM   11  C   UNL     1     -12.742  14.249  68.720  1.00  0.00     0.725 C  
HETATM   12  C   UNL     1     -12.180  15.240  67.675  1.00  0.00     0.462 C  
HETATM   13  C   UNL     1     -10.668  14.930  67.640  1.00  0.00    -0.270 C  
HETATM   14  C   UNL     1     -11.658   9.599  67.421  1.00  0.00     1.465 C  
HETATM   15  C   UNL     1     -10.501  13.700  66.689  1.00  0.00    -0.272 C  
HETATM   16  C   UNL     1      -9.028  13.318  66.463  1.00  0.00    -0.069 C  
HETATM   17  C   UNL     1      -8.448  12.314  67.456  1.00  0.00    -0.172 C  
HETATM   18  C   UNL     1      -9.154  10.963  67.318  1.00  0.00    -0.146 C  
HETATM   19  C   UNL     1     -10.835  11.138  67.546  1.00  0.00    -0.303 C  
ENDROOT
BRANCH   3  20
HETATM   20  N   UNL     1     -10.566   8.978  70.513  1.00  0.00    -0.213 NA 
HETATM   21  C   UNL     1     -10.588   4.930  70.136  1.00  0.00     0.089 C  
HETATM   22  C   UNL     1     -11.904   8.376  70.529  1.00  0.00    -0.001 C  
HETATM   23  C   UNL     1     -10.825   5.380  72.562  1.00  0.00    -0.250 C  
HETATM   24  C   UNL     1      -9.811   8.344  71.601  1.00  0.00    -0.221 C  
HETATM   25  C   UNL     1     -12.071   6.836  70.807  1.00  0.00    -0.347 C  
HETATM   26  N   UNL     1     -10.763   6.035  71.186  1.00  0.00    -0.252 N  
HETATM   27  C   UNL     1      -9.511   6.907  71.208  1.00  0.00    -0.165 C  
ENDBRANCH   3  20
BRANCH   4  28
HETATM   28  O   UNL     1      -9.409   7.144  66.704  1.00  0.00    -0.155 OA 
BRANCH  28  29
HETATM   29  C   UNL     1      -8.192   6.714  66.291  1.00  0.00    -0.120 C  
HETATM   30  C   UNL     1      -7.978   5.247  66.543  1.00  0.00    -0.104 C  
HETATM   31  O   UNL     1      -7.368   7.419  65.698  1.00  0.00    -0.070 OA 
ENDBRANCH  28  29
ENDBRANCH   4  28
BRANCH  12  32
HETATM   32  O   UNL     1     -12.680  16.570  67.815  1.00  0.00     2.056 OA 
BRANCH  32  33
HETATM   33  C   UNL     1     -12.975  17.145  66.615  1.00  0.00     7.515 C  
HETATM   34  O   UNL     1     -13.236  18.333  66.545  1.00  0.00     9.010 OA 
HETATM   35  C   UNL     1     -13.090  16.233  65.414  1.00  0.00     4.182 C  
ENDBRANCH  32  33
ENDBRANCH  12  32
BRANCH  11  36
HETATM   36  N   UNL     1     -13.718  14.781  69.763  1.00  0.00     1.546 NA 
HETATM   37  C   UNL     1     -12.940  16.540  71.639  1.00  0.00     1.710 C  
HETATM   38  C   UNL     1     -13.670  16.167  70.282  1.00  0.00     2.762 C  
HETATM   39  N   UNL     1     -12.989  15.486  72.772  1.00  0.00    -0.411 N  
HETATM   40  C   UNL     1     -14.168  15.756  73.711  1.00  0.00     2.461 C  
HETATM   41  C   UNL     1     -13.009  14.064  72.184  1.00  0.00    -0.369 C  
HETATM   42  C   UNL     1     -11.721  15.615  73.655  1.00  0.00    -0.075 C  
HETATM   43  C   UNL     1     -13.954  13.909  70.957  1.00  0.00     0.293 C  
ENDBRANCH  11  36
TORSDOF 6
ENDMDL
MODEL      128
REMARK 921   NORMALIZED FREE ENERGY PREDICTED BY IDOCK:   29.25 KCAL/MOL
REMARK 922        TOTAL FREE ENERGY PREDICTED BY IDOCK:   37.78 KCAL/MOL
REMARK 923 INTER-LIGAND FREE ENERGY PREDICTED BY IDOCK:   21.99 KCAL/MOL
REMARK 924 INTRA-LIGAND FREE ENERGY PREDICTED BY IDOCK:   15.79 KCAL/MOL
REMARK 927      BINDING AFFINITY PREDICTED BY RF-SCORE:    0.00 PKD
ROOT
HETATM    1  C   UNL     1     -11.978  14.383  71.231  1.00  0.00    -0.359 C  
HETATM    2  C   UNL     1     -10.877  14.195  72.111  1.00  0.00     3.253 C  
HETATM    3  C   UNL     1     -10.281  14.302  70.714  1.00  0.00     1.991 C  
HETATM    4  C   UNL     1     -11.730  14.940  69.386  1.00  0.00    -0.319 C  
HETATM    5  C   UNL     1     -12.149  10.783  67.416  1.00  0.00     1.452 C  
HETATM    6  C   UNL     1     -10.973  15.644  70.269  1.00  0.00    -0.363 C  
HETATM    7  C   UNL     1     -11.354  10.613  68.734  1.00  0.00    -0.339 C  
HETATM    8  C   UNL     1      -9.882   9.809  68.376  1.00  0.00    -0.168 C  
HETATM    9  C   UNL     1     -10.991  17.062  70.806  1.00  0.00     0.722 C  
HETATM   10  C   UNL     1     -10.041  15.076  68.700  1.00  0.00    -0.233 C  
HETATM   11  C   UNL     1      -9.405   8.691  69.462  1.00  0.00    -0.153 C  
HETATM   12  C   UNL     1     -10.689   7.830  69.489  1.00  0.00    -0.198 C  
HETATM   13  C   UNL     1     -11.605   8.557  70.496  1.00  0.00    -0.145 C  
HETATM   14  C   UNL     1     -10.498  13.351  68.208  1.00  0.00    -0.256 C  
HETATM   15  C   UNL     1     -12.295   9.711  69.699  1.00  0.00     0.718 C  
HETATM   16  C   UNL     1     -13.327  10.483  70.539  1.00  0.00     0.085 C  
HETATM   17  C   UNL     1     -12.783  11.679  71.316  1.00  0.00    -0.444 C  
HETATM   18  C   UNL     1     -12.288  12.757  70.350  1.00  0.00    -0.324 C  
HETATM   19  C   UNL     1     -11.100  12.125  69.303  1.00  0.00    -0.229 C  
ENDROOT
BRANCH   3  20
HETATM   20  N   UNL     1      -8.682  14.478  70.771  1.00  0.00     2.416 NA 
HETATM   21  C   UNL     1      -7.625  10.822  69.340  1.00  0.00    -0.112 C  
HETATM   22  C   UNL     1      -7.740  13.744  71.624  1.00  0.00     6.445 C  
HETATM   23  C   UNL     1      -5.775  12.349  68.714  1.00  0.00    -0.058 C  
HETATM   24  C   UNL     1      -8.046  14.593  69.452  1.00  0.00     0.031 C  
HETATM   25  C   UNL     1      -6.927  12.530  71.036  1.00  0.00     3.553 C  
HETATM   26  N   UNL     1      -7.085  12.250  69.489  1.00  0.00     0.125 N  
HETATM   27  C   UNL     1      -8.039  13.221  68.799  1.00  0.00     0.063 C  
ENDBRANCH   3  20
BRANCH   4  28
HETATM   28  O   UNL     1     -12.129  16.290  68.761  1.00  0.00    -0.098 OA 
BRANCH  28  29
HETATM   29  C   UNL     1     -11.227  17.023  68.066  1.00  0.00    -0.016 C  
HETATM   30  C   UNL     1     -11.816  18.285  67.500  1.00  0.00     2.146 C  
HETATM   31  O   UNL     1     -10.028  16.739  67.965  1.00  0.00    -0.256 OA 
ENDBRANCH  28  29
ENDBRANCH   4  28
BRANCH  12  32
HETATM   32  O   UNL     1     -10.440   6.426  69.563  1.00  0.00    -0.194 OA 
BRANCH  32  33
HETATM   33  C   UNL     1     -11.131   5.723  68.622  1.00  0.00     0.013 C  
HETATM   34  O   UNL     1     -11.895   6.291  67.862  1.00  0.00     0.747 OA 
HETATM   35  C   UNL     1     -11.006   4.216  68.647  1.00  0.00     3.146 C  
ENDBRANCH  32  33
ENDBRANCH  12  32
BRANCH  11  36
HETATM   36  N   UNL     1      -8.060   7.977  69.535  1.00  0.00    -0.118 NA 
HETATM   37  C   UNL     1      -6.720   7.287  67.311  1.00  0.00    -0.068 C  
HETATM   38  C   UNL     1      -6.964   8.220  68.569  1.00  0.00    -0.069 C  
HETATM   39  N   UNL     1      -7.032   5.780  67.485  1.00  0.00    -0.067 N  
HETATM   40  C   UNL     1      -5.773   5.011  67.890  1.00  0.00    -0.017 C  
HETATM   41  C   UNL     1      -8.195   5.582  68.474  1.00  0.00    -0.098 C  
HETATM   42  C   UNL     1      -7.463   5.179  66.122  1.00  0.00    -0.086 C  
HETATM   43  C   UNL     1      -8.107   6.494  69.733  1.00  0.00    -0.125 C  
ENDBRANCH  11  36
TORSDOF 6
ENDMDL
MODEL      129
REMARK 921   NORMALIZED FREE ENERGY PREDICTED BY IDOCK:   29.26 KCAL/MOL
REMARK 922        TOTAL FREE ENERGY PREDICTED BY IDOCK:   37.79 KCAL/MOL
REMARK 923 INTER-LIGAND FREE ENERGY PREDICTED BY IDOCK:   26.70 KCAL/MOL
REMARK 924 INTRA-LIGAND FREE ENERGY PREDICTED BY IDOCK:   11.10 KCAL/MOL
REMARK 927      BINDING AFFINITY PREDICTED BY RF-SCORE:    0.00 PKD
ROOT
HETATM    1  C   UNL     1     -10.817   9.286  71.521  1.00  0.00    -0.442 C  
HETATM    2  C   UNL     1     -11.930   9.050  70.669  1.00  0.00    -0.138 C  
HETATM    3  C   UNL     1     -10.700   9.008  69.771  1.00  0.00    -0.225 C  
HETATM    4  C   UNL     1      -8.992   8.973  70.933  1.00  0.00    -0.243 C  
HETATM    5  C   UNL     1      -7.893  13.349  69.942  1.00  0.00     1.559 C  
HETATM    6  C   UNL     1      -9.847   7.973  70.594  1.00  0.00    -0.192 C  
HETATM    7  C   UNL     1      -9.356  13.107  69.494  1.00  0.00     1.428 C  
HETATM    8  C   UNL     1      -9.495  13.552  67.844  1.00  0.00    -0.215 C  
HETATM    9  C   UNL     1     -10.059   6.542  71.050  1.00  0.00    -0.208 C  
HETATM   10  C   UNL     1      -8.667   8.516  69.194  1.00  0.00    -0.134 C  
HETATM   11  C   UNL     1     -10.867  14.331  67.434  1.00  0.00    -0.285 C  
HETATM   12  C   UNL     1     -10.800  15.477  68.470  1.00  0.00    -0.272 C  
HETATM   13  C   UNL     1     -11.416  14.865  69.746  1.00  0.00    -0.328 C  
HETATM   14  C   UNL     1      -8.461  10.355  69.133  1.00  0.00    -0.168 C  
HETATM   15  C   UNL     1     -10.266  14.061  70.437  1.00  0.00     1.688 C  
HETATM   16  C   UNL     1     -10.688  13.461  71.789  1.00  0.00     6.063 C  
HETATM   17  C   UNL     1     -11.294  12.061  71.729  1.00  0.00     4.242 C  
HETATM   18  C   UNL     1     -10.251  11.052  71.243  1.00  0.00     4.478 C  
HETATM   19  C   UNL     1      -9.636  11.511  69.720  1.00  0.00     1.256 C  
ENDROOT
BRANCH   3  20
HETATM   20  N   UNL     1     -11.057   8.422  68.315  1.00  0.00     0.247 NA 
HETATM   21  C   UNL     1      -8.910   4.975  68.514  1.00  0.00    -0.101 C  
HETATM   22  C   UNL     1     -10.134   8.218  67.192  1.00  0.00    -0.264 C  
HETATM   23  C   UNL     1     -10.794   4.505  66.973  1.00  0.00     1.009 C  
HETATM   24  C   UNL     1     -11.943   7.252  68.343  1.00  0.00     2.043 C  
HETATM   25  C   UNL     1      -9.550   6.785  66.903  1.00  0.00    -0.160 C  
HETATM   26  N   UNL     1     -10.107   5.599  67.785  1.00  0.00    -0.157 N  
HETATM   27  C   UNL     1     -11.140   6.050  68.813  1.00  0.00    -0.254 C  
ENDBRANCH   3  20
BRANCH   4  28
HETATM   28  O   UNL     1      -8.028   7.883  71.436  1.00  0.00    -0.086 OA 
BRANCH  28  29
HETATM   29  C   UNL     1      -6.840   8.216  71.996  1.00  0.00    -0.079 C  
HETATM   30  C   UNL     1      -5.693   7.410  71.450  1.00  0.00    -0.036 C  
HETATM   31  O   UNL     1      -6.687   9.133  72.810  1.00  0.00    -0.316 OA 
ENDBRANCH  28  29
ENDBRANCH   4  28
BRANCH  12  32
HETATM   32  O   UNL     1     -11.219  16.743  67.956  1.00  0.00    -0.295 OA 
BRANCH  32  33
HETATM   33  C   UNL     1     -11.396  16.724  66.605  1.00  0.00     0.669 C  
HETATM   34  O   UNL     1     -10.462  16.946  65.855  1.00  0.00    -0.347 OA 
HETATM   35  C   UNL     1     -12.807  16.546  66.090  1.00  0.00     5.136 C  
ENDBRANCH  32  33
ENDBRANCH  12  32
BRANCH  11  36
HETATM   36  N   UNL     1     -11.371  14.657  66.033  1.00  0.00    -0.343 NA 
HETATM   37  C   UNL     1     -13.040  13.004  64.728  1.00  0.00     0.056 C  
HETATM   38  C   UNL     1     -12.734  14.315  65.566  1.00  0.00    -0.380 C  
HETATM   39  N   UNL     1     -11.941  12.529  63.746  1.00  0.00    -0.470 N  
HETATM   40  C   UNL     1     -12.190  13.091  62.344  1.00  0.00     2.641 C  
HETATM   41  C   UNL     1     -10.545  12.882  64.288  1.00  0.00    -0.408 C  
HETATM   42  C   UNL     1     -12.014  10.988  63.592  1.00  0.00     1.156 C  
HETATM   43  C   UNL     1     -10.454  14.309  64.902  1.00  0.00    -0.430 C  
ENDBRANCH  11  36
TORSDOF 6
ENDMDL
MODEL      130
REMARK 921   NORMALIZED FREE ENERGY PREDICTED BY IDOCK:   30.09 KCAL/MOL
REMARK 922        TOTAL FREE ENERGY PREDICTED BY IDOCK:   38.92 KCAL/MOL
REMARK 923 INTER-LIGAND FREE ENERGY PREDICTED BY IDOCK:   19.92 KCAL/MOL
REMARK 924 INTRA-LIGAND FREE ENERGY PREDICTED BY IDOCK:   19.00 KCAL/MOL
REMARK 927      BINDING AFFINITY PREDICTED BY RF-SCORE:    0.00 PKD
ROOT
HETATM    1  C   UNL     1     -12.081  13.211  71.120  1.00  0.00     0.003 C  
HETATM    2  C   UNL     1     -10.909  13.151  71.923  1.00  0.00     6.628 C  
HETATM    3  C   UNL     1     -10.424  13.252  70.483  1.00  0.00     2.915 C  
HETATM    4  C   UNL     1     -12.011  13.713  69.244  1.00  0.00    -0.336 C  
HETATM    5  C   UNL     1     -12.208   9.460  67.451  1.00  0.00     5.667 C  
HETATM    6  C   UNL     1     -11.258  14.512  70.044  1.00  0.00    -0.228 C  
HETATM    7  C   UNL     1     -11.311   9.410  68.712  1.00  0.00     0.234 C  
HETATM    8  C   UNL     1      -9.804   8.718  68.275  1.00  0.00    -0.185 C  
HETATM    9  C   UNL     1     -11.361  15.944  70.534  1.00  0.00    -0.409 C  
HETATM   10  C   UNL     1     -10.393  13.962  68.432  1.00  0.00    -0.249 C  
HETATM   11  C   UNL     1      -9.157   7.687  69.361  1.00  0.00    -0.142 C  
HETATM   12  C   UNL     1     -10.358   6.725  69.510  1.00  0.00    -0.202 C  
HETATM   13  C   UNL     1     -11.260   7.411  70.557  1.00  0.00    -0.296 C  
HETATM   14  C   UNL     1     -10.733  12.186  68.033  1.00  0.00    -0.242 C  
HETATM   15  C   UNL     1     -12.101   8.472  69.773  1.00  0.00     1.084 C  
HETATM   16  C   UNL     1     -13.134   9.187  70.660  1.00  0.00     0.311 C  
HETATM   17  C   UNL     1     -12.642  10.455  71.355  1.00  0.00    -0.539 C  
HETATM   18  C   UNL     1     -12.310  11.531  70.319  1.00  0.00    -0.355 C  
HETATM   19  C   UNL     1     -11.148  10.959  69.210  1.00  0.00    -0.305 C  
ENDROOT
BRANCH   3  20
HETATM   20  N   UNL     1      -8.845  13.562  70.417  1.00  0.00     3.863 NA 
HETATM   21  C   UNL     1      -8.849  15.991  67.156  1.00  0.00    -0.204 C  
HETATM   22  C   UNL     1      -7.907  13.161  69.363  1.00  0.00     0.697 C  
HETATM   23  C   UNL     1      -6.910  16.707  68.525  1.00  0.00    -0.157 C  
HETATM   24  C   UNL     1      -8.492  14.939  70.786  1.00  0.00     2.199 C  
HETATM   25  C   UNL     1      -7.489  14.190  68.247  1.00  0.00    -0.125 C  
HETATM   26  N   UNL     1      -8.021  15.669  68.407  1.00  0.00    -0.132 N  
HETATM   27  C   UNL     1      -8.890  15.862  69.646  1.00  0.00     0.010 C  
ENDBRANCH   3  20
BRANCH   4  28
HETATM   28  O   UNL     1     -12.568  14.998  68.604  1.00  0.00     0.140 OA 
BRANCH  28  29
HETATM   29  C   UNL     1     -11.733  15.923  68.073  1.00  0.00    -0.062 C  
HETATM   30  C   UNL     1     -11.395  15.642  66.634  1.00  0.00     0.037 C  
HETATM   31  O   UNL     1     -11.344  16.935  68.667  1.00  0.00    -0.193 OA 
ENDBRANCH  28  29
ENDBRANCH   4  28
BRANCH  12  32
HETATM   32  O   UNL     1      -9.984   5.350  69.614  1.00  0.00    -0.185 OA 
BRANCH  32  33
HETATM   33  C   UNL     1     -10.238   4.832  70.848  1.00  0.00    -0.177 C  
HETATM   34  O   UNL     1     -11.041   3.927  70.986  1.00  0.00     1.563 OA 
HETATM   35  C   UNL     1      -9.587   5.507  72.035  1.00  0.00    -0.177 C  
ENDBRANCH  32  33
ENDBRANCH  12  32
BRANCH  11  36
HETATM   36  N   UNL     1      -7.754   7.092  69.359  1.00  0.00    -0.105 NA 
HETATM   37  C   UNL     1      -6.734   5.920  67.168  1.00  0.00    -0.061 C  
HETATM   38  C   UNL     1      -6.860   7.133  68.179  1.00  0.00    -0.074 C  
HETATM   39  N   UNL     1      -6.862   4.496  67.763  1.00  0.00    -0.054 N  
HETATM   40  C   UNL     1      -5.482   3.928  68.107  1.00  0.00    -0.013 C  
HETATM   41  C   UNL     1      -7.821   4.500  68.967  1.00  0.00    -0.070 C  
HETATM   42  C   UNL     1      -7.447   3.537  66.694  1.00  0.00    -0.076 C  
HETATM   43  C   UNL     1      -7.619   5.711  69.923  1.00  0.00    -0.075 C  
ENDBRANCH  11  36
TORSDOF 6
ENDMDL
MODEL      131
REMARK 921   NORMALIZED FREE ENERGY PREDICTED BY IDOCK:   31.72 KCAL/MOL
REMARK 922        TOTAL FREE ENERGY PREDICTED BY IDOCK:   41.11 KCAL/MOL
REMARK 923 INTER-LIGAND FREE ENERGY PREDICTED BY IDOCK:   35.45 KCAL/MOL
REMARK 924 INTRA-LIGAND FREE ENERGY PREDICTED BY IDOCK:    5.66 KCAL/MOL
REMARK 927      BINDING AFFINITY PREDICTED BY RF-SCORE:    0.00 PKD
ROOT
HETATM    1  C   UNL     1     -10.660  14.269  68.246  1.00  0.00    -0.247 C  
HETATM    2  C   UNL     1     -11.426  13.301  68.951  1.00  0.00    -0.342 C  
HETATM    3  C   UNL     1     -10.250  13.644  69.856  1.00  0.00     1.179 C  
HETATM    4  C   UNL     1      -9.262  15.300  69.115  1.00  0.00    -0.234 C  
HETATM    5  C   UNL     1      -5.650  12.829  67.636  1.00  0.00    -0.129 C  
HETATM    6  C   UNL     1     -10.402  15.211  69.849  1.00  0.00    -0.207 C  
HETATM    7  C   UNL     1      -6.801  11.847  67.971  1.00  0.00    -0.072 C  
HETATM    8  C   UNL     1      -6.205  10.673  69.069  1.00  0.00    -0.045 C  
HETATM    9  C   UNL     1     -11.504  16.175  70.241  1.00  0.00    -0.319 C  
HETATM   10  C   UNL     1      -8.795  14.918  70.840  1.00  0.00     2.518 C  
HETATM   11  C   UNL     1      -6.715   9.145  68.817  1.00  0.00    -0.053 C  
HETATM   12  C   UNL     1      -6.294   9.002  67.336  1.00  0.00    -0.060 C  
HETATM   13  C   UNL     1      -7.468   9.625  66.551  1.00  0.00    -0.094 C  
HETATM   14  C   UNL     1      -7.573  13.897  69.896  1.00  0.00     0.765 C  
HETATM   15  C   UNL     1      -7.222  11.169  66.559  1.00  0.00    -0.124 C  
HETATM   16  C   UNL     1      -8.259  11.943  65.728  1.00  0.00     0.577 C  
HETATM   17  C   UNL     1      -9.510  12.388  66.483  1.00  0.00    -0.242 C  
HETATM   18  C   UNL     1      -9.141  13.408  67.563  1.00  0.00    -0.215 C  
HETATM   19  C   UNL     1      -7.987  12.756  68.635  1.00  0.00    -0.023 C  
ENDROOT
BRANCH   3  20
HETATM   20  N   UNL     1     -10.463  13.058  71.341  1.00  0.00     6.245 NA 
HETATM   21  C   UNL     1     -11.160   9.175  70.358  1.00  0.00    -0.253 C  
HETATM   22  C   UNL     1     -11.699  12.504  71.905  1.00  0.00     2.837 C  
HETATM   23  C   UNL     1     -10.171   9.126  72.630  1.00  0.00     1.022 C  
HETATM   24  C   UNL     1      -9.369  12.194  71.804  1.00  0.00    17.375 C  
HETATM   25  C   UNL     1     -11.904  10.944  71.970  1.00  0.00     1.577 C  
HETATM   26  N   UNL     1     -10.682  10.046  71.527  1.00  0.00     0.309 N  
HETATM   27  C   UNL     1      -9.470  10.860  71.083  1.00  0.00     5.186 C  
ENDBRANCH   3  20
BRANCH   4  28
HETATM   28  O   UNL     1      -9.271  16.811  69.416  1.00  0.00    -0.105 OA 
BRANCH  28  29
HETATM   29  C   UNL     1      -9.723  17.696  68.495  1.00  0.00    -0.328 C  
HETATM   30  C   UNL     1     -11.205  17.587  68.263  1.00  0.00     0.245 C  
HETATM   31  O   UNL     1      -9.021  18.556  67.953  1.00  0.00    -0.274 OA 
ENDBRANCH  28  29
ENDBRANCH   4  28
BRANCH  12  32
HETATM   32  O   UNL     1      -5.759   7.719  67.011  1.00  0.00    -0.031 OA 
BRANCH  32  33
HETATM   33  C   UNL     1      -6.026   7.352  65.725  1.00  0.00    -0.037 C  
HETATM   34  O   UNL     1      -6.782   6.427  65.490  1.00  0.00    -0.045 OA 
HETATM   35  C   UNL     1      -5.254   8.050  64.627  1.00  0.00    -0.036 C  
ENDBRANCH  32  33
ENDBRANCH  12  32
BRANCH  11  36
HETATM   36  N   UNL     1      -6.538   7.940  69.734  1.00  0.00    -0.034 NA 
HETATM   37  C   UNL     1      -8.395   6.003  69.871  1.00  0.00    -0.123 C  
HETATM   38  C   UNL     1      -7.003   6.580  69.379  1.00  0.00    -0.071 C  
HETATM   39  N   UNL     1      -8.879   6.446  71.274  1.00  0.00    -0.138 N  
HETATM   40  C   UNL     1      -8.452   5.432  72.338  1.00  0.00    -0.119 C  
HETATM   41  C   UNL     1      -8.395   7.874  71.585  1.00  0.00    -0.116 C  
HETATM   42  C   UNL     1     -10.429   6.453  71.310  1.00  0.00    -0.216 C  
HETATM   43  C   UNL     1      -6.919   8.138  71.168  1.00  0.00    -0.053 C  
ENDBRANCH  11  36
TORSDOF 6
ENDMDL
MODEL      132
REMARK 921   NORMALIZED FREE ENERGY PREDICTED BY IDOCK:   32.04 KCAL/MOL
REMARK 922        TOTAL FREE ENERGY PREDICTED BY IDOCK:   41.54 KCAL/MOL
REMARK 923 INTER-LIGAND FREE ENERGY PREDICTED BY IDOCK:   36.01 KCAL/MOL
REMARK 924 INTRA-LIGAND FREE ENERGY PREDICTED BY IDOCK:    5.53 KCAL/MOL
REMARK 927      BINDING AFFINITY PREDICTED BY RF-SCORE:    0.00 PKD
ROOT
HETATM    1  C   UNL     1      -8.599   9.695  68.054  1.00  0.00    -0.119 C  
HETATM    2  C   UNL     1      -9.785   9.704  68.838  1.00  0.00    -0.163 C  
HETATM    3  C   UNL     1      -9.987  10.763  67.762  1.00  0.00    -0.171 C  
HETATM    4  C   UNL     1      -8.497  10.603  66.340  1.00  0.00    -0.152 C  
HETATM    5  C   UNL     1      -6.329  14.420  67.779  1.00  0.00    -0.168 C  
HETATM    6  C   UNL     1      -9.639   9.885  66.503  1.00  0.00    -0.243 C  
HETATM    7  C   UNL     1      -7.360  14.014  68.862  1.00  0.00    -0.113 C  
HETATM    8  C   UNL     1      -8.367  15.365  69.181  1.00  0.00    -0.242 C  
HETATM    9  C   UNL     1     -10.195   8.604  65.912  1.00  0.00     0.429 C  
HETATM   10  C   UNL     1      -9.898  11.633  65.776  1.00  0.00    -0.268 C  
HETATM   11  C   UNL     1      -8.758  15.602  70.745  1.00  0.00     2.400 C  
HETATM   12  C   UNL     1      -7.330  15.631  71.339  1.00  0.00     3.377 C  
HETATM   13  C   UNL     1      -6.983  14.143  71.553  1.00  0.00     2.155 C  
HETATM   14  C   UNL     1      -8.827  12.895  66.604  1.00  0.00    -0.098 C  
HETATM   15  C   UNL     1      -6.486  13.613  70.168  1.00  0.00     0.040 C  
HETATM   16  C   UNL     1      -6.001  12.155  70.227  1.00  0.00    -0.137 C  
HETATM   17  C   UNL     1      -7.069  11.094  69.971  1.00  0.00     0.213 C  
HETATM   18  C   UNL     1      -7.587  11.199  68.535  1.00  0.00    -0.120 C  
HETATM   19  C   UNL     1      -8.202  12.761  68.233  1.00  0.00    -0.159 C  
ENDROOT
BRANCH   3  20
HETATM   20  N   UNL     1     -11.518  11.258  67.706  1.00  0.00    -0.458 NA 
HETATM   21  C   UNL     1     -11.113  14.143  64.871  1.00  0.00    -0.385 C  
HETATM   22  C   UNL     1     -12.039  12.571  68.102  1.00  0.00    -0.067 C  
HETATM   23  C   UNL     1     -13.450  13.339  64.682  1.00  0.00     1.199 C  
HETATM   24  C   UNL     1     -12.221  10.885  66.472  1.00  0.00     2.840 C  
HETATM   25  C   UNL     1     -12.335  13.663  67.006  1.00  0.00    -0.232 C  
HETATM   26  N   UNL     1     -12.167  13.221  65.498  1.00  0.00    -0.431 N  
HETATM   27  C   UNL     1     -11.720  11.771  65.344  1.00  0.00    -0.049 C  
ENDBRANCH   3  20
BRANCH   4  28
HETATM   28  O   UNL     1      -8.371   9.953  64.950  1.00  0.00    -0.134 OA 
BRANCH  28  29
HETATM   29  C   UNL     1      -7.178   9.921  64.307  1.00  0.00    -0.134 C  
HETATM   30  C   UNL     1      -6.011   9.845  65.253  1.00  0.00    -0.084 C  
HETATM   31  O   UNL     1      -7.050   9.880  63.079  1.00  0.00    -0.115 OA 
ENDBRANCH  28  29
ENDBRANCH   4  28
BRANCH  12  32
HETATM   32  O   UNL     1      -7.155  16.608  72.367  1.00  0.00     7.146 OA 
BRANCH  32  33
HETATM   33  C   UNL     1      -5.842  16.899  72.590  1.00  0.00     2.608 C  
HETATM   34  O   UNL     1      -5.236  17.644  71.841  1.00  0.00    -0.389 OA 
HETATM   35  C   UNL     1      -5.148  16.166  73.717  1.00  0.00     5.047 C  
ENDBRANCH  32  33
ENDBRANCH  12  32
BRANCH  11  36
HETATM   36  N   UNL     1      -9.792  16.568  71.311  1.00  0.00     3.195 NA 
HETATM   37  C   UNL     1     -11.612  15.768  73.119  1.00  0.00    -0.119 C  
HETATM   38  C   UNL     1     -10.271  16.510  72.711  1.00  0.00     6.452 C  
HETATM   39  N   UNL     1     -12.775  15.813  72.097  1.00  0.00    -0.429 N  
HETATM   40  C   UNL     1     -13.714  16.983  72.398  1.00  0.00     4.616 C  
HETATM   41  C   UNL     1     -12.227  15.844  70.659  1.00  0.00    -0.309 C  
HETATM   42  C   UNL     1     -13.644  14.537  72.245  1.00  0.00    -0.440 C  
HETATM   43  C   UNL     1     -11.012  16.798  70.474  1.00  0.00     0.224 C  
ENDBRANCH  11  36
TORSDOF 6
ENDMDL
MODEL      133
REMARK 921   NORMALIZED FREE ENERGY PREDICTED BY IDOCK:   33.37 KCAL/MOL
REMARK 922        TOTAL FREE ENERGY PREDICTED BY IDOCK:   43.34 KCAL/MOL
REMARK 923 INTER-LIGAND FREE ENERGY PREDICTED BY IDOCK:   35.22 KCAL/MOL
REMARK 924 INTRA-LIGAND FREE ENERGY PREDICTED BY IDOCK:    8.12 KCAL/MOL
REMARK 927      BINDING AFFINITY PREDICTED BY RF-SCORE:    0.00 PKD
ROOT
HETATM    1  C   UNL     1      -9.206  13.648  65.374  1.00  0.00     0.681 C  
HETATM    2  C   UNL     1     -10.471  14.278  65.533  1.00  0.00    -0.361 C  
HETATM    3  C   UNL     1      -9.730  14.491  66.846  1.00  0.00    -0.252 C  
HETATM    4  C   UNL     1      -7.750  13.945  66.624  1.00  0.00     0.932 C  
HETATM    5  C   UNL     1      -8.249  10.077  69.100  1.00  0.00    -0.137 C  
HETATM    6  C   UNL     1      -8.394  15.086  66.265  1.00  0.00     0.345 C  
HETATM    7  C   UNL     1      -9.661  10.613  68.754  1.00  0.00    -0.190 C  
HETATM    8  C   UNL     1     -10.549  10.774  70.211  1.00  0.00     0.181 C  
HETATM    9  C   UNL     1      -8.048  16.291  65.411  1.00  0.00     2.379 C  
HETATM   10  C   UNL     1      -8.040  14.929  68.136  1.00  0.00    -0.137 C  
HETATM   11  C   UNL     1     -12.117  10.332  70.137  1.00  0.00    -0.202 C  
HETATM   12  C   UNL     1     -11.928   8.902  69.581  1.00  0.00     0.932 C  
HETATM   13  C   UNL     1     -11.815   9.105  68.056  1.00  0.00     2.413 C  
HETATM   14  C   UNL     1      -8.336  13.211  68.757  1.00  0.00     0.120 C  
HETATM   15  C   UNL     1     -10.326   9.498  67.782  1.00  0.00    -0.291 C  
HETATM   16  C   UNL     1     -10.013   9.643  66.283  1.00  0.00    -0.335 C  
HETATM   17  C   UNL     1     -10.229  11.036  65.697  1.00  0.00    -0.318 C  
HETATM   18  C   UNL     1      -9.251  12.032  66.325  1.00  0.00    -0.208 C  
HETATM   19  C   UNL     1      -9.426  12.056  68.021  1.00  0.00    -0.199 C  
ENDROOT
BRANCH   3  20
HETATM   20  N   UNL     1     -10.479  15.573  67.774  1.00  0.00    -0.267 NA 
HETATM   21  C   UNL     1      -9.671  18.902  65.584  1.00  0.00     0.453 C  
HETATM   22  C   UNL     1      -9.862  16.663  68.537  1.00  0.00    -0.252 C  
HETATM   23  C   UNL     1     -11.805  19.370  66.756  1.00  0.00     1.880 C  
HETATM   24  C   UNL     1     -11.705  16.122  67.179  1.00  0.00     0.628 C  
HETATM   25  C   UNL     1      -9.867  18.129  67.960  1.00  0.00    -0.325 C  
HETATM   26  N   UNL     1     -10.668  18.363  66.619  1.00  0.00    -0.296 N  
HETATM   27  C   UNL     1     -11.314  17.092  66.077  1.00  0.00     0.858 C  
ENDBRANCH   3  20
BRANCH   4  28
HETATM   28  O   UNL     1      -6.429  14.689  66.353  1.00  0.00     1.834 OA 
BRANCH  28  29
HETATM   29  C   UNL     1      -6.222  15.933  66.849  1.00  0.00     0.331 C  
HETATM   30  C   UNL     1      -5.260  15.944  68.005  1.00  0.00    -0.130 C  
HETATM   31  O   UNL     1      -6.703  16.964  66.367  1.00  0.00    -0.218 OA 
ENDBRANCH  28  29
ENDBRANCH   4  28
BRANCH  12  32
HETATM   32  O   UNL     1     -12.814   7.940  70.156  1.00  0.00     0.901 OA 
BRANCH  32  33
HETATM   33  C   UNL     1     -12.154   6.856  70.653  1.00  0.00    -0.311 C  
HETATM   34  O   UNL     1     -12.387   6.451  71.778  1.00  0.00    -0.333 OA 
HETATM   35  C   UNL     1     -11.046   6.266  69.808  1.00  0.00    -0.473 C  
ENDBRANCH  32  33
ENDBRANCH  12  32
BRANCH  11  36
HETATM   36  N   UNL     1     -13.199  10.559  71.186  1.00  0.00    -0.331 NA 
HETATM   37  C   UNL     1     -14.051  13.031  71.805  1.00  0.00     0.420 C  
HETATM   38  C   UNL     1     -14.215  11.631  71.079  1.00  0.00     3.367 C  
HETATM   39  N   UNL     1     -13.338  13.028  73.179  1.00  0.00     1.001 N  
HETATM   40  C   UNL     1     -14.356  12.925  74.317  1.00  0.00    12.411 C  
HETATM   41  C   UNL     1     -12.274  11.917  73.230  1.00  0.00     7.575 C  
HETATM   42  C   UNL     1     -12.616  14.384  73.392  1.00  0.00    -0.145 C  
HETATM   43  C   UNL     1     -12.747  10.568  72.613  1.00  0.00     1.294 C  
ENDBRANCH  11  36
TORSDOF 6
ENDMDL
MODEL      134
REMARK 921   NORMALIZED FREE ENERGY PREDICTED BY IDOCK:   35.07 KCAL/MOL
REMARK 922        TOTAL FREE ENERGY PREDICTED BY IDOCK:   45.64 KCAL/MOL
REMARK 923 INTER-LIGAND FREE ENERGY PREDICTED BY IDOCK:   33.18 KCAL/MOL
REMARK 924 INTRA-LIGAND FREE ENERGY PREDICTED BY IDOCK:   12.45 KCAL/MOL
REMARK 927      BINDING AFFINITY PREDICTED BY RF-SCORE:    0.00 PKD
ROOT
HETATM    1  C   UNL     1     -11.030  14.895  70.074  1.00  0.00    -0.234 C  
HETATM    2  C   UNL     1     -10.541  13.596  70.379  1.00  0.00     1.608 C  
HETATM    3  C   UNL     1      -9.356  14.366  69.812  1.00  0.00     0.724 C  
HETATM    4  C   UNL     1      -9.834  16.371  69.667  1.00  0.00    -0.028 C  
HETATM    5  C   UNL     1     -10.212  16.234  65.065  1.00  0.00     0.123 C  
HETATM    6  C   UNL     1      -9.438  15.635  70.739  1.00  0.00     1.579 C  
HETATM    7  C   UNL     1     -10.184  14.776  65.589  1.00  0.00    -0.382 C  
HETATM    8  C   UNL     1      -8.939  13.931  64.767  1.00  0.00     2.923 C  
HETATM    9  C   UNL     1      -9.385  15.865  72.237  1.00  0.00     7.605 C  
HETATM   10  C   UNL     1      -8.039  16.065  69.511  1.00  0.00    -0.028 C  
HETATM   11  C   UNL     1      -9.288  12.397  64.340  1.00  0.00     0.493 C  
HETATM   12  C   UNL     1     -10.594  12.666  63.556  1.00  0.00    -0.260 C  
HETATM   13  C   UNL     1     -11.683  12.711  64.648  1.00  0.00    -0.411 C  
HETATM   14  C   UNL     1      -8.589  15.914  67.750  1.00  0.00    -0.164 C  
HETATM   15  C   UNL     1     -11.642  14.158  65.241  1.00  0.00    -0.341 C  
HETATM   16  C   UNL     1     -12.742  14.406  66.286  1.00  0.00     0.035 C  
HETATM   17  C   UNL     1     -12.369  14.072  67.728  1.00  0.00    -0.040 C  
HETATM   18  C   UNL     1     -11.252  14.998  68.214  1.00  0.00    -0.309 C  
HETATM   19  C   UNL     1      -9.890  14.883  67.195  1.00  0.00    -0.231 C  
ENDROOT
BRANCH   3  20
HETATM   20  N   UNL     1      -7.974  13.575  70.051  1.00  0.00     1.645 NA 
HETATM   21  C   UNL     1      -8.424  10.709  67.203  1.00  0.00    -0.128 C  
HETATM   22  C   UNL     1      -7.814  12.202  70.544  1.00  0.00     4.500 C  
HETATM   23  C   UNL     1      -5.978  11.023  67.460  1.00  0.00    -0.046 C  
HETATM   24  C   UNL     1      -6.993  13.747  68.972  1.00  0.00    -0.104 C  
HETATM   25  C   UNL     1      -7.548  11.027  69.529  1.00  0.00     0.007 C  
HETATM   26  N   UNL     1      -7.340  11.428  68.016  1.00  0.00    -0.086 N  
HETATM   27  C   UNL     1      -7.446  12.931  67.773  1.00  0.00    -0.136 C  
ENDBRANCH   3  20
BRANCH   4  28
HETATM   28  O   UNL     1      -9.580  17.625  70.524  1.00  0.00     2.261 OA 
BRANCH  28  29
HETATM   29  C   UNL     1      -9.191  18.788  69.947  1.00  0.00     1.098 C  
HETATM   30  C   UNL     1      -7.714  18.833  69.669  1.00  0.00     0.414 C  
HETATM   31  O   UNL     1      -9.965  19.691  69.610  1.00  0.00    -0.265 OA 
ENDBRANCH  28  29
ENDBRANCH   4  28
BRANCH  12  32
HETATM   32  O   UNL     1     -10.731  11.872  62.377  1.00  0.00     0.881 OA 
BRANCH  32  33
HETATM   33  C   UNL     1     -11.452  10.736  62.595  1.00  0.00     2.086 C  
HETATM   34  O   UNL     1     -10.889   9.682  62.831  1.00  0.00     3.201 OA 
HETATM   35  C   UNL     1     -12.950  10.814  62.407  1.00  0.00     4.215 C  
ENDBRANCH  32  33
ENDBRANCH  12  32
BRANCH  11  36
HETATM   36  N   UNL     1      -8.332  11.339  63.802  1.00  0.00     0.416 NA 
HETATM   37  C   UNL     1      -9.109   8.788  63.475  1.00  0.00     0.601 C  
HETATM   38  C   UNL     1      -8.765  10.232  62.919  1.00  0.00    -0.209 C  
HETATM   39  N   UNL     1      -8.282   8.289  64.685  1.00  0.00    -0.158 N  
HETATM   40  C   UNL     1      -7.080   7.466  64.216  1.00  0.00    -0.066 C  
HETATM   41  C   UNL     1      -7.880   9.470  65.586  1.00  0.00    -0.101 C  
HETATM   42  C   UNL     1      -9.141   7.317  65.535  1.00  0.00     0.222 C  
HETATM   43  C   UNL     1      -7.398  10.723  64.797  1.00  0.00     0.276 C  
ENDBRANCH  11  36
TORSDOF 6
ENDMDL
MODEL      135
REMARK 921   NORMALIZED FREE ENERGY PREDICTED BY IDOCK:   38.72 KCAL/MOL
REMARK 922        TOTAL FREE ENERGY PREDICTED BY IDOCK:   50.57 KCAL/MOL
REMARK 923 INTER-LIGAND FREE ENERGY PREDICTED BY IDOCK:   44.63 KCAL/MOL
REMARK 924 INTRA-LIGAND FREE ENERGY PREDICTED BY IDOCK:    5.94 KCAL/MOL
REMARK 927      BINDING AFFINITY PREDICTED BY RF-SCORE:    0.00 PKD
ROOT
HETATM    1  C   UNL     1     -10.416   7.214  71.036  1.00  0.00    -0.230 C  
HETATM    2  C   UNL     1      -9.264   7.859  70.509  1.00  0.00    -0.158 C  
HETATM    3  C   UNL     1      -9.306   8.221  71.987  1.00  0.00    -0.230 C  
HETATM    4  C   UNL     1     -10.719   7.060  72.948  1.00  0.00    -0.288 C  
HETATM    5  C   UNL     1     -13.698  10.562  73.397  1.00  0.00     3.886 C  
HETATM    6  C   UNL     1      -9.444   6.769  72.579  1.00  0.00    -0.151 C  
HETATM    7  C   UNL     1     -12.604  10.987  72.386  1.00  0.00     0.937 C  
HETATM    8  C   UNL     1     -11.929  12.472  72.915  1.00  0.00     5.030 C  
HETATM    9  C   UNL     1      -8.612   5.504  72.500  1.00  0.00    -0.121 C  
HETATM   10  C   UNL     1      -9.588   7.896  74.115  1.00  0.00     0.489 C  
HETATM   11  C   UNL     1     -11.604  13.558  71.743  1.00  0.00     1.936 C  
HETATM   12  C   UNL     1     -13.001  13.614  71.084  1.00  0.00    -0.278 C  
HETATM   13  C   UNL     1     -13.003  12.418  70.108  1.00  0.00     0.596 C  
HETATM   14  C   UNL     1     -10.918   9.168  73.921  1.00  0.00     6.923 C  
HETATM   15  C   UNL     1     -13.365  11.161  70.965  1.00  0.00     0.153 C  
HETATM   16  C   UNL     1     -13.507   9.884  70.120  1.00  0.00     0.697 C  
HETATM   17  C   UNL     1     -12.226   9.076  69.926  1.00  0.00     0.829 C  
HETATM   18  C   UNL     1     -11.743   8.519  71.267  1.00  0.00    -0.331 C  
HETATM   19  C   UNL     1     -11.498   9.781  72.388  1.00  0.00     1.234 C  
ENDROOT
BRANCH   3  20
HETATM   20  N   UNL     1      -7.927   8.901  72.464  1.00  0.00    -0.347 NA 
HETATM   21  C   UNL     1      -7.074  10.971  69.070  1.00  0.00    -0.106 C  
HETATM   22  C   UNL     1      -6.585   8.652  71.925  1.00  0.00    -0.077 C  
HETATM   23  C   UNL     1      -6.030  12.251  70.918  1.00  0.00     0.280 C  
HETATM   24  C   UNL     1      -8.022  10.348  72.693  1.00  0.00     7.547 C  
HETATM   25  C   UNL     1      -5.955   9.654  70.886  1.00  0.00    -0.081 C  
HETATM   26  N   UNL     1      -6.778  10.967  70.576  1.00  0.00     0.122 N  
HETATM   27  C   UNL     1      -8.094  11.046  71.345  1.00  0.00     6.731 C  
ENDBRANCH   3  20
BRANCH   4  28
HETATM   28  O   UNL     1     -10.693   5.772  73.793  1.00  0.00    -0.270 OA 
BRANCH  28  29
HETATM   29  C   UNL     1     -11.250   4.628  73.325  1.00  0.00    -0.325 C  
HETATM   30  C   UNL     1     -10.267   3.764  72.584  1.00  0.00    -0.238 C  
HETATM   31  O   UNL     1     -12.416   4.282  73.544  1.00  0.00     0.273 OA 
ENDBRANCH  28  29
ENDBRANCH   4  28
BRANCH  12  32
HETATM   32  O   UNL     1     -13.395  14.926  70.680  1.00  0.00    -0.327 OA 
BRANCH  32  33
HETATM   33  C   UNL     1     -13.290  15.110  69.333  1.00  0.00     1.498 C  
HETATM   34  O   UNL     1     -13.422  16.219  68.848  1.00  0.00     2.267 OA 
HETATM   35  C   UNL     1     -13.134  13.877  68.471  1.00  0.00     2.426 C  
ENDBRANCH  32  33
ENDBRANCH  12  32
BRANCH  11  36
HETATM   36  N   UNL     1     -10.816  14.857  71.869  1.00  0.00     0.446 NA 
HETATM   37  C   UNL     1     -11.214  16.904  70.175  1.00  0.00     0.383 C  
HETATM   38  C   UNL     1     -11.398  16.187  71.577  1.00  0.00    -0.212 C  
HETATM   39  N   UNL     1      -9.869  16.674  69.443  1.00  0.00    -0.180 N  
HETATM   40  C   UNL     1      -8.874  17.787  69.777  1.00  0.00     1.318 C  
HETATM   41  C   UNL     1      -9.319  15.271  69.755  1.00  0.00    -0.075 C  
HETATM   42  C   UNL     1     -10.091  16.765  67.911  1.00  0.00    -0.284 C  
HETATM   43  C   UNL     1      -9.452  14.867  71.253  1.00  0.00     2.941 C  
ENDBRANCH  11  36
TORSDOF 6
ENDMDL
MODEL      136
REMARK 921   NORMALIZED FREE ENERGY PREDICTED BY IDOCK:   43.25 KCAL/MOL
REMARK 922        TOTAL FREE ENERGY PREDICTED BY IDOCK:   56.68 KCAL/MOL
REMARK 923 INTER-LIGAND FREE ENERGY PREDICTED BY IDOCK:   37.57 KCAL/MOL
REMARK 924 INTRA-LIGAND FREE ENERGY PREDICTED BY IDOCK:   19.11 KCAL/MOL
REMARK 927      BINDING AFFINITY PREDICTED BY RF-SCORE:    0.00 PKD
ROOT
HETATM    1  C   UNL     1      -8.743  19.040  66.644  1.00  0.00    -0.317 C  
HETATM    2  C   UNL     1      -8.070  18.160  65.753  1.00  0.00     0.172 C  
HETATM    3  C   UNL     1      -9.351  17.443  66.159  1.00  0.00    -0.149 C  
HETATM    4  C   UNL     1     -10.595  18.754  67.160  1.00  0.00    -0.428 C  
HETATM    5  C   UNL     1      -9.805  16.801  71.271  1.00  0.00     4.183 C  
HETATM    6  C   UNL     1     -10.374  18.592  65.830  1.00  0.00    -0.232 C  
HETATM    7  C   UNL     1      -8.742  16.273  70.275  1.00  0.00     1.777 C  
HETATM    8  C   UNL     1      -8.782  14.559  70.303  1.00  0.00     1.488 C  
HETATM    9  C   UNL     1     -10.732  19.373  64.580  1.00  0.00     3.421 C  
HETATM   10  C   UNL     1     -11.461  17.237  66.625  1.00  0.00     1.204 C  
HETATM   11  C   UNL     1      -7.333  13.816  70.233  1.00  0.00     1.154 C  
HETATM   12  C   UNL     1      -6.652  14.525  71.427  1.00  0.00     0.777 C  
HETATM   13  C   UNL     1      -6.114  15.840  70.825  1.00  0.00     0.313 C  
HETATM   14  C   UNL     1     -10.829  16.729  68.289  1.00  0.00    -0.366 C  
HETATM   15  C   UNL     1      -7.320  16.835  70.814  1.00  0.00     3.402 C  
HETATM   16  C   UNL     1      -6.928  18.241  70.330  1.00  0.00     1.127 C  
HETATM   17  C   UNL     1      -7.042  18.476  68.825  1.00  0.00    -0.310 C  
HETATM   18  C   UNL     1      -8.504  18.382  68.384  1.00  0.00    -0.345 C  
HETATM   19  C   UNL     1      -9.164  16.869  68.812  1.00  0.00    -0.260 C  
ENDROOT
BRANCH   3  20
HETATM   20  N   UNL     1      -9.622  16.156  65.231  1.00  0.00    -0.296 NA 
HETATM   21  C   UNL     1     -10.456  13.467  68.165  1.00  0.00    -0.244 C  
HETATM   22  C   UNL     1      -8.824  14.926  65.169  1.00  0.00     2.447 C  
HETATM   23  C   UNL     1     -11.701  12.690  66.167  1.00  0.00    -0.406 C  
HETATM   24  C   UNL     1     -11.030  15.742  65.180  1.00  0.00    -0.382 C  
HETATM   25  C   UNL     1      -9.294  13.642  65.951  1.00  0.00     0.074 C  
HETATM   26  N   UNL     1     -10.698  13.722  66.671  1.00  0.00    -0.276 N  
HETATM   27  C   UNL     1     -11.384  15.074  66.498  1.00  0.00    -0.280 C  
ENDBRANCH   3  20
BRANCH   4  28
HETATM   28  O   UNL     1     -11.809  19.622  66.782  1.00  0.00     0.851 OA 
BRANCH  28  29
HETATM   29  C   UNL     1     -12.510  20.283  67.735  1.00  0.00     4.513 C  
HETATM   30  C   UNL     1     -13.972  20.401  67.404  1.00  0.00     5.696 C  
HETATM   31  O   UNL     1     -12.029  20.683  68.801  1.00  0.00     3.043 OA 
ENDBRANCH  28  29
ENDBRANCH   4  28
BRANCH  12  32
HETATM   32  O   UNL     1      -5.835  13.661  72.219  1.00  0.00    -0.418 OA 
BRANCH  32  33
HETATM   33  C   UNL     1      -6.153  12.346  72.054  1.00  0.00     2.316 C  
HETATM   34  O   UNL     1      -6.869  11.993  71.134  1.00  0.00     1.753 OA 
HETATM   35  C   UNL     1      -5.693  11.378  73.121  1.00  0.00     1.786 C  
ENDBRANCH  32  33
ENDBRANCH  12  32
BRANCH  11  36
HETATM   36  N   UNL     1      -7.055  12.332  70.024  1.00  0.00     0.534 NA 
HETATM   37  C   UNL     1      -5.746  11.446  67.851  1.00  0.00    -0.044 C  
HETATM   38  C   UNL     1      -5.818  11.823  69.390  1.00  0.00    -0.074 C  
HETATM   39  N   UNL     1      -7.025  10.846  67.217  1.00  0.00    -0.084 N  
HETATM   40  C   UNL     1      -6.983   9.317  67.260  1.00  0.00    -0.081 C  
HETATM   41  C   UNL     1      -8.282  11.426  67.890  1.00  0.00    -0.132 C  
HETATM   42  C   UNL     1      -7.081  11.216  65.713  1.00  0.00     0.195 C  
HETATM   43  C   UNL     1      -8.173  11.525  69.440  1.00  0.00     0.469 C  
ENDBRANCH  11  36
TORSDOF 6
ENDMDL
MODEL      137
REMARK 921   NORMALIZED FREE ENERGY PREDICTED BY IDOCK:   45.36 KCAL/MOL
REMARK 922        TOTAL FREE ENERGY PREDICTED BY IDOCK:   59.53 KCAL/MOL
REMARK 923 INTER-LIGAND FREE ENERGY PREDICTED BY IDOCK:   51.67 KCAL/MOL
REMARK 924 INTRA-LIGAND FREE ENERGY PREDICTED BY IDOCK:    7.87 KCAL/MOL
REMARK 927      BINDING AFFINITY PREDICTED BY RF-SCORE:    0.00 PKD
ROOT
HETATM    1  C   UNL     1     -11.456  10.399  66.845  1.00  0.00     0.563 C  
HETATM    2  C   UNL     1     -11.284  11.063  65.599  1.00  0.00     0.099 C  
HETATM    3  C   UNL     1      -9.882  10.833  66.147  1.00  0.00    -0.221 C  
HETATM    4  C   UNL     1      -9.969   9.558  67.770  1.00  0.00    -0.174 C  
HETATM    5  C   UNL     1      -9.140  12.930  70.817  1.00  0.00     8.605 C  
HETATM    6  C   UNL     1      -9.995   9.291  66.439  1.00  0.00    -0.356 C  
HETATM    7  C   UNL     1      -9.491  13.585  69.458  1.00  0.00     1.121 C  
HETATM    8  C   UNL     1      -8.230  14.669  69.040  1.00  0.00    -0.110 C  
HETATM    9  C   UNL     1     -10.301   8.068  65.595  1.00  0.00     1.897 C  
HETATM   10  C   UNL     1      -8.271   9.752  67.121  1.00  0.00    -0.121 C  
HETATM   11  C   UNL     1      -8.701  16.077  68.368  1.00  0.00    -0.186 C  
HETATM   12  C   UNL     1      -9.692  16.537  69.462  1.00  0.00    -0.041 C  
HETATM   13  C   UNL     1     -11.008  15.815  69.103  1.00  0.00    -0.265 C  
HETATM   14  C   UNL     1      -8.357  11.141  68.341  1.00  0.00    -0.149 C  
HETATM   15  C   UNL     1     -10.887  14.374  69.699  1.00  0.00    -0.144 C  
HETATM   16  C   UNL     1     -12.167  13.543  69.514  1.00  0.00    -0.289 C  
HETATM   17  C   UNL     1     -12.246  12.733  68.222  1.00  0.00     0.023 C  
HETATM   18  C   UNL     1     -11.160  11.655  68.205  1.00  0.00    -0.287 C  
HETATM   19  C   UNL     1      -9.616  12.355  68.387  1.00  0.00    -0.180 C  
ENDROOT
BRANCH   3  20
HETATM   20  N   UNL     1      -8.760  11.120  65.028  1.00  0.00    -0.035 NA 
HETATM   21  C   UNL     1     -10.657  14.113  63.033  1.00  0.00     5.225 C  
HETATM   22  C   UNL     1      -8.878  10.903  63.581  1.00  0.00    -0.079 C  
HETATM   23  C   UNL     1      -8.233  14.523  62.715  1.00  0.00    21.455 C  
HETATM   24  C   UNL     1      -8.056  12.397  65.202  1.00  0.00     2.702 C  
HETATM   25  C   UNL     1      -9.200  12.114  62.627  1.00  0.00     1.427 C  
HETATM   26  N   UNL     1      -9.254  13.547  63.290  1.00  0.00     5.371 N  
HETATM   27  C   UNL     1      -8.991  13.523  64.793  1.00  0.00     2.483 C  
ENDBRANCH   3  20
BRANCH   4  28
HETATM   28  O   UNL     1      -9.747   8.051  67.997  1.00  0.00    -0.152 OA 
BRANCH  28  29
HETATM   29  C   UNL     1      -8.850   7.615  68.913  1.00  0.00    -0.135 C  
HETATM   30  C   UNL     1      -7.525   7.250  68.301  1.00  0.00    -0.102 C  
HETATM   31  O   UNL     1      -9.056   7.587  70.131  1.00  0.00    -0.147 OA 
ENDBRANCH  28  29
ENDBRANCH   4  28
BRANCH  12  32
HETATM   32  O   UNL     1      -9.643  17.939  69.731  1.00  0.00     0.487 OA 
BRANCH  32  33
HETATM   33  C   UNL     1     -10.586  18.636  69.037  1.00  0.00     0.404 C  
HETATM   34  O   UNL     1     -10.663  18.537  67.825  1.00  0.00    -0.410 OA 
HETATM   35  C   UNL     1     -11.434  19.621  69.810  1.00  0.00     4.395 C  
ENDBRANCH  32  33
ENDBRANCH  12  32
BRANCH  11  36
HETATM   36  N   UNL     1      -7.824  17.132  67.703  1.00  0.00    -0.175 NA 
HETATM   37  C   UNL     1      -6.083  18.603  69.126  1.00  0.00    -0.242 C  
HETATM   38  C   UNL     1      -6.436  17.418  68.134  1.00  0.00    -0.168 C  
HETATM   39  N   UNL     1      -6.945  19.885  69.019  1.00  0.00    -0.317 N  
HETATM   40  C   UNL     1      -6.285  20.903  68.086  1.00  0.00    -0.330 C  
HETATM   41  C   UNL     1      -8.382  19.534  68.596  1.00  0.00    -0.329 C  
HETATM   42  C   UNL     1      -7.015  20.580  70.404  1.00  0.00     0.816 C  
HETATM   43  C   UNL     1      -8.458  18.467  67.465  1.00  0.00    -0.261 C  
ENDBRANCH  11  36
TORSDOF 6
ENDMDL
MODEL      138
REMARK 921   NORMALIZED FREE ENERGY PREDICTED BY IDOCK:   47.17 KCAL/MOL
REMARK 922        TOTAL FREE ENERGY PREDICTED BY IDOCK:   61.99 KCAL/MOL
REMARK 923 INTER-LIGAND FREE ENERGY PREDICTED BY IDOCK:   52.60 KCAL/MOL
REMARK 924 INTRA-LIGAND FREE ENERGY PREDICTED BY IDOCK:    9.39 KCAL/MOL
REMARK 927      BINDING AFFINITY PREDICTED BY RF-SCORE:    0.00 PKD
ROOT
HETATM    1  C   UNL     1      -7.760   8.388  68.485  1.00  0.00    -0.104 C  
HETATM    2  C   UNL     1      -6.903   9.520  68.409  1.00  0.00    -0.062 C  
HETATM    3  C   UNL     1      -7.857   9.795  69.563  1.00  0.00    -0.128 C  
HETATM    4  C   UNL     1      -8.914   8.078  70.016  1.00  0.00    -0.144 C  
HETATM    5  C   UNL     1     -12.838   9.676  68.175  1.00  0.00     7.074 C  
HETATM    6  C   UNL     1      -7.654   8.451  70.358  1.00  0.00    -0.072 C  
HETATM    7  C   UNL     1     -11.680  10.595  67.712  1.00  0.00     0.144 C  
HETATM    8  C   UNL     1     -12.083  12.213  68.112  1.00  0.00    -0.057 C  
HETATM    9  C   UNL     1      -6.460   7.754  70.982  1.00  0.00    -0.038 C  
HETATM   10  C   UNL     1      -9.036   9.343  71.329  1.00  0.00     0.035 C  
HETATM   11  C   UNL     1     -11.691  13.336  66.997  1.00  0.00    -0.389 C  
HETATM   12  C   UNL     1     -12.408  12.712  65.778  1.00  0.00    -0.253 C  
HETATM   13  C   UNL     1     -11.396  11.681  65.235  1.00  0.00    -0.220 C  
HETATM   14  C   UNL     1     -10.460   9.808  70.241  1.00  0.00    -0.345 C  
HETATM   15  C   UNL     1     -11.579  10.396  66.106  1.00  0.00     1.535 C  
HETATM   16  C   UNL     1     -10.704   9.224  65.630  1.00  0.00     1.446 C  
HETATM   17  C   UNL     1      -9.311   9.146  66.252  1.00  0.00    -0.274 C  
HETATM   18  C   UNL     1      -9.416   8.876  67.754  1.00  0.00    -0.163 C  
HETATM   19  C   UNL     1     -10.352  10.081  68.516  1.00  0.00    -0.217 C  
ENDROOT
BRANCH   3  20
HETATM   20  N   UNL     1      -7.370  11.054  70.440  1.00  0.00     0.369 NA 
HETATM   21  C   UNL     1     -10.656  13.405  69.989  1.00  0.00     1.091 C  
HETATM   22  C   UNL     1      -7.082  12.410  69.958  1.00  0.00     0.932 C  
HETATM   23  C   UNL     1      -9.672  14.038  72.174  1.00  0.00     8.457 C  
HETATM   24  C   UNL     1      -8.085  11.208  71.713  1.00  0.00     9.596 C  
HETATM   25  C   UNL     1      -8.157  13.549  70.121  1.00  0.00     2.528 C  
HETATM   26  N   UNL     1      -9.464  13.182  70.930  1.00  0.00     7.500 N  
HETATM   27  C   UNL     1      -9.479  11.738  71.423  1.00  0.00    11.709 C  
ENDBRANCH   3  20
BRANCH   4  28
HETATM   28  O   UNL     1      -8.790   6.955  71.063  1.00  0.00    -0.139 OA 
BRANCH  28  29
HETATM   29  C   UNL     1      -9.821   6.668  71.894  1.00  0.00    -0.166 C  
HETATM   30  C   UNL     1      -9.738   5.279  72.464  1.00  0.00    -0.176 C  
HETATM   31  O   UNL     1     -10.698   7.475  72.220  1.00  0.00    -0.225 OA 
ENDBRANCH  28  29
ENDBRANCH   4  28
BRANCH  12  32
HETATM   32  O   UNL     1     -13.045  13.671  64.932  1.00  0.00    -0.713 OA 
BRANCH  32  33
HETATM   33  C   UNL     1     -13.396  13.148  63.723  1.00  0.00     1.607 C  
HETATM   34  O   UNL     1     -13.555  13.873  62.758  1.00  0.00     2.359 OA 
HETATM   35  C   UNL     1     -13.701  11.667  63.667  1.00  0.00     1.418 C  
ENDBRANCH  32  33
ENDBRANCH  12  32
BRANCH  11  36
HETATM   36  N   UNL     1     -11.722  14.852  67.151  1.00  0.00    -0.327 NA 
HETATM   37  C   UNL     1     -10.239  16.448  65.579  1.00  0.00    -0.269 C  
HETATM   38  C   UNL     1     -11.613  15.783  66.005  1.00  0.00     0.414 C  
HETATM   39  N   UNL     1      -9.246  16.793  66.716  1.00  0.00    -0.232 N  
HETATM   40  C   UNL     1      -9.431  18.241  67.174  1.00  0.00    -0.268 C  
HETATM   41  C   UNL     1      -9.377  15.783  67.870  1.00  0.00    -0.200 C  
HETATM   42  C   UNL     1      -7.794  16.712  66.179  1.00  0.00    -0.162 C  
HETATM   43  C   UNL     1     -10.850  15.427  68.225  1.00  0.00    -0.269 C  
ENDBRANCH  11  36
TORSDOF 6
ENDMDL
MODEL      139
REMARK 921   NORMALIZED FREE ENERGY PREDICTED BY IDOCK:   47.48 KCAL/MOL
REMARK 922        TOTAL FREE ENERGY PREDICTED BY IDOCK:   62.40 KCAL/MOL
REMARK 923 INTER-LIGAND FREE ENERGY PREDICTED BY IDOCK:   43.35 KCAL/MOL
REMARK 924 INTRA-LIGAND FREE ENERGY PREDICTED BY IDOCK:   19.06 KCAL/MOL
REMARK 927      BINDING AFFINITY PREDICTED BY RF-SCORE:    0.00 PKD
ROOT
HETATM    1  C   UNL     1     -11.734  13.287  72.030  1.00  0.00     2.187 C  
HETATM    2  C   UNL     1     -10.626  13.165  72.913  1.00  0.00    11.683 C  
HETATM    3  C   UNL     1     -10.035  13.268  71.514  1.00  0.00     9.892 C  
HETATM    4  C   UNL     1     -11.510  13.815  70.174  1.00  0.00    -0.072 C  
HETATM    5  C   UNL     1     -11.748   9.603  68.292  1.00  0.00     0.926 C  
HETATM    6  C   UNL     1     -10.784  14.569  71.041  1.00  0.00     0.824 C  
HETATM    7  C   UNL     1     -10.947   9.495  69.613  1.00  0.00    -0.233 C  
HETATM    8  C   UNL     1      -9.442   8.748  69.271  1.00  0.00    -0.161 C  
HETATM    9  C   UNL     1     -10.864  15.996  71.548  1.00  0.00     0.432 C  
HETATM   10  C   UNL     1      -9.829  14.009  69.484  1.00  0.00     0.515 C  
HETATM   11  C   UNL     1      -8.917   7.675  70.381  1.00  0.00    -0.152 C  
HETATM   12  C   UNL     1     -10.163   6.761  70.426  1.00  0.00    -0.192 C  
HETATM   13  C   UNL     1     -11.110   7.468  71.419  1.00  0.00    -0.262 C  
HETATM   14  C   UNL     1     -10.210  12.256  69.029  1.00  0.00     0.063 C  
HETATM   15  C   UNL     1     -11.849   8.574  70.598  1.00  0.00    -0.111 C  
HETATM   16  C   UNL     1     -12.913   9.318  71.422  1.00  0.00    -0.394 C  
HETATM   17  C   UNL     1     -12.421  10.553  72.173  1.00  0.00     0.130 C  
HETATM   18  C   UNL     1     -11.973  11.631  71.184  1.00  0.00     0.112 C  
HETATM   19  C   UNL     1     -10.758  11.029  70.150  1.00  0.00     0.173 C  
ENDROOT
BRANCH   3  20
HETATM   20  N   UNL     1      -8.445  13.515  71.566  1.00  0.00     8.860 NA 
HETATM   21  C   UNL     1      -8.133  16.085  68.432  1.00  0.00    -0.159 C  
HETATM   22  C   UNL     1      -7.455  13.121  70.557  1.00  0.00     2.986 C  
HETATM   23  C   UNL     1      -6.264  16.656  69.957  1.00  0.00    -0.080 C  
HETATM   24  C   UNL     1      -8.063  14.857  72.023  1.00  0.00     5.475 C  
HETATM   25  C   UNL     1      -6.922  14.181  69.521  1.00  0.00    -0.042 C  
HETATM   26  N   UNL     1      -7.405  15.672  69.717  1.00  0.00    -0.134 N  
HETATM   27  C   UNL     1      -8.347  15.846  70.905  1.00  0.00     3.333 C  
ENDBRANCH   3  20
BRANCH   4  28
HETATM   28  O   UNL     1     -11.967  15.132  69.520  1.00  0.00    -0.312 OA 
BRANCH  28  29
HETATM   29  C   UNL     1     -11.059  16.032  69.071  1.00  0.00    -0.320 C  
HETATM   30  C   UNL     1     -11.086  16.187  67.576  1.00  0.00    -0.175 C  
HETATM   31  O   UNL     1     -10.335  16.716  69.803  1.00  0.00    -0.226 OA 
ENDBRANCH  28  29
ENDBRANCH   4  28
BRANCH  12  32
HETATM   32  O   UNL     1      -9.853   5.370  70.530  1.00  0.00    -0.178 OA 
BRANCH  32  33
HETATM   33  C   UNL     1     -10.307   4.820  71.692  1.00  0.00    -0.145 C  
HETATM   34  O   UNL     1     -10.863   5.509  72.527  1.00  0.00    -0.226 OA 
HETATM   35  C   UNL     1      -9.978   3.366  71.949  1.00  0.00    -0.210 C  
ENDBRANCH  32  33
ENDBRANCH  12  32
BRANCH  11  36
HETATM   36  N   UNL     1      -7.542   7.022  70.468  1.00  0.00    -0.088 NA 
HETATM   37  C   UNL     1      -7.267   4.414  71.052  1.00  0.00    -0.044 C  
HETATM   38  C   UNL     1      -7.280   5.630  70.035  1.00  0.00    -0.068 C  
HETATM   39  N   UNL     1      -6.736   4.700  72.478  1.00  0.00    -0.049 N  
HETATM   40  C   UNL     1      -5.243   4.374  72.574  1.00  0.00    -0.004 C  
HETATM   41  C   UNL     1      -7.056   6.147  72.892  1.00  0.00    -0.080 C  
HETATM   42  C   UNL     1      -7.431   3.753  73.490  1.00  0.00    -0.069 C  
HETATM   43  C   UNL     1      -6.810   7.190  71.763  1.00  0.00    -0.059 C  
ENDBRANCH  11  36
TORSDOF 6
ENDMDL
MODEL      140
REMARK 921   NORMALIZED FREE ENERGY PREDICTED BY IDOCK:   47.79 KCAL/MOL
REMARK 922        TOTAL FREE ENERGY PREDICTED BY IDOCK:   62.82 KCAL/MOL
REMARK 923 INTER-LIGAND FREE ENERGY PREDICTED BY IDOCK:   61.35 KCAL/MOL
REMARK 924 INTRA-LIGAND FREE ENERGY PREDICTED BY IDOCK:    1.47 KCAL/MOL
REMARK 927      BINDING AFFINITY PREDICTED BY RF-SCORE:    0.00 PKD
ROOT
HETATM    1  C   UNL     1      -8.470   7.448  69.487  1.00  0.00    -0.133 C  
HETATM    2  C   UNL     1      -9.669   7.946  68.908  1.00  0.00    -0.158 C  
HETATM    3  C   UNL     1      -8.532   8.516  68.071  1.00  0.00    -0.131 C  
HETATM    4  C   UNL     1      -6.759   7.582  68.575  1.00  0.00    -0.057 C  
HETATM    5  C   UNL     1      -5.136  11.272  70.831  1.00  0.00    -0.114 C  
HETATM    6  C   UNL     1      -7.771   7.172  67.767  1.00  0.00    -0.112 C  
HETATM    7  C   UNL     1      -6.649  11.489  70.580  1.00  0.00     0.853 C  
HETATM    8  C   UNL     1      -6.854  12.994  69.785  1.00  0.00     0.258 C  
HETATM    9  C   UNL     1      -8.146   5.864  67.096  1.00  0.00    -0.102 C  
HETATM   10  C   UNL     1      -6.640   8.511  67.006  1.00  0.00    -0.058 C  
HETATM   11  C   UNL     1      -8.131  13.884  70.273  1.00  0.00     2.226 C  
HETATM   12  C   UNL     1      -7.821  13.923  71.787  1.00  0.00     6.838 C  
HETATM   13  C   UNL     1      -8.414  12.603  72.324  1.00  0.00    19.709 C  
HETATM   14  C   UNL     1      -6.183   9.815  68.238  1.00  0.00    -0.051 C  
HETATM   15  C   UNL     1      -7.338  11.502  72.048  1.00  0.00     8.780 C  
HETATM   16  C   UNL     1      -7.732  10.128  72.616  1.00  0.00     4.924 C  
HETATM   17  C   UNL     1      -8.533   9.231  71.675  1.00  0.00     0.332 C  
HETATM   18  C   UNL     1      -7.684   8.844  70.462  1.00  0.00    -0.106 C  
HETATM   19  C   UNL     1      -7.133  10.236  69.647  1.00  0.00    -0.125 C  
ENDROOT
BRANCH   3  20
HETATM   20  N   UNL     1      -9.082   9.179  66.710  1.00  0.00    -0.140 NA 
HETATM   21  C   UNL     1     -11.015  12.365  68.335  1.00  0.00    -0.241 C  
HETATM   22  C   UNL     1     -10.483   9.313  66.294  1.00  0.00    -0.013 C  
HETATM   23  C   UNL     1     -10.333  13.081  66.062  1.00  0.00    -0.285 C  
HETATM   24  C   UNL     1      -8.417  10.437  66.348  1.00  0.00    -0.138 C  
HETATM   25  C   UNL     1     -11.235  10.683  66.491  1.00  0.00     0.208 C  
HETATM   26  N   UNL     1     -10.374  11.897  67.022  1.00  0.00    -0.210 N  
HETATM   27  C   UNL     1      -8.916  11.531  67.279  1.00  0.00    -0.162 C  
ENDBRANCH   3  20
BRANCH   4  28
HETATM   28  O   UNL     1      -5.922   6.428  67.995  1.00  0.00    -0.018 OA 
BRANCH  28  29
HETATM   29  C   UNL     1      -5.724   5.292  68.707  1.00  0.00    -0.015 C  
HETATM   30  C   UNL     1      -5.413   5.560  70.154  1.00  0.00    -0.005 C  
HETATM   31  O   UNL     1      -5.859   4.151  68.251  1.00  0.00    -0.024 OA 
ENDBRANCH  28  29
ENDBRANCH   4  28
BRANCH  12  32
HETATM   32  O   UNL     1      -8.096  15.184  72.398  1.00  0.00     5.131 OA 
BRANCH  32  33
HETATM   33  C   UNL     1      -7.100  15.584  73.238  1.00  0.00     6.801 C  
HETATM   34  O   UNL     1      -6.420  16.558  72.972  1.00  0.00     4.104 OA 
HETATM   35  C   UNL     1      -6.798  14.704  74.431  1.00  0.00     3.144 C  
ENDBRANCH  32  33
ENDBRANCH  12  32
BRANCH  11  36
HETATM   36  N   UNL     1      -8.693  15.141  69.621  1.00  0.00    -0.137 NA 
HETATM   37  C   UNL     1      -8.501  15.550  66.973  1.00  0.00    -0.235 C  
HETATM   38  C   UNL     1      -9.310  15.147  68.275  1.00  0.00    -0.193 C  
HETATM   39  N   UNL     1      -7.420  16.647  67.132  1.00  0.00    -0.164 N  
HETATM   40  C   UNL     1      -7.997  18.027  66.806  1.00  0.00    -0.237 C  
HETATM   41  C   UNL     1      -6.790  16.583  68.535  1.00  0.00    -0.151 C  
HETATM   42  C   UNL     1      -6.290  16.417  66.095  1.00  0.00     1.255 C  
HETATM   43  C   UNL     1      -7.826  16.360  69.675  1.00  0.00     0.298 C  
ENDBRANCH  11  36
TORSDOF 6
ENDMDL
MODEL      141
REMARK 921   NORMALIZED FREE ENERGY PREDICTED BY IDOCK:   48.71 KCAL/MOL
REMARK 922        TOTAL FREE ENERGY PREDICTED BY IDOCK:   64.06 KCAL/MOL
REMARK 923 INTER-LIGAND FREE ENERGY PREDICTED BY IDOCK:    8.40 KCAL/MOL
REMARK 924 INTRA-LIGAND FREE ENERGY PREDICTED BY IDOCK:   55.66 KCAL/MOL
REMARK 927      BINDING AFFINITY PREDICTED BY RF-SCORE:    0.00 PKD
ROOT
HETATM    1  C   UNL     1      -7.718  13.362  69.174  1.00  0.00     0.260 C  
HETATM    2  C   UNL     1      -7.656  13.326  67.754  1.00  0.00    -0.161 C  
HETATM    3  C   UNL     1      -9.080  12.929  68.121  1.00  0.00    -0.207 C  
HETATM    4  C   UNL     1      -9.409  13.294  70.128  1.00  0.00     3.606 C  
HETATM    5  C   UNL     1      -9.319   8.812  71.243  1.00  0.00    -0.319 C  
HETATM    6  C   UNL     1      -9.422  14.141  69.065  1.00  0.00     0.062 C  
HETATM    7  C   UNL     1      -8.757   8.962  69.807  1.00  0.00    -0.139 C  
HETATM    8  C   UNL     1      -9.641   7.922  68.770  1.00  0.00    -0.152 C  
HETATM    9  C   UNL     1      -9.458  15.647  68.894  1.00  0.00    -0.228 C  
HETATM   10  C   UNL     1     -10.960  13.015  69.202  1.00  0.00    -0.190 C  
HETATM   11  C   UNL     1      -8.766   7.142  67.637  1.00  0.00    -0.121 C  
HETATM   12  C   UNL     1      -7.716   6.488  68.564  1.00  0.00    -0.105 C  
HETATM   13  C   UNL     1      -6.654   7.589  68.763  1.00  0.00    -0.049 C  
HETATM   14  C   UNL     1     -10.514  11.288  69.697  1.00  0.00     0.081 C  
HETATM   15  C   UNL     1      -7.201   8.516  69.898  1.00  0.00    -0.051 C  
HETATM   16  C   UNL     1      -6.209   9.623  70.294  1.00  0.00    -0.070 C  
HETATM   17  C   UNL     1      -6.329  10.927  69.510  1.00  0.00    -0.082 C  
HETATM   18  C   UNL     1      -7.678  11.592  69.792  1.00  0.00     0.866 C  
HETATM   19  C   UNL     1      -8.960  10.536  69.408  1.00  0.00    -0.111 C  
ENDROOT
BRANCH   3  20
HETATM   20  N   UNL     1     -10.039  12.926  66.828  1.00  0.00    -0.234 NA 
HETATM   21  C   UNL     1      -7.728  10.656  64.372  1.00  0.00     0.147 C  
HETATM   22  C   UNL     1      -9.766  13.535  65.521  1.00  0.00    -0.047 C  
HETATM   23  C   UNL     1     -10.064  10.274  63.638  1.00  0.00     0.163 C  
HETATM   24  C   UNL     1     -10.674  11.630  66.558  1.00  0.00    -0.272 C  
HETATM   25  C   UNL     1      -9.254  12.644  64.329  1.00  0.00     0.990 C  
HETATM   26  N   UNL     1      -9.185  11.086  64.583  1.00  0.00    -0.195 N  
HETATM   27  C   UNL     1      -9.626  10.688  65.989  1.00  0.00    -0.198 C  
ENDBRANCH   3  20
BRANCH   4  28
HETATM   28  O   UNL     1     -10.061  14.424  70.947  1.00  0.00     1.380 OA 
BRANCH  28  29
HETATM   29  C   UNL     1     -11.164  14.186  71.696  1.00  0.00     1.542 C  
HETATM   30  C   UNL     1     -12.371  14.940  71.209  1.00  0.00    -0.385 C  
HETATM   31  O   UNL     1     -11.209  13.381  72.633  1.00  0.00     4.084 OA 
ENDBRANCH  28  29
ENDBRANCH   4  28
BRANCH  12  32
HETATM   32  O   UNL     1      -7.368   5.154  68.188  1.00  0.00    -0.072 OA 
BRANCH  32  33
HETATM   33  C   UNL     1      -8.306   4.577  67.386  1.00  0.00    -0.104 C  
HETATM   34  O   UNL     1      -8.435   3.366  67.355  1.00  0.00    -0.092 OA 
HETATM   35  C   UNL     1      -9.079   5.484  66.453  1.00  0.00    -0.145 C  
ENDBRANCH  32  33
ENDBRANCH  12  32
BRANCH  11  36
HETATM   36  N   UNL     1      -9.284   6.334  66.453  1.00  0.00    -0.156 NA 
HETATM   37  C   UNL     1      -9.450   3.654  66.555  1.00  0.00    -0.170 C  
HETATM   38  C   UNL     1     -10.092   5.102  66.607  1.00  0.00    -0.237 C  
HETATM   39  N   UNL     1      -8.248   3.455  65.600  1.00  0.00    -0.096 N  
HETATM   40  C   UNL     1      -8.718   2.941  64.238  1.00  0.00    -0.095 C  
HETATM   41  C   UNL     1      -7.424   4.751  65.495  1.00  0.00    -0.081 C  
HETATM   42  C   UNL     1      -7.318   2.348  66.161  1.00  0.00    -0.066 C  
HETATM   43  C   UNL     1      -8.294   6.036  65.370  1.00  0.00    -0.150 C  
ENDBRANCH  11  36
TORSDOF 6
ENDMDL
MODEL      142
REMARK 921   NORMALIZED FREE ENERGY PREDICTED BY IDOCK:   49.83 KCAL/MOL
REMARK 922        TOTAL FREE ENERGY PREDICTED BY IDOCK:   65.58 KCAL/MOL
REMARK 923 INTER-LIGAND FREE ENERGY PREDICTED BY IDOCK:   57.87 KCAL/MOL
REMARK 924 INTRA-LIGAND FREE ENERGY PREDICTED BY IDOCK:    7.71 KCAL/MOL
REMARK 927      BINDING AFFINITY PREDICTED BY RF-SCORE:    0.00 PKD
ROOT
HETATM    1  C   UNL     1      -7.277   5.327  71.153  1.00  0.00    -0.073 C  
HETATM    2  C   UNL     1      -8.569   5.382  71.744  1.00  0.00    -0.131 C  
HETATM    3  C   UNL     1      -8.730   5.937  70.335  1.00  0.00    -0.139 C  
HETATM    4  C   UNL     1      -7.013   5.578  69.244  1.00  0.00    -0.063 C  
HETATM    5  C   UNL     1      -5.675   9.997  69.372  1.00  0.00    -0.037 C  
HETATM    6  C   UNL     1      -8.054   4.757  69.542  1.00  0.00    -0.069 C  
HETATM    7  C   UNL     1      -6.808   9.807  70.411  1.00  0.00    -0.135 C  
HETATM    8  C   UNL     1      -8.033  10.963  70.090  1.00  0.00     1.011 C  
HETATM    9  C   UNL     1      -8.317   3.269  69.418  1.00  0.00    -0.087 C  
HETATM   10  C   UNL     1      -8.426   6.054  68.189  1.00  0.00    -0.115 C  
HETATM   11  C   UNL     1      -8.715  11.654  71.400  1.00  0.00    11.649 C  
HETATM   12  C   UNL     1      -7.428  12.164  72.089  1.00  0.00    11.622 C  
HETATM   13  C   UNL     1      -6.917  10.941  72.880  1.00  0.00     6.323 C  
HETATM   14  C   UNL     1      -7.699   7.707  68.593  1.00  0.00    -0.119 C  
HETATM   15  C   UNL     1      -6.123  10.065  71.857  1.00  0.00     0.442 C  
HETATM   16  C   UNL     1      -5.456   8.843  72.510  1.00  0.00    -0.067 C  
HETATM   17  C   UNL     1      -6.307   7.575  72.558  1.00  0.00    -0.051 C  
HETATM   18  C   UNL     1      -6.582   7.069  71.141  1.00  0.00    -0.045 C  
HETATM   19  C   UNL     1      -7.348   8.276  70.211  1.00  0.00    -0.055 C  
ENDROOT
BRANCH   3  20
HETATM   20  N   UNL     1     -10.283   6.076  69.934  1.00  0.00    -0.190 NA 
HETATM   21  C   UNL     1     -11.494   8.421  73.026  1.00  0.00     0.261 C  
HETATM   22  C   UNL     1     -11.439   5.554  70.673  1.00  0.00     0.514 C  
HETATM   23  C   UNL     1     -13.015   8.954  71.143  1.00  0.00    -0.119 C  
HETATM   24  C   UNL     1     -10.661   7.414  69.462  1.00  0.00    -0.237 C  
HETATM   25  C   UNL     1     -12.273   6.508  71.606  1.00  0.00    -0.300 C  
HETATM   26  N   UNL     1     -11.881   8.039  71.592  1.00  0.00    -0.277 N  
HETATM   27  C   UNL     1     -10.714   8.350  70.659  1.00  0.00    -0.220 C  
ENDBRANCH   3  20
BRANCH   4  28
HETATM   28  O   UNL     1      -6.562   4.518  68.222  1.00  0.00    -0.043 OA 
BRANCH  28  29
HETATM   29  C   UNL     1      -7.024   4.547  66.948  1.00  0.00    -0.063 C  
HETATM   30  C   UNL     1      -7.810   3.316  66.588  1.00  0.00    -0.080 C  
HETATM   31  O   UNL     1      -6.890   5.505  66.180  1.00  0.00    -0.055 OA 
ENDBRANCH  28  29
ENDBRANCH   4  28
BRANCH  12  32
HETATM   32  O   UNL     1      -7.568  13.453  72.688  1.00  0.00     6.817 OA 
BRANCH  32  33
HETATM   33  C   UNL     1      -6.839  14.408  72.045  1.00  0.00     2.226 C  
HETATM   34  O   UNL     1      -7.175  14.809  70.945  1.00  0.00     0.593 OA 
HETATM   35  C   UNL     1      -5.543  14.848  72.691  1.00  0.00     0.256 C  
ENDBRANCH  32  33
ENDBRANCH  12  32
BRANCH  11  36
HETATM   36  N   UNL     1      -9.955  12.539  71.448  1.00  0.00     9.441 NA 
HETATM   37  C   UNL     1     -10.985  13.626  69.217  1.00  0.00    -0.144 C  
HETATM   38  C   UNL     1     -10.982  12.549  70.381  1.00  0.00     1.528 C  
HETATM   39  N   UNL     1     -10.494  15.049  69.579  1.00  0.00    -0.245 N  
HETATM   40  C   UNL     1     -11.672  15.945  69.969  1.00  0.00    -0.334 C  
HETATM   41  C   UNL     1      -9.410  14.984  70.670  1.00  0.00     1.441 C  
HETATM   42  C   UNL     1      -9.866  15.715  68.327  1.00  0.00    -0.209 C  
HETATM   43  C   UNL     1      -9.731  13.974  71.810  1.00  0.00     7.447 C  
ENDBRANCH  11  36
TORSDOF 6
ENDMDL
MODEL      143
REMARK 921   NORMALIZED FREE ENERGY PREDICTED BY IDOCK:   50.65 KCAL/MOL
REMARK 922        TOTAL FREE ENERGY PREDICTED BY IDOCK:   66.68 KCAL/MOL
REMARK 923 INTER-LIGAND FREE ENERGY PREDICTED BY IDOCK:   53.38 KCAL/MOL
REMARK 924 INTRA-LIGAND FREE ENERGY PREDICTED BY IDOCK:   13.30 KCAL/MOL
REMARK 927      BINDING AFFINITY PREDICTED BY RF-SCORE:    0.00 PKD
ROOT
HETATM    1  C   UNL     1      -7.882  17.372  68.611  1.00  0.00    -0.274 C  
HETATM    2  C   UNL     1      -7.901  17.210  67.199  1.00  0.00    -0.211 C  
HETATM    3  C   UNL     1      -9.347  17.070  67.655  1.00  0.00    -0.241 C  
HETATM    4  C   UNL     1      -9.511  17.646  69.633  1.00  0.00     0.652 C  
HETATM    5  C   UNL     1     -10.041  13.312  71.140  1.00  0.00     7.073 C  
HETATM    6  C   UNL     1      -9.453  18.394  68.500  1.00  0.00    -0.355 C  
HETATM    7  C   UNL     1      -9.539  13.254  69.676  1.00  0.00     1.548 C  
HETATM    8  C   UNL     1     -10.623  12.281  68.772  1.00  0.00    -0.223 C  
HETATM    9  C   UNL     1      -9.269  19.868  68.196  1.00  0.00    -0.374 C  
HETATM   10  C   UNL     1     -11.133  17.535  68.798  1.00  0.00     0.344 C  
HETATM   11  C   UNL     1      -9.937  11.284  67.679  1.00  0.00    -0.178 C  
HETATM   12  C   UNL     1      -8.950  10.554  68.620  1.00  0.00    -0.162 C  
HETATM   13  C   UNL     1      -7.725  11.490  68.677  1.00  0.00    -0.139 C  
HETATM   14  C   UNL     1     -10.927  15.807  69.427  1.00  0.00    -0.296 C  
HETATM   15  C   UNL     1      -8.065  12.581  69.745  1.00  0.00     1.885 C  
HETATM   16  C   UNL     1      -6.898  13.549  70.001  1.00  0.00     0.324 C  
HETATM   17  C   UNL     1      -6.861  14.788  69.108  1.00  0.00    -0.133 C  
HETATM   18  C   UNL     1      -8.077  15.675  69.383  1.00  0.00    -0.227 C  
HETATM   19  C   UNL     1      -9.522  14.801  69.146  1.00  0.00    -0.115 C  
ENDROOT
BRANCH   3  20
HETATM   20  N   UNL     1     -10.363  17.109  66.407  1.00  0.00    -0.323 NA 
HETATM   21  C   UNL     1     -11.886  20.834  66.989  1.00  0.00     4.412 C  
HETATM   22  C   UNL     1     -11.828  17.162  66.459  1.00  0.00     2.345 C  
HETATM   23  C   UNL     1     -12.047  20.415  64.551  1.00  0.00     5.239 C  
HETATM   24  C   UNL     1      -9.951  18.020  65.331  1.00  0.00     0.748 C  
HETATM   25  C   UNL     1     -12.574  18.535  66.264  1.00  0.00     7.788 C  
HETATM   26  N   UNL     1     -11.681  19.783  65.889  1.00  0.00     1.354 N  
HETATM   27  C   UNL     1     -10.196  19.448  65.787  1.00  0.00    -0.269 C  
ENDBRANCH   3  20
BRANCH   4  28
HETATM   28  O   UNL     1      -9.941  18.927  70.372  1.00  0.00     0.997 OA 
BRANCH  28  29
HETATM   29  C   UNL     1     -10.890  18.881  71.339  1.00  0.00     3.650 C  
HETATM   30  C   UNL     1     -12.008  17.931  71.010  1.00  0.00     6.485 C  
HETATM   31  O   UNL     1     -10.819  19.489  72.413  1.00  0.00     3.153 OA 
ENDBRANCH  28  29
ENDBRANCH   4  28
BRANCH  12  32
HETATM   32  O   UNL     1      -8.827   9.156  68.351  1.00  0.00    -0.129 OA 
BRANCH  32  33
HETATM   33  C   UNL     1      -7.618   8.833  67.812  1.00  0.00    -0.097 C  
HETATM   34  O   UNL     1      -6.776   9.692  67.620  1.00  0.00    -0.065 OA 
HETATM   35  C   UNL     1      -7.419   7.406  67.352  1.00  0.00    -0.104 C  
ENDBRANCH  32  33
ENDBRANCH  12  32
BRANCH  11  36
HETATM   36  N   UNL     1     -10.632  10.471  66.594  1.00  0.00    -0.226 NA 
HETATM   37  C   UNL     1     -10.835   7.797  66.764  1.00  0.00     0.140 C  
HETATM   38  C   UNL     1     -11.435   9.260  66.881  1.00  0.00     1.895 C  
HETATM   39  N   UNL     1      -9.783   7.559  65.652  1.00  0.00     0.536 N  
HETATM   40  C   UNL     1     -10.451   7.036  64.379  1.00  0.00     7.569 C  
HETATM   41  C   UNL     1      -8.958   8.836  65.411  1.00  0.00    -0.160 C  
HETATM   42  C   UNL     1      -8.805   6.440  66.095  1.00  0.00    -0.150 C  
HETATM   43  C   UNL     1      -9.811  10.137  65.388  1.00  0.00    -0.307 C  
ENDBRANCH  11  36
TORSDOF 6
ENDMDL
MODEL      144
REMARK 921   NORMALIZED FREE ENERGY PREDICTED BY IDOCK:   52.22 KCAL/MOL
REMARK 922        TOTAL FREE ENERGY PREDICTED BY IDOCK:   68.80 KCAL/MOL
REMARK 923 INTER-LIGAND FREE ENERGY PREDICTED BY IDOCK:   61.68 KCAL/MOL
REMARK 924 INTRA-LIGAND FREE ENERGY PREDICTED BY IDOCK:    7.13 KCAL/MOL
REMARK 927      BINDING AFFINITY PREDICTED BY RF-SCORE:    0.00 PKD
ROOT
HETATM    1  C   UNL     1      -8.764  12.227  65.408  1.00  0.00     0.825 C  
HETATM    2  C   UNL     1      -7.614  12.964  65.800  1.00  0.00     3.289 C  
HETATM    3  C   UNL     1      -8.281  12.512  67.092  1.00  0.00    -0.168 C  
HETATM    4  C   UNL     1      -9.754  11.128  66.667  1.00  0.00    -0.196 C  
HETATM    5  C   UNL     1     -13.183  14.100  67.531  1.00  0.00     3.133 C  
HETATM    6  C   UNL     1      -8.407  10.978  66.764  1.00  0.00    -0.147 C  
HETATM    7  C   UNL     1     -11.865  14.905  67.420  1.00  0.00    -0.245 C  
HETATM    8  C   UNL     1     -11.689  15.850  68.840  1.00  0.00    -0.376 C  
HETATM    9  C   UNL     1      -7.422   9.879  66.415  1.00  0.00    -0.101 C  
HETATM   10  C   UNL     1      -9.308  11.155  68.439  1.00  0.00    -0.185 C  
HETATM   11  C   UNL     1     -11.110  17.358  68.620  1.00  0.00     0.143 C  
HETATM   12  C   UNL     1     -12.135  17.848  67.570  1.00  0.00     3.012 C  
HETATM   13  C   UNL     1     -11.571  17.333  66.229  1.00  0.00     1.728 C  
HETATM   14  C   UNL     1     -10.641  12.438  68.379  1.00  0.00    -0.251 C  
HETATM   15  C   UNL     1     -12.035  15.844  66.109  1.00  0.00     1.098 C  
HETATM   16  C   UNL     1     -11.637  15.202  64.769  1.00  0.00    -0.364 C  
HETATM   17  C   UNL     1     -10.271  14.520  64.745  1.00  0.00    -0.234 C  
HETATM   18  C   UNL     1     -10.264  13.316  65.690  1.00  0.00    -0.295 C  
HETATM   19  C   UNL     1     -10.672  13.795  67.275  1.00  0.00    -0.286 C  
ENDROOT
BRANCH   3  20
HETATM   20  N   UNL     1      -7.318  12.745  68.361  1.00  0.00    -0.112 NA 
HETATM   21  C   UNL     1      -6.491  16.682  67.772  1.00  0.00    -0.146 C  
HETATM   22  C   UNL     1      -5.886  13.065  68.339  1.00  0.00    -0.077 C  
HETATM   23  C   UNL     1      -6.310  16.316  70.217  1.00  0.00     0.172 C  
HETATM   24  C   UNL     1      -7.913  13.571  69.419  1.00  0.00     0.632 C  
HETATM   25  C   UNL     1      -5.409  14.553  68.535  1.00  0.00    -0.103 C  
HETATM   26  N   UNL     1      -6.525  15.619  68.878  1.00  0.00    -0.109 N  
HETATM   27  C   UNL     1      -7.925  15.018  68.952  1.00  0.00    -0.169 C  
ENDBRANCH   3  20
BRANCH   4  28
HETATM   28  O   UNL     1      -9.855   9.591  66.681  1.00  0.00    -0.197 OA 
BRANCH  28  29
HETATM   29  C   UNL     1     -11.060   8.979  66.778  1.00  0.00     0.686 C  
HETATM   30  C   UNL     1     -12.140   9.898  67.278  1.00  0.00     3.868 C  
HETATM   31  O   UNL     1     -11.280   7.816  66.423  1.00  0.00     0.988 OA 
ENDBRANCH  28  29
ENDBRANCH   4  28
BRANCH  12  32
HETATM   32  O   UNL     1     -12.542  19.205  67.754  1.00  0.00     3.302 OA 
BRANCH  32  33
HETATM   33  C   UNL     1     -11.564  20.092  67.418  1.00  0.00     1.520 C  
HETATM   34  O   UNL     1     -11.302  20.313  66.249  1.00  0.00     0.481 OA 
HETATM   35  C   UNL     1     -10.743  20.684  68.543  1.00  0.00     0.449 C  
ENDBRANCH  32  33
ENDBRANCH  12  32
BRANCH  11  36
HETATM   36  N   UNL     1     -10.647  18.343  69.687  1.00  0.00     0.699 NA 
HETATM   37  C   UNL     1      -8.051  18.580  70.337  1.00  0.00     2.890 C  
HETATM   38  C   UNL     1      -9.364  19.079  69.604  1.00  0.00     0.440 C  
HETATM   39  N   UNL     1      -8.237  17.870  71.701  1.00  0.00    10.169 N  
HETATM   40  C   UNL     1      -8.110  18.870  72.853  1.00  0.00     8.017 C  
HETATM   41  C   UNL     1      -9.568  17.098  71.728  1.00  0.00     8.132 C  
HETATM   42  C   UNL     1      -7.092  16.847  71.914  1.00  0.00     7.266 C  
HETATM   43  C   UNL     1     -10.760  17.884  71.107  1.00  0.00     2.499 C  
ENDBRANCH  11  36
TORSDOF 6
ENDMDL
MODEL      145
REMARK 921   NORMALIZED FREE ENERGY PREDICTED BY IDOCK:   52.76 KCAL/MOL
REMARK 922        TOTAL FREE ENERGY PREDICTED BY IDOCK:   69.53 KCAL/MOL
REMARK 923 INTER-LIGAND FREE ENERGY PREDICTED BY IDOCK:   33.58 KCAL/MOL
REMARK 924 INTRA-LIGAND FREE ENERGY PREDICTED BY IDOCK:   35.95 KCAL/MOL
REMARK 927      BINDING AFFINITY PREDICTED BY RF-SCORE:    0.00 PKD
ROOT
HETATM    1  C   UNL     1      -6.140  15.826  67.837  1.00  0.00    -0.159 C  
HETATM    2  C   UNL     1      -5.928  14.810  66.865  1.00  0.00     1.464 C  
HETATM    3  C   UNL     1      -7.426  14.819  67.141  1.00  0.00    -0.034 C  
HETATM    4  C   UNL     1      -7.919  16.486  68.257  1.00  0.00    -0.177 C  
HETATM    5  C   UNL     1      -8.596  14.043  72.119  1.00  0.00     9.539 C  
HETATM    6  C   UNL     1      -7.693  16.354  66.924  1.00  0.00    -0.276 C  
HETATM    7  C   UNL     1      -7.863  13.137  71.099  1.00  0.00     7.196 C  
HETATM    8  C   UNL     1      -8.768  11.692  70.914  1.00  0.00     7.603 C  
HETATM    9  C   UNL     1      -7.493  17.317  65.769  1.00  0.00     0.163 C  
HETATM   10  C   UNL     1      -9.382  15.683  67.514  1.00  0.00    -0.206 C  
HETATM   11  C   UNL     1      -7.894  10.321  70.798  1.00  0.00     1.148 C  
HETATM   12  C   UNL     1      -7.057  10.469  72.090  1.00  0.00     3.990 C  
HETATM   13  C   UNL     1      -5.877  11.370  71.671  1.00  0.00     0.808 C  
HETATM   14  C   UNL     1      -9.245  14.776  69.121  1.00  0.00    -0.089 C  
HETATM   15  C   UNL     1      -6.407  12.839  71.746  1.00  0.00     2.580 C  
HETATM   16  C   UNL     1      -5.316  13.882  71.450  1.00  0.00    -0.196 C  
HETATM   17  C   UNL     1      -5.161  14.276  69.983  1.00  0.00    -0.089 C  
HETATM   18  C   UNL     1      -6.423  14.985  69.489  1.00  0.00    -0.146 C  
HETATM   19  C   UNL     1      -7.793  13.994  69.707  1.00  0.00     0.702 C  
ENDROOT
BRANCH   3  20
HETATM   20  N   UNL     1      -8.227  13.942  66.054  1.00  0.00     1.440 NA 
HETATM   21  C   UNL     1      -9.737  11.117  68.558  1.00  0.00    -0.196 C  
HETATM   22  C   UNL     1      -7.944  12.560  65.648  1.00  0.00     2.104 C  
HETATM   23  C   UNL     1     -11.344  11.276  66.678  1.00  0.00    -0.079 C  
HETATM   24  C   UNL     1      -9.688  14.055  66.155  1.00  0.00    -0.280 C  
HETATM   25  C   UNL     1      -8.783  11.374  66.255  1.00  0.00    -0.173 C  
HETATM   26  N   UNL     1      -9.994  11.765  67.191  1.00  0.00    -0.202 N  
HETATM   27  C   UNL     1     -10.149  13.271  67.373  1.00  0.00    -0.233 C  
ENDBRANCH   3  20
BRANCH   4  28
HETATM   28  O   UNL     1      -8.488  17.884  67.952  1.00  0.00    -0.241 OA 
BRANCH  28  29
HETATM   29  C   UNL     1      -7.724  18.823  67.344  1.00  0.00    -0.228 C  
HETATM   30  C   UNL     1      -6.262  18.681  67.668  1.00  0.00    -0.191 C  
HETATM   31  O   UNL     1      -8.155  19.662  66.546  1.00  0.00    -0.287 OA 
ENDBRANCH  28  29
ENDBRANCH   4  28
BRANCH  12  32
HETATM   32  O   UNL     1      -6.864   9.241  72.794  1.00  0.00    -0.225 OA 
BRANCH  32  33
HETATM   33  C   UNL     1      -7.203   8.153  72.047  1.00  0.00    -0.089 C  
HETATM   34  O   UNL     1      -6.499   7.159  72.046  1.00  0.00    -0.044 OA 
HETATM   35  C   UNL     1      -8.402   8.280  71.134  1.00  0.00    -0.149 C  
ENDBRANCH  32  33
ENDBRANCH  12  32
BRANCH  11  36
HETATM   36  N   UNL     1      -8.388   8.930  70.417  1.00  0.00    -0.131 NA 
HETATM   37  C   UNL     1      -7.729   7.807  68.067  1.00  0.00    -0.126 C  
HETATM   38  C   UNL     1      -7.575   7.970  69.637  1.00  0.00    -0.096 C  
HETATM   39  N   UNL     1      -9.149   7.993  67.480  1.00  0.00    -0.136 N  
HETATM   40  C   UNL     1      -9.866   6.645  67.362  1.00  0.00    -0.131 C  
HETATM   41  C   UNL     1      -9.944   9.019  68.307  1.00  0.00    -0.173 C  
HETATM   42  C   UNL     1      -9.045   8.532  66.030  1.00  0.00    -0.194 C  
HETATM   43  C   UNL     1      -9.770   8.852  69.845  1.00  0.00    -0.177 C  
ENDBRANCH  11  36
TORSDOF 6
ENDMDL
MODEL      146
REMARK 921   NORMALIZED FREE ENERGY PREDICTED BY IDOCK:   53.71 KCAL/MOL
REMARK 922        TOTAL FREE ENERGY PREDICTED BY IDOCK:   70.82 KCAL/MOL
REMARK 923 INTER-LIGAND FREE ENERGY PREDICTED BY IDOCK:   34.74 KCAL/MOL
REMARK 924 INTRA-LIGAND FREE ENERGY PREDICTED BY IDOCK:   36.08 KCAL/MOL
REMARK 927      BINDING AFFINITY PREDICTED BY RF-SCORE:    0.00 PKD
ROOT
HETATM    1  C   UNL     1     -11.593   6.299  66.557  1.00  0.00     1.053 C  
HETATM    2  C   UNL     1     -11.272   6.710  65.235  1.00  0.00     5.500 C  
HETATM    3  C   UNL     1      -9.963   6.744  66.011  1.00  0.00     0.381 C  
HETATM    4  C   UNL     1     -10.216   5.823  67.843  1.00  0.00    -0.187 C  
HETATM    5  C   UNL     1     -10.128   9.811  70.172  1.00  0.00    -0.317 C  
HETATM    6  C   UNL     1     -10.011   5.290  66.610  1.00  0.00    -0.227 C  
HETATM    7  C   UNL     1     -10.303  10.136  68.668  1.00  0.00    -0.208 C  
HETATM    8  C   UNL     1      -9.072  11.238  68.208  1.00  0.00    -0.173 C  
HETATM    9  C   UNL     1     -10.089   3.896  66.018  1.00  0.00     0.003 C  
HETATM   10  C   UNL     1      -8.455   6.056  67.413  1.00  0.00    -0.104 C  
HETATM   11  C   UNL     1      -9.530  12.423  67.186  1.00  0.00    -0.198 C  
HETATM   12  C   UNL     1     -10.713  12.990  68.005  1.00  0.00    -0.232 C  
HETATM   13  C   UNL     1     -11.900  12.077  67.629  1.00  0.00    -0.294 C  
HETATM   14  C   UNL     1      -8.833   7.647  68.278  1.00  0.00    -0.125 C  
HETATM   15  C   UNL     1     -11.772  10.809  68.534  1.00  0.00    -0.259 C  
HETATM   16  C   UNL     1     -12.944   9.829  68.355  1.00  0.00     6.240 C  
HETATM   17  C   UNL     1     -12.758   8.769  67.271  1.00  0.00    11.696 C  
HETATM   18  C   UNL     1     -11.609   7.829  67.642  1.00  0.00     1.513 C  
HETATM   19  C   UNL     1     -10.168   8.708  67.882  1.00  0.00    -0.273 C  
ENDROOT
BRANCH   3  20
HETATM   20  N   UNL     1      -8.701   6.912  65.025  1.00  0.00     0.117 NA 
HETATM   21  C   UNL     1      -7.720   2.986  64.632  1.00  0.00    -0.077 C  
HETATM   22  C   UNL     1      -7.297   6.607  65.324  1.00  0.00    -0.080 C  
HETATM   23  C   UNL     1      -6.974   4.078  62.536  1.00  0.00    -0.035 C  
HETATM   24  C   UNL     1      -8.947   6.443  63.655  1.00  0.00     0.988 C  
HETATM   25  C   UNL     1      -6.665   5.251  64.833  1.00  0.00    -0.048 C  
HETATM   26  N   UNL     1      -7.569   4.335  63.917  1.00  0.00    -0.066 N  
HETATM   27  C   UNL     1      -8.952   4.923  63.659  1.00  0.00    -0.024 C  
ENDBRANCH   3  20
BRANCH   4  28
HETATM   28  O   UNL     1      -9.926   4.425  68.419  1.00  0.00    -0.105 OA 
BRANCH  28  29
HETATM   29  C   UNL     1     -10.592   3.975  69.510  1.00  0.00     1.684 C  
HETATM   30  C   UNL     1     -10.554   2.477  69.637  1.00  0.00     2.825 C  
HETATM   31  O   UNL     1     -11.112   4.707  70.359  1.00  0.00     0.862 OA 
ENDBRANCH  28  29
ENDBRANCH   4  28
BRANCH  12  32
HETATM   32  O   UNL     1     -10.808  14.415  67.967  1.00  0.00    -0.237 OA 
BRANCH  32  33
HETATM   33  C   UNL     1      -9.593  15.021  68.073  1.00  0.00    -0.208 C  
HETATM   34  O   UNL     1      -8.740  14.575  68.820  1.00  0.00    -0.174 OA 
HETATM   35  C   UNL     1      -9.398  16.327  67.334  1.00  0.00    -0.224 C  
ENDBRANCH  32  33
ENDBRANCH  12  32
BRANCH  11  36
HETATM   36  N   UNL     1      -8.636  13.406  66.439  1.00  0.00     0.209 NA 
HETATM   37  C   UNL     1      -8.624  16.024  67.044  1.00  0.00    -0.210 C  
HETATM   38  C   UNL     1      -7.994  14.570  67.091  1.00  0.00    -0.138 C  
HETATM   39  N   UNL     1      -9.385  16.415  65.753  1.00  0.00    -0.211 N  
HETATM   40  C   UNL     1      -8.457  17.140  64.776  1.00  0.00     5.186 C  
HETATM   41  C   UNL     1     -10.058  15.179  65.130  1.00  0.00    -0.296 C  
HETATM   42  C   UNL     1     -10.499  17.437  66.098  1.00  0.00    -0.284 C  
HETATM   43  C   UNL     1      -9.156  13.910  65.129  1.00  0.00     1.502 C  
ENDBRANCH  11  36
TORSDOF 6
ENDMDL
MODEL      147
REMARK 921   NORMALIZED FREE ENERGY PREDICTED BY IDOCK:   55.69 KCAL/MOL
REMARK 922        TOTAL FREE ENERGY PREDICTED BY IDOCK:   73.49 KCAL/MOL
REMARK 923 INTER-LIGAND FREE ENERGY PREDICTED BY IDOCK:   72.50 KCAL/MOL
REMARK 924 INTRA-LIGAND FREE ENERGY PREDICTED BY IDOCK:    0.99 KCAL/MOL
REMARK 927      BINDING AFFINITY PREDICTED BY RF-SCORE:    0.00 PKD
ROOT
HETATM    1  C   UNL     1     -10.805  14.963  69.391  1.00  0.00    -0.274 C  
HETATM    2  C   UNL     1     -10.976  13.949  70.373  1.00  0.00     0.568 C  
HETATM    3  C   UNL     1      -9.472  14.127  70.213  1.00  0.00     2.115 C  
HETATM    4  C   UNL     1      -9.087  15.818  69.090  1.00  0.00    -0.262 C  
HETATM    5  C   UNL     1      -7.826  13.395  65.365  1.00  0.00     5.210 C  
HETATM    6  C   UNL     1      -9.401  15.687  70.406  1.00  0.00     0.888 C  
HETATM    7  C   UNL     1      -8.529  12.429  66.352  1.00  0.00     0.141 C  
HETATM    8  C   UNL     1      -7.482  11.104  66.647  1.00  0.00    -0.146 C  
HETATM    9  C   UNL     1      -9.803  16.643  71.513  1.00  0.00     4.827 C  
HETATM   10  C   UNL     1      -7.605  15.206  69.968  1.00  0.00     0.133 C  
HETATM   11  C   UNL     1      -8.199   9.642  66.736  1.00  0.00    -0.113 C  
HETATM   12  C   UNL     1      -8.940   9.666  65.379  1.00  0.00    -0.190 C  
HETATM   13  C   UNL     1     -10.247  10.431  65.680  1.00  0.00    -0.308 C  
HETATM   14  C   UNL     1      -7.507  14.258  68.382  1.00  0.00    -0.122 C  
HETATM   15  C   UNL     1      -9.885  11.950  65.603  1.00  0.00    -0.266 C  
HETATM   16  C   UNL     1     -11.108  12.864  65.783  1.00  0.00    -0.312 C  
HETATM   17  C   UNL     1     -11.425  13.266  67.222  1.00  0.00    -0.378 C  
HETATM   18  C   UNL     1     -10.296  14.128  67.791  1.00  0.00    -0.242 C  
HETATM   19  C   UNL     1      -8.808  13.300  67.708  1.00  0.00    -0.197 C  
ENDROOT
BRANCH   3  20
HETATM   20  N   UNL     1      -8.665  13.372  71.384  1.00  0.00     9.710 NA 
HETATM   21  C   UNL     1     -10.404   9.712  71.046  1.00  0.00    -0.222 C  
HETATM   22  C   UNL     1      -9.213  12.844  72.639  1.00  0.00    21.220 C  
HETATM   23  C   UNL     1      -8.128   9.295  71.934  1.00  0.00     0.645 C  
HETATM   24  C   UNL     1      -7.702  12.375  70.898  1.00  0.00     6.286 C  
HETATM   25  C   UNL     1      -9.538  11.309  72.773  1.00  0.00    18.189 C  
HETATM   26  N   UNL     1      -9.125  10.386  71.559  1.00  0.00     3.802 N  
HETATM   27  C   UNL     1      -8.472  11.156  70.415  1.00  0.00     2.851 C  
ENDBRANCH   3  20
BRANCH   4  28
HETATM   28  O   UNL     1      -8.708  17.278  69.398  1.00  0.00     0.096 OA 
BRANCH  28  29
HETATM   29  C   UNL     1      -9.060  18.276  68.552  1.00  0.00    -0.311 C  
HETATM   30  C   UNL     1     -10.079  17.843  67.534  1.00  0.00    -0.343 C  
HETATM   31  O   UNL     1      -8.655  19.440  68.642  1.00  0.00    -0.356 OA 
ENDBRANCH  28  29
ENDBRANCH   4  28
BRANCH  12  32
HETATM   32  O   UNL     1      -8.934   8.410  64.698  1.00  0.00     0.068 OA 
BRANCH  32  33
HETATM   33  C   UNL     1      -8.568   8.528  63.391  1.00  0.00     0.055 C  
HETATM   34  O   UNL     1      -8.217   9.604  62.940  1.00  0.00    -0.134 OA 
HETATM   35  C   UNL     1      -8.738   7.312  62.507  1.00  0.00     0.359 C  
ENDBRANCH  32  33
ENDBRANCH  12  32
BRANCH  11  36
HETATM   36  N   UNL     1      -7.580   8.327  67.194  1.00  0.00    -0.092 NA 
HETATM   37  C   UNL     1      -7.617   7.590  69.778  1.00  0.00    -0.094 C  
HETATM   38  C   UNL     1      -8.148   7.504  68.286  1.00  0.00    -0.124 C  
HETATM   39  N   UNL     1      -6.104   7.860  69.967  1.00  0.00    -0.026 N  
HETATM   40  C   UNL     1      -5.334   6.545  70.113  1.00  0.00    -0.014 C  
HETATM   41  C   UNL     1      -5.567   8.740  68.825  1.00  0.00    -0.040 C  
HETATM   42  C   UNL     1      -5.876   8.621  71.299  1.00  0.00    -0.041 C  
HETATM   43  C   UNL     1      -6.100   8.334  67.419  1.00  0.00    -0.052 C  
ENDBRANCH  11  36
TORSDOF 6
ENDMDL
MODEL      148
REMARK 921   NORMALIZED FREE ENERGY PREDICTED BY IDOCK:   56.16 KCAL/MOL
REMARK 922        TOTAL FREE ENERGY PREDICTED BY IDOCK:   74.12 KCAL/MOL
REMARK 923 INTER-LIGAND FREE ENERGY PREDICTED BY IDOCK:   72.37 KCAL/MOL
REMARK 924 INTRA-LIGAND FREE ENERGY PREDICTED BY IDOCK:    1.76 KCAL/MOL
REMARK 927      BINDING AFFINITY PREDICTED BY RF-SCORE:    0.00 PKD
ROOT
HETATM    1  C   UNL     1     -10.805  14.963  69.391  1.00  0.00    -0.274 C  
HETATM    2  C   UNL     1     -10.976  13.949  70.373  1.00  0.00     0.568 C  
HETATM    3  C   UNL     1      -9.472  14.127  70.213  1.00  0.00     2.115 C  
HETATM    4  C   UNL     1      -9.087  15.818  69.090  1.00  0.00    -0.262 C  
HETATM    5  C   UNL     1      -7.826  13.395  65.365  1.00  0.00     5.210 C  
HETATM    6  C   UNL     1      -9.401  15.687  70.406  1.00  0.00     0.888 C  
HETATM    7  C   UNL     1      -8.529  12.429  66.352  1.00  0.00     0.141 C  
HETATM    8  C   UNL     1      -7.482  11.104  66.647  1.00  0.00    -0.146 C  
HETATM    9  C   UNL     1      -9.803  16.643  71.513  1.00  0.00     4.827 C  
HETATM   10  C   UNL     1      -7.605  15.206  69.968  1.00  0.00     0.133 C  
HETATM   11  C   UNL     1      -8.199   9.642  66.736  1.00  0.00    -0.113 C  
HETATM   12  C   UNL     1      -8.940   9.666  65.379  1.00  0.00    -0.190 C  
HETATM   13  C   UNL     1     -10.247  10.431  65.680  1.00  0.00    -0.308 C  
HETATM   14  C   UNL     1      -7.507  14.258  68.382  1.00  0.00    -0.122 C  
HETATM   15  C   UNL     1      -9.885  11.950  65.603  1.00  0.00    -0.266 C  
HETATM   16  C   UNL     1     -11.108  12.864  65.783  1.00  0.00    -0.312 C  
HETATM   17  C   UNL     1     -11.425  13.266  67.222  1.00  0.00    -0.378 C  
HETATM   18  C   UNL     1     -10.296  14.128  67.791  1.00  0.00    -0.242 C  
HETATM   19  C   UNL     1      -8.808  13.300  67.708  1.00  0.00    -0.197 C  
ENDROOT
BRANCH   3  20
HETATM   20  N   UNL     1      -8.665  13.372  71.384  1.00  0.00     9.710 NA 
HETATM   21  C   UNL     1     -10.404   9.712  71.046  1.00  0.00    -0.222 C  
HETATM   22  C   UNL     1      -9.213  12.844  72.639  1.00  0.00    21.220 C  
HETATM   23  C   UNL     1      -8.128   9.295  71.934  1.00  0.00     0.645 C  
HETATM   24  C   UNL     1      -7.702  12.375  70.898  1.00  0.00     6.286 C  
HETATM   25  C   UNL     1      -9.538  11.309  72.773  1.00  0.00    18.189 C  
HETATM   26  N   UNL     1      -9.125  10.386  71.559  1.00  0.00     3.802 N  
HETATM   27  C   UNL     1      -8.472  11.156  70.415  1.00  0.00     2.851 C  
ENDBRANCH   3  20
BRANCH   4  28
HETATM   28  O   UNL     1      -8.708  17.278  69.398  1.00  0.00     0.096 OA 
BRANCH  28  29
HETATM   29  C   UNL     1      -9.060  18.276  68.552  1.00  0.00    -0.311 C  
HETATM   30  C   UNL     1     -10.079  17.843  67.534  1.00  0.00    -0.343 C  
HETATM   31  O   UNL     1      -8.655  19.440  68.642  1.00  0.00    -0.356 OA 
ENDBRANCH  28  29
ENDBRANCH   4  28
BRANCH  12  32
HETATM   32  O   UNL     1      -8.934   8.410  64.698  1.00  0.00     0.068 OA 
BRANCH  32  33
HETATM   33  C   UNL     1      -8.568   8.528  63.391  1.00  0.00     0.055 C  
HETATM   34  O   UNL     1      -8.217   9.604  62.940  1.00  0.00    -0.134 OA 
HETATM   35  C   UNL     1      -8.738   7.312  62.507  1.00  0.00     0.359 C  
ENDBRANCH  32  33
ENDBRANCH  12  32
BRANCH  11  36
HETATM   36  N   UNL     1      -7.580   8.327  67.194  1.00  0.00    -0.092 NA 
HETATM   37  C   UNL     1      -6.064   6.844  65.545  1.00  0.00    -0.036 C  
HETATM   38  C   UNL     1      -6.248   7.862  66.746  1.00  0.00    -0.053 C  
HETATM   39  N   UNL     1      -7.158   5.761  65.372  1.00  0.00    -0.067 N  
HETATM   40  C   UNL     1      -6.762   4.472  66.096  1.00  0.00    -0.053 C  
HETATM   41  C   UNL     1      -8.526   6.301  65.824  1.00  0.00    -0.148 C  
HETATM   42  C   UNL     1      -7.273   5.374  63.875  1.00  0.00    -0.050 C  
HETATM   43  C   UNL     1      -8.469   7.124  67.144  1.00  0.00    -0.121 C  
ENDBRANCH  11  36
TORSDOF 6
ENDMDL
MODEL      149
REMARK 921   NORMALIZED FREE ENERGY PREDICTED BY IDOCK:   56.82 KCAL/MOL
REMARK 922        TOTAL FREE ENERGY PREDICTED BY IDOCK:   75.02 KCAL/MOL
REMARK 923 INTER-LIGAND FREE ENERGY PREDICTED BY IDOCK:   50.42 KCAL/MOL
REMARK 924 INTRA-LIGAND FREE ENERGY PREDICTED BY IDOCK:   24.60 KCAL/MOL
REMARK 927      BINDING AFFINITY PREDICTED BY RF-SCORE:    0.00 PKD
ROOT
HETATM    1  C   UNL     1     -11.487  15.408  67.044  1.00  0.00    -0.103 C  
HETATM    2  C   UNL     1     -12.020  14.995  68.295  1.00  0.00    -0.214 C  
HETATM    3  C   UNL     1     -10.534  15.229  68.531  1.00  0.00    -0.235 C  
HETATM    4  C   UNL     1      -9.711  16.180  66.892  1.00  0.00    -0.236 C  
HETATM    5  C   UNL     1      -7.499  12.389  65.454  1.00  0.00     3.466 C  
HETATM    6  C   UNL     1     -10.430  16.680  67.931  1.00  0.00    -0.322 C  
HETATM    7  C   UNL     1      -8.535  11.964  66.524  1.00  0.00    -0.097 C  
HETATM    8  C   UNL     1      -7.719  11.074  67.741  1.00  0.00    -0.108 C  
HETATM    9  C   UNL     1     -11.098  18.008  68.234  1.00  0.00     0.304 C  
HETATM   10  C   UNL     1      -8.621  16.239  68.358  1.00  0.00    -0.200 C  
HETATM   11  C   UNL     1      -8.517   9.778  68.325  1.00  0.00    -0.114 C  
HETATM   12  C   UNL     1      -8.793   9.054  66.987  1.00  0.00    -0.119 C  
HETATM   13  C   UNL     1     -10.077   9.725  66.456  1.00  0.00    -0.307 C  
HETATM   14  C   UNL     1      -8.090  14.650  67.571  1.00  0.00    -0.200 C  
HETATM   15  C   UNL     1      -9.615  11.039  65.745  1.00  0.00    -0.260 C  
HETATM   16  C   UNL     1     -10.774  11.789  65.066  1.00  0.00    -0.344 C  
HETATM   17  C   UNL     1     -11.500  12.810  65.939  1.00  0.00    -0.399 C  
HETATM   18  C   UNL     1     -10.555  13.954  66.313  1.00  0.00    -0.289 C  
HETATM   19  C   UNL     1      -9.171  13.354  67.108  1.00  0.00    -0.240 C  
ENDROOT
BRANCH   3  20
HETATM   20  N   UNL     1     -10.184  15.236  70.103  1.00  0.00    -0.213 NA 
HETATM   21  C   UNL     1     -10.216  11.221  70.742  1.00  0.00     3.204 C  
HETATM   22  C   UNL     1     -11.052  14.806  71.205  1.00  0.00     0.124 C  
HETATM   23  C   UNL     1      -8.649  12.157  72.420  1.00  0.00    22.045 C  
HETATM   24  C   UNL     1      -8.837  14.743  70.417  1.00  0.00     1.419 C  
HETATM   25  C   UNL     1     -10.868  13.377  71.841  1.00  0.00     5.874 C  
HETATM   26  N   UNL     1      -9.645  12.521  71.324  1.00  0.00    11.148 N  
HETATM   27  C   UNL     1      -8.825  13.232  70.251  1.00  0.00     4.359 C  
ENDBRANCH   3  20
BRANCH   4  28
HETATM   28  O   UNL     1      -9.358  17.634  66.529  1.00  0.00    -0.263 OA 
BRANCH  28  29
HETATM   29  C   UNL     1     -10.030  18.284  65.548  1.00  0.00     0.533 C  
HETATM   30  C   UNL     1     -11.441  17.789  65.385  1.00  0.00     1.604 C  
HETATM   31  O   UNL     1      -9.574  19.234  64.903  1.00  0.00     1.417 OA 
ENDBRANCH  28  29
ENDBRANCH   4  28
BRANCH  12  32
HETATM   32  O   UNL     1      -8.652   7.634  67.062  1.00  0.00    -0.118 OA 
BRANCH  32  33
HETATM   33  C   UNL     1      -7.350   7.236  67.013  1.00  0.00    -0.093 C  
HETATM   34  O   UNL     1      -6.555   7.806  66.287  1.00  0.00    -0.048 OA 
HETATM   35  C   UNL     1      -6.971   5.995  67.789  1.00  0.00    -0.069 C  
ENDBRANCH  32  33
ENDBRANCH  12  32
BRANCH  11  36
HETATM   36  N   UNL     1      -8.157   8.931  69.540  1.00  0.00    -0.098 NA 
HETATM   37  C   UNL     1      -5.805   7.643  69.700  1.00  0.00    -0.023 C  
HETATM   38  C   UNL     1      -6.781   8.834  70.078  1.00  0.00    -0.039 C  
HETATM   39  N   UNL     1      -6.451   6.254  69.473  1.00  0.00    -0.038 N  
HETATM   40  C   UNL     1      -6.429   5.431  70.763  1.00  0.00    -0.035 C  
HETATM   41  C   UNL     1      -7.866   6.407  68.889  1.00  0.00    -0.110 C  
HETATM   42  C   UNL     1      -5.603   5.448  68.456  1.00  0.00    -0.011 C  
HETATM   43  C   UNL     1      -8.701   7.537  69.561  1.00  0.00    -0.137 C  
ENDBRANCH  11  36
TORSDOF 6
ENDMDL
MODEL      150
REMARK 921   NORMALIZED FREE ENERGY PREDICTED BY IDOCK:   60.67 KCAL/MOL
REMARK 922        TOTAL FREE ENERGY PREDICTED BY IDOCK:   80.21 KCAL/MOL
REMARK 923 INTER-LIGAND FREE ENERGY PREDICTED BY IDOCK:   60.81 KCAL/MOL
REMARK 924 INTRA-LIGAND FREE ENERGY PREDICTED BY IDOCK:   19.40 KCAL/MOL
REMARK 927      BINDING AFFINITY PREDICTED BY RF-SCORE:    0.00 PKD
ROOT
HETATM    1  C   UNL     1      -5.816   9.173  67.053  1.00  0.00    -0.045 C  
HETATM    2  C   UNL     1      -6.399   9.412  68.327  1.00  0.00    -0.053 C  
HETATM    3  C   UNL     1      -7.492   8.774  67.481  1.00  0.00    -0.089 C  
HETATM    4  C   UNL     1      -6.678   8.044  65.728  1.00  0.00    -0.048 C  
HETATM    5  C   UNL     1      -8.521  11.403  63.147  1.00  0.00     0.287 C  
HETATM    6  C   UNL     1      -6.692   7.515  66.979  1.00  0.00    -0.066 C  
HETATM    7  C   UNL     1      -8.646  11.816  64.634  1.00  0.00     0.937 C  
HETATM    8  C   UNL     1     -10.289  12.182  64.956  1.00  0.00    -0.320 C  
HETATM    9  C   UNL     1      -5.990   6.358  67.663  1.00  0.00    -0.017 C  
HETATM   10  C   UNL     1      -8.355   7.393  66.047  1.00  0.00    -0.143 C  
HETATM   11  C   UNL     1     -10.551  13.469  65.922  1.00  0.00    -0.284 C  
HETATM   12  C   UNL     1      -9.736  14.520  65.135  1.00  0.00     0.051 C  
HETATM   13  C   UNL     1      -8.289  14.321  65.632  1.00  0.00     2.663 C  
HETATM   14  C   UNL     1      -8.737   8.939  65.103  1.00  0.00    -0.213 C  
HETATM   15  C   UNL     1      -7.708  13.128  64.804  1.00  0.00     8.295 C  
HETATM   16  C   UNL     1      -6.225  12.857  65.108  1.00  0.00     8.878 C  
HETATM   17  C   UNL     1      -5.954  11.875  66.246  1.00  0.00     0.558 C  
HETATM   18  C   UNL     1      -6.464  10.481  65.875  1.00  0.00    -0.127 C  
HETATM   19  C   UNL     1      -8.127  10.530  65.502  1.00  0.00    -0.155 C  
ENDROOT
BRANCH   3  20
HETATM   20  N   UNL     1      -8.748   8.329  68.384  1.00  0.00    -0.133 NA 
HETATM   21  C   UNL     1     -11.680  10.252  66.325  1.00  0.00     2.256 C  
HETATM   22  C   UNL     1      -9.598   9.196  69.209  1.00  0.00    -0.159 C  
HETATM   23  C   UNL     1     -12.771   8.287  67.372  1.00  0.00    11.240 C  
HETATM   24  C   UNL     1      -9.645   7.370  67.727  1.00  0.00    -0.140 C  
HETATM   25  C   UNL     1     -10.996   9.674  68.666  1.00  0.00    -0.111 C  
HETATM   26  N   UNL     1     -11.466   9.072  67.283  1.00  0.00     1.166 N  
HETATM   27  C   UNL     1     -10.453   8.108  66.673  1.00  0.00    -0.134 C  
ENDBRANCH   3  20
BRANCH   4  28
HETATM   28  O   UNL     1      -6.201   6.668  65.228  1.00  0.00    -0.036 OA 
BRANCH  28  29
HETATM   29  C   UNL     1      -6.103   5.619  66.080  1.00  0.00    -0.033 C  
HETATM   30  C   UNL     1      -6.494   4.314  65.443  1.00  0.00    -0.039 C  
HETATM   31  O   UNL     1      -5.667   5.698  67.234  1.00  0.00    -0.015 OA 
ENDBRANCH  28  29
ENDBRANCH   4  28
BRANCH  12  32
HETATM   32  O   UNL     1     -10.353  15.808  65.086  1.00  0.00    -0.425 OA 
BRANCH  32  33
HETATM   33  C   UNL     1      -9.585  16.729  64.438  1.00  0.00     4.636 C  
HETATM   34  O   UNL     1      -9.768  17.920  64.612  1.00  0.00     2.385 OA 
HETATM   35  C   UNL     1      -8.600  16.216  63.411  1.00  0.00    19.227 C  
ENDBRANCH  32  33
ENDBRANCH  12  32
BRANCH  11  36
HETATM   36  N   UNL     1     -11.867  13.906  66.556  1.00  0.00    -0.392 NA 
HETATM   37  C   UNL     1     -12.039  16.158  68.011  1.00  0.00     0.667 C  
HETATM   38  C   UNL     1     -12.271  15.325  66.682  1.00  0.00     0.612 C  
HETATM   39  N   UNL     1     -12.159  15.388  69.349  1.00  0.00    -0.310 N  
HETATM   40  C   UNL     1     -13.577  15.500  69.913  1.00  0.00     1.250 C  
HETATM   41  C   UNL     1     -11.702  13.929  69.173  1.00  0.00    -0.338 C  
HETATM   42  C   UNL     1     -11.240  16.047  70.410  1.00  0.00    -0.387 C  
HETATM   43  C   UNL     1     -12.218  13.266  67.863  1.00  0.00    -0.087 C  
ENDBRANCH  11  36
TORSDOF 6
ENDMDL
MODEL      151
REMARK 921   NORMALIZED FREE ENERGY PREDICTED BY IDOCK:   61.35 KCAL/MOL
REMARK 922        TOTAL FREE ENERGY PREDICTED BY IDOCK:   81.14 KCAL/MOL
REMARK 923 INTER-LIGAND FREE ENERGY PREDICTED BY IDOCK:   15.33 KCAL/MOL
REMARK 924 INTRA-LIGAND FREE ENERGY PREDICTED BY IDOCK:   65.81 KCAL/MOL
REMARK 927      BINDING AFFINITY PREDICTED BY RF-SCORE:    0.00 PKD
ROOT
HETATM    1  C   UNL     1      -9.211  13.777  66.823  1.00  0.00    -0.255 C  
HETATM    2  C   UNL     1     -10.151  13.391  67.817  1.00  0.00    -0.232 C  
HETATM    3  C   UNL     1      -8.776  13.115  68.412  1.00  0.00    -0.120 C  
HETATM    4  C   UNL     1      -7.319  13.967  67.221  1.00  0.00     0.006 C  
HETATM    5  C   UNL     1      -5.915   9.897  65.547  1.00  0.00    -0.076 C  
HETATM    6  C   UNL     1      -8.127  14.526  68.160  1.00  0.00    -0.137 C  
HETATM    7  C   UNL     1      -7.274   9.682  66.258  1.00  0.00    -0.094 C  
HETATM    8  C   UNL     1      -7.086   8.429  67.413  1.00  0.00    -0.080 C  
HETATM    9  C   UNL     1      -8.466  15.944  68.577  1.00  0.00    -0.184 C  
HETATM   10  C   UNL     1      -6.687  13.488  68.868  1.00  0.00    -0.109 C  
HETATM   11  C   UNL     1      -8.332   7.383  67.531  1.00  0.00    -0.113 C  
HETATM   12  C   UNL     1      -8.425   6.964  66.046  1.00  0.00    -0.139 C  
HETATM   13  C   UNL     1      -9.288   8.068  65.399  1.00  0.00     0.333 C  
HETATM   14  C   UNL     1      -6.416  11.930  67.905  1.00  0.00    -0.068 C  
HETATM   15  C   UNL     1      -8.315   9.252  65.091  1.00  0.00    -0.155 C  
HETATM   16  C   UNL     1      -9.002  10.410  64.346  1.00  0.00    -0.247 C  
HETATM   17  C   UNL     1      -9.630  11.483  65.232  1.00  0.00    -0.244 C  
HETATM   18  C   UNL     1      -8.547  12.213  66.028  1.00  0.00     0.265 C  
HETATM   19  C   UNL     1      -7.643  11.111  66.963  1.00  0.00    -0.135 C  
ENDROOT
BRANCH   3  20
HETATM   20  N   UNL     1      -8.871  12.805  69.989  1.00  0.00     3.142 NA 
HETATM   21  C   UNL     1      -7.205   9.097  69.974  1.00  0.00    -0.066 C  
HETATM   22  C   UNL     1      -9.686  11.773  70.641  1.00  0.00     5.359 C  
HETATM   23  C   UNL     1      -6.718  10.043  72.212  1.00  0.00     1.677 C  
HETATM   24  C   UNL     1      -7.574  12.809  70.677  1.00  0.00     4.357 C  
HETATM   25  C   UNL     1      -9.027  10.412  71.082  1.00  0.00     3.128 C  
HETATM   26  N   UNL     1      -7.462  10.289  70.904  1.00  0.00     0.727 N  
HETATM   27  C   UNL     1      -6.826  11.539  70.304  1.00  0.00     0.598 C  
ENDBRANCH   3  20
BRANCH   4  28
HETATM   28  O   UNL     1      -6.501  15.272  67.249  1.00  0.00    -0.303 OA 
BRANCH  28  29
HETATM   29  C   UNL     1      -6.431  16.019  68.377  1.00  0.00    -0.120 C  
HETATM   30  C   UNL     1      -6.290  15.183  69.620  1.00  0.00    -0.146 C  
HETATM   31  O   UNL     1      -6.406  17.254  68.394  1.00  0.00    -0.154 OA 
ENDBRANCH  28  29
ENDBRANCH   4  28
BRANCH  12  32
HETATM   32  O   UNL     1      -8.698   5.575  65.856  1.00  0.00    -0.135 OA 
BRANCH  32  33
HETATM   33  C   UNL     1      -9.112   4.964  67.001  1.00  0.00    -0.118 C  
HETATM   34  O   UNL     1     -10.295   4.746  67.195  1.00  0.00    -0.173 OA 
HETATM   35  C   UNL     1      -8.068   4.690  68.062  1.00  0.00    -0.088 C  
ENDBRANCH  32  33
ENDBRANCH  12  32
BRANCH  11  36
HETATM   36  N   UNL     1      -8.553   6.314  68.595  1.00  0.00    -0.121 NA 
HETATM   37  C   UNL     1      -6.565   4.683  69.374  1.00  0.00    -0.040 C  
HETATM   38  C   UNL     1      -7.519   5.932  69.584  1.00  0.00    -0.076 C  
HETATM   39  N   UNL     1      -7.168   3.457  68.645  1.00  0.00    -0.050 N  
HETATM   40  C   UNL     1      -7.726   2.450  69.653  1.00  0.00    -0.043 C  
HETATM   41  C   UNL     1      -8.214   3.907  67.610  1.00  0.00    -0.093 C  
HETATM   42  C   UNL     1      -6.046   2.703  67.886  1.00  0.00    -0.024 C  
HETATM   43  C   UNL     1      -9.162   5.029  68.127  1.00  0.00    -0.120 C  
ENDBRANCH  11  36
TORSDOF 6
ENDMDL
MODEL      152
REMARK 921   NORMALIZED FREE ENERGY PREDICTED BY IDOCK:   61.38 KCAL/MOL
REMARK 922        TOTAL FREE ENERGY PREDICTED BY IDOCK:   81.17 KCAL/MOL
REMARK 923 INTER-LIGAND FREE ENERGY PREDICTED BY IDOCK:   77.32 KCAL/MOL
REMARK 924 INTRA-LIGAND FREE ENERGY PREDICTED BY IDOCK:    3.85 KCAL/MOL
REMARK 927      BINDING AFFINITY PREDICTED BY RF-SCORE:    0.00 PKD
ROOT
HETATM    1  C   UNL     1     -11.204   8.995  66.760  1.00  0.00     1.050 C  
HETATM    2  C   UNL     1     -12.157  10.010  67.050  1.00  0.00     3.985 C  
HETATM    3  C   UNL     1     -11.078  10.678  66.210  1.00  0.00     0.154 C  
HETATM    4  C   UNL     1      -9.824   9.241  65.416  1.00  0.00     0.010 C  
HETATM    5  C   UNL     1      -6.349  10.296  68.271  1.00  0.00    -0.048 C  
HETATM    6  C   UNL     1     -11.052   9.659  65.011  1.00  0.00     3.389 C  
HETATM    7  C   UNL     1      -7.635  10.973  68.807  1.00  0.00    -0.127 C  
HETATM    8  C   UNL     1      -7.321  12.646  69.007  1.00  0.00     0.055 C  
HETATM    9  C   UNL     1     -12.081   9.160  64.016  1.00  0.00    15.287 C  
HETATM   10  C   UNL     1      -9.628  10.867  64.605  1.00  0.00    -0.305 C  
HETATM   11  C   UNL     1      -7.961  13.332  70.341  1.00  0.00     3.656 C  
HETATM   12  C   UNL     1      -7.371  12.373  71.401  1.00  0.00     7.035 C  
HETATM   13  C   UNL     1      -8.357  11.186  71.421  1.00  0.00     7.957 C  
HETATM   14  C   UNL     1      -8.417  11.005  65.998  1.00  0.00    -0.158 C  
HETATM   15  C   UNL     1      -7.944  10.260  70.231  1.00  0.00     0.251 C  
HETATM   16  C   UNL     1      -8.773   8.966  70.166  1.00  0.00    -0.168 C  
HETATM   17  C   UNL     1     -10.053   9.044  69.337  1.00  0.00    -0.198 C  
HETATM   18  C   UNL     1      -9.715   9.280  67.864  1.00  0.00    -0.180 C  
HETATM   19  C   UNL     1      -8.789  10.700  67.680  1.00  0.00    -0.131 C  
ENDROOT
BRANCH   3  20
HETATM   20  N   UNL     1     -11.544  12.136  65.708  1.00  0.00    -0.373 NA 
HETATM   21  C   UNL     1     -12.899  13.586  69.257  1.00  0.00     0.947 C  
HETATM   22  C   UNL     1     -12.913  12.660  65.664  1.00  0.00     0.810 C  
HETATM   23  C   UNL     1     -12.162  15.565  67.959  1.00  0.00     0.456 C  
HETATM   24  C   UNL     1     -10.693  13.232  66.188  1.00  0.00    -0.279 C  
HETATM   25  C   UNL     1     -13.429  13.612  66.807  1.00  0.00     3.744 C  
HETATM   26  N   UNL     1     -12.372  14.056  67.894  1.00  0.00    -0.133 N  
HETATM   27  C   UNL     1     -10.986  13.463  67.661  1.00  0.00    -0.259 C  
ENDBRANCH   3  20
BRANCH   4  28
HETATM   28  O   UNL     1      -9.703   8.514  64.063  1.00  0.00     1.782 OA 
BRANCH  28  29
HETATM   29  C   UNL     1      -8.701   7.630  63.841  1.00  0.00     0.632 C  
HETATM   30  C   UNL     1      -8.889   6.846  62.572  1.00  0.00     0.525 C  
HETATM   31  O   UNL     1      -7.696   7.524  64.553  1.00  0.00    -0.109 OA 
ENDBRANCH  28  29
ENDBRANCH   4  28
BRANCH  12  32
HETATM   32  O   UNL     1      -6.944  13.028  72.596  1.00  0.00     4.675 OA 
BRANCH  32  33
HETATM   33  C   UNL     1      -6.931  12.192  73.672  1.00  0.00     8.566 C  
HETATM   34  O   UNL     1      -7.888  12.133  74.423  1.00  0.00     8.221 OA 
HETATM   35  C   UNL     1      -5.645  11.449  73.962  1.00  0.00     1.154 C  
ENDBRANCH  32  33
ENDBRANCH  12  32
BRANCH  11  36
HETATM   36  N   UNL     1      -8.039  14.816  70.679  1.00  0.00     1.360 NA 
HETATM   37  C   UNL     1     -10.389  16.118  70.726  1.00  0.00     0.722 C  
HETATM   38  C   UNL     1      -9.161  15.413  71.439  1.00  0.00     3.502 C  
HETATM   39  N   UNL     1     -10.091  16.883  69.413  1.00  0.00    -0.212 N  
HETATM   40  C   UNL     1      -9.826  18.363  69.698  1.00  0.00     0.443 C  
HETATM   41  C   UNL     1      -8.939  16.209  68.647  1.00  0.00    -0.221 C  
HETATM   42  C   UNL     1     -11.345  16.856  68.501  1.00  0.00     0.021 C  
HETATM   43  C   UNL     1      -7.757  15.767  69.558  1.00  0.00    -0.166 C  
ENDBRANCH  11  36
TORSDOF 6
ENDMDL
MODEL      153
REMARK 921   NORMALIZED FREE ENERGY PREDICTED BY IDOCK:   61.92 KCAL/MOL
REMARK 922        TOTAL FREE ENERGY PREDICTED BY IDOCK:   81.91 KCAL/MOL
REMARK 923 INTER-LIGAND FREE ENERGY PREDICTED BY IDOCK:   69.07 KCAL/MOL
REMARK 924 INTRA-LIGAND FREE ENERGY PREDICTED BY IDOCK:   12.83 KCAL/MOL
REMARK 927      BINDING AFFINITY PREDICTED BY RF-SCORE:    0.00 PKD
ROOT
HETATM    1  C   UNL     1      -7.270  12.084  72.761  1.00  0.00    11.522 C  
HETATM    2  C   UNL     1      -6.090  11.741  72.047  1.00  0.00     2.317 C  
HETATM    3  C   UNL     1      -7.114  12.142  70.993  1.00  0.00     4.077 C  
HETATM    4  C   UNL     1      -8.750  13.010  71.909  1.00  0.00    17.559 C  
HETATM    5  C   UNL     1     -11.455   9.336  71.184  1.00  0.00    -0.403 C  
HETATM    6  C   UNL     1      -7.536  13.533  71.598  1.00  0.00     6.092 C  
HETATM    7  C   UNL     1      -9.989   8.915  70.914  1.00  0.00    -0.304 C  
HETATM    8  C   UNL     1      -9.904   8.230  69.345  1.00  0.00    -0.185 C  
HETATM    9  C   UNL     1      -6.797  14.811  71.945  1.00  0.00     1.836 C  
HETATM   10  C   UNL     1      -8.712  13.315  70.108  1.00  0.00     3.653 C  
HETATM   11  C   UNL     1      -8.942   6.922  69.195  1.00  0.00    -0.133 C  
HETATM   12  C   UNL     1      -9.559   6.050  70.313  1.00  0.00    -0.163 C  
HETATM   13  C   UNL     1      -8.857   6.538  71.598  1.00  0.00    -0.135 C  
HETATM   14  C   UNL     1      -9.645  11.719  70.188  1.00  0.00     2.868 C  
HETATM   15  C   UNL     1      -9.632   7.818  72.054  1.00  0.00    -0.217 C  
HETATM   16  C   UNL     1      -9.118   8.382  73.389  1.00  0.00    -0.145 C  
HETATM   17  C   UNL     1      -7.989   9.404  73.283  1.00  0.00     2.032 C  
HETATM   18  C   UNL     1      -8.483  10.666  72.572  1.00  0.00    10.677 C  
HETATM   19  C   UNL     1      -9.101  10.284  71.030  1.00  0.00     2.062 C  
ENDROOT
BRANCH   3  20
HETATM   20  N   UNL     1      -6.427  12.333  69.550  1.00  0.00    -0.114 NA 
HETATM   21  C   UNL     1      -6.909   8.546  68.151  1.00  0.00    -0.069 C  
HETATM   22  C   UNL     1      -5.192  11.705  69.068  1.00  0.00    -0.046 C  
HETATM   23  C   UNL     1      -6.879  10.005  66.147  1.00  0.00    -0.102 C  
HETATM   24  C   UNL     1      -7.375  12.304  68.429  1.00  0.00    -0.109 C  
HETATM   25  C   UNL     1      -5.265  10.438  68.135  1.00  0.00    -0.034 C  
HETATM   26  N   UNL     1      -6.702   9.986  67.661  1.00  0.00    -0.075 N  
HETATM   27  C   UNL     1      -7.820  10.867  68.211  1.00  0.00    -0.118 C  
ENDBRANCH   3  20
BRANCH   4  28
HETATM   28  O   UNL     1      -9.223  14.451  72.177  1.00  0.00     5.080 OA 
BRANCH  28  29
HETATM   29  C   UNL     1     -10.545  14.750  72.207  1.00  0.00     2.157 C  
HETATM   30  C   UNL     1     -11.079  15.156  70.861  1.00  0.00    -0.289 C  
HETATM   31  O   UNL     1     -11.263  14.632  73.206  1.00  0.00     0.461 OA 
ENDBRANCH  28  29
ENDBRANCH   4  28
BRANCH  12  32
HETATM   32  O   UNL     1      -9.653   4.665  69.977  1.00  0.00    -0.150 OA 
BRANCH  32  33
HETATM   33  C   UNL     1      -8.454   4.023  70.072  1.00  0.00    -0.064 C  
HETATM   34  O   UNL     1      -7.770   4.134  71.073  1.00  0.00    -0.057 OA 
HETATM   35  C   UNL     1      -7.961   3.285  68.847  1.00  0.00    -0.064 C  
ENDBRANCH  32  33
ENDBRANCH  12  32
BRANCH  11  36
HETATM   36  N   UNL     1      -8.498   6.235  67.909  1.00  0.00    -0.117 NA 
HETATM   37  C   UNL     1      -7.032   7.528  66.066  1.00  0.00    -0.061 C  
HETATM   38  C   UNL     1      -7.193   6.499  67.261  1.00  0.00    -0.078 C  
HETATM   39  N   UNL     1      -8.218   7.642  65.076  1.00  0.00    -0.134 N  
HETATM   40  C   UNL     1      -8.011   6.715  63.876  1.00  0.00    -0.075 C  
HETATM   41  C   UNL     1      -9.551   7.387  65.801  1.00  0.00     0.426 C  
HETATM   42  C   UNL     1      -8.265   9.075  64.487  1.00  0.00    -0.159 C  
HETATM   43  C   UNL     1      -9.502   6.193  66.799  1.00  0.00    -0.146 C  
ENDBRANCH  11  36
TORSDOF 6
ENDMDL
MODEL      154
REMARK 921   NORMALIZED FREE ENERGY PREDICTED BY IDOCK:   66.50 KCAL/MOL
REMARK 922        TOTAL FREE ENERGY PREDICTED BY IDOCK:   88.10 KCAL/MOL
REMARK 923 INTER-LIGAND FREE ENERGY PREDICTED BY IDOCK:   68.37 KCAL/MOL
REMARK 924 INTRA-LIGAND FREE ENERGY PREDICTED BY IDOCK:   19.73 KCAL/MOL
REMARK 927      BINDING AFFINITY PREDICTED BY RF-SCORE:    0.00 PKD
ROOT
HETATM    1  C   UNL     1     -11.335   6.548  71.284  1.00  0.00    -0.355 C  
HETATM    2  C   UNL     1     -11.935   7.090  70.115  1.00  0.00    -0.133 C  
HETATM    3  C   UNL     1     -10.601   6.507  69.668  1.00  0.00    -0.243 C  
HETATM    4  C   UNL     1      -9.794   5.369  71.191  1.00  0.00    -0.185 C  
HETATM    5  C   UNL     1      -6.547   8.501  72.186  1.00  0.00    -0.085 C  
HETATM    6  C   UNL     1     -10.759   5.068  70.284  1.00  0.00     0.015 C  
HETATM    7  C   UNL     1      -7.600   9.173  71.270  1.00  0.00    -0.064 C  
HETATM    8  C   UNL     1      -6.787   9.853  69.923  1.00  0.00    -0.096 C  
HETATM    9  C   UNL     1     -11.763   3.943  70.118  1.00  0.00     8.896 C  
HETATM   10  C   UNL     1      -8.982   5.065  69.582  1.00  0.00    -0.133 C  
HETATM   11  C   UNL     1      -7.329  11.310  69.430  1.00  0.00    -0.025 C  
HETATM   12  C   UNL     1      -7.219  12.065  70.774  1.00  0.00     3.482 C  
HETATM   13  C   UNL     1      -8.532  11.718  71.507  1.00  0.00    12.702 C  
HETATM   14  C   UNL     1      -7.974   6.471  70.240  1.00  0.00    -0.115 C  
HETATM   15  C   UNL     1      -8.297  10.323  72.176  1.00  0.00     5.863 C  
HETATM   16  C   UNL     1      -9.486   9.868  73.038  1.00  0.00     6.468 C  
HETATM   17  C   UNL     1     -10.558   9.061  72.310  1.00  0.00    -0.061 C  
HETATM   18  C   UNL     1      -9.983   7.727  71.830  1.00  0.00    -0.219 C  
HETATM   19  C   UNL     1      -8.631   7.984  70.823  1.00  0.00    -0.129 C  
ENDROOT
BRANCH   3  20
HETATM   20  N   UNL     1     -10.503   6.432  68.062  1.00  0.00    -0.193 NA 
HETATM   21  C   UNL     1     -10.655   2.391  67.641  1.00  0.00     4.000 C  
HETATM   22  C   UNL     1      -9.407   5.865  67.268  1.00  0.00    -0.113 C  
HETATM   23  C   UNL     1     -11.609   3.321  65.551  1.00  0.00     4.833 C  
HETATM   24  C   UNL     1     -11.750   6.018  67.407  1.00  0.00     1.582 C  
HETATM   25  C   UNL     1      -9.536   4.414  66.672  1.00  0.00    -0.198 C  
HETATM   26  N   UNL     1     -10.925   3.686  66.864  1.00  0.00     2.970 N  
HETATM   27  C   UNL     1     -11.941   4.527  67.631  1.00  0.00     9.327 C  
ENDBRANCH   3  20
BRANCH   4  28
HETATM   28  O   UNL     1      -9.749   3.869  71.536  1.00  0.00    -0.159 OA 
BRANCH  28  29
HETATM   29  C   UNL     1     -10.870   3.216  71.926  1.00  0.00     0.923 C  
HETATM   30  C   UNL     1     -10.686   1.724  71.974  1.00  0.00     0.179 C  
HETATM   31  O   UNL     1     -11.914   3.775  72.280  1.00  0.00     1.574 OA 
ENDBRANCH  28  29
ENDBRANCH   4  28
BRANCH  12  32
HETATM   32  O   UNL     1      -6.755  13.409  70.642  1.00  0.00     0.347 OA 
BRANCH  32  33
HETATM   33  C   UNL     1      -7.653  14.211  70.004  1.00  0.00     0.694 C  
HETATM   34  O   UNL     1      -7.330  14.831  69.007  1.00  0.00    -0.121 OA 
HETATM   35  C   UNL     1      -9.008  14.394  70.651  1.00  0.00     2.789 C  
ENDBRANCH  32  33
ENDBRANCH  12  32
BRANCH  11  36
HETATM   36  N   UNL     1      -6.963  12.057  68.153  1.00  0.00    -0.073 NA 
HETATM   37  C   UNL     1      -8.255  14.297  67.424  1.00  0.00    -0.202 C  
HETATM   38  C   UNL     1      -7.010  13.533  68.039  1.00  0.00    -0.133 C  
HETATM   39  N   UNL     1      -9.010  13.591  66.271  1.00  0.00     0.032 N  
HETATM   40  C   UNL     1      -8.472  14.048  64.913  1.00  0.00     5.321 C  
HETATM   41  C   UNL     1      -8.958  12.063  66.449  1.00  0.00    -0.161 C  
HETATM   42  C   UNL     1     -10.501  14.019  66.289  1.00  0.00    -0.286 C  
HETATM   43  C   UNL     1      -7.560  11.533  66.884  1.00  0.00    -0.151 C  
ENDBRANCH  11  36
TORSDOF 6
ENDMDL
MODEL      155
REMARK 921   NORMALIZED FREE ENERGY PREDICTED BY IDOCK:   74.38 KCAL/MOL
REMARK 922        TOTAL FREE ENERGY PREDICTED BY IDOCK:   98.74 KCAL/MOL
REMARK 923 INTER-LIGAND FREE ENERGY PREDICTED BY IDOCK:   79.75 KCAL/MOL
REMARK 924 INTRA-LIGAND FREE ENERGY PREDICTED BY IDOCK:   18.99 KCAL/MOL
REMARK 927      BINDING AFFINITY PREDICTED BY RF-SCORE:    0.00 PKD
ROOT
HETATM    1  C   UNL     1     -11.638   9.523  67.636  1.00  0.00     1.341 C  
HETATM    2  C   UNL     1     -12.341  10.165  68.692  1.00  0.00     1.462 C  
HETATM    3  C   UNL     1     -11.994  11.261  67.694  1.00  0.00     0.154 C  
HETATM    4  C   UNL     1     -11.296  10.415  65.944  1.00  0.00     0.992 C  
HETATM    5  C   UNL     1      -6.922  11.655  66.763  1.00  0.00    -0.080 C  
HETATM    6  C   UNL     1     -12.566  10.582  66.395  1.00  0.00     6.699 C  
HETATM    7  C   UNL     1      -7.727  11.838  68.073  1.00  0.00    -0.123 C  
HETATM    8  C   UNL     1      -7.503  13.445  68.625  1.00  0.00    -0.104 C  
HETATM    9  C   UNL     1     -13.931  10.073  65.972  1.00  0.00    22.039 C  
HETATM   10  C   UNL     1     -11.739  12.176  65.742  1.00  0.00    -0.391 C  
HETATM   11  C   UNL     1      -7.327  13.623  70.236  1.00  0.00     1.303 C  
HETATM   12  C   UNL     1      -6.158  12.634  70.452  1.00  0.00    -0.016 C  
HETATM   13  C   UNL     1      -6.849  11.260  70.582  1.00  0.00     1.137 C  
HETATM   14  C   UNL     1      -9.968  12.303  66.265  1.00  0.00    -0.249 C  
HETATM   15  C   UNL     1      -7.108  10.766  69.121  1.00  0.00    -0.101 C  
HETATM   16  C   UNL     1      -7.709   9.352  69.067  1.00  0.00    -0.075 C  
HETATM   17  C   UNL     1      -9.234   9.282  69.096  1.00  0.00    -0.149 C  
HETATM   18  C   UNL     1      -9.817   9.925  67.836  1.00  0.00    -0.170 C  
HETATM   19  C   UNL     1      -9.288  11.539  67.685  1.00  0.00    -0.171 C  
ENDROOT
BRANCH   3  20
HETATM   20  N   UNL     1     -12.788  12.624  68.021  1.00  0.00     1.230 NA 
HETATM   21  C   UNL     1      -9.868  14.532  70.110  1.00  0.00     0.823 C  
HETATM   22  C   UNL     1     -13.207  13.109  69.341  1.00  0.00     2.129 C  
HETATM   23  C   UNL     1     -11.239  16.323  69.082  1.00  0.00    -0.309 C  
HETATM   24  C   UNL     1     -12.294  13.794  67.285  1.00  0.00    -0.164 C  
HETATM   25  C   UNL     1     -12.353  14.201  70.086  1.00  0.00    -0.351 C  
HETATM   26  N   UNL     1     -11.134  14.816  69.290  1.00  0.00    -0.255 N  
HETATM   27  C   UNL     1     -10.970  14.224  67.894  1.00  0.00    -0.267 C  
ENDBRANCH   3  20
BRANCH   4  28
HETATM   28  O   UNL     1     -11.903  10.069  64.571  1.00  0.00     4.242 OA 
BRANCH  28  29
HETATM   29  C   UNL     1     -11.393  10.604  63.436  1.00  0.00     1.602 C  
HETATM   30  C   UNL     1     -12.423  10.752  62.350  1.00  0.00     3.471 C  
HETATM   31  O   UNL     1     -10.230  11.003  63.316  1.00  0.00    -0.339 OA 
ENDBRANCH  28  29
ENDBRANCH   4  28
BRANCH  12  32
HETATM   32  O   UNL     1      -5.186  13.088  71.394  1.00  0.00    -0.166 OA 
BRANCH  32  33
HETATM   33  C   UNL     1      -5.412  12.607  72.649  1.00  0.00     0.738 C  
HETATM   34  O   UNL     1      -5.761  11.453  72.816  1.00  0.00     0.551 OA 
HETATM   35  C   UNL     1      -5.337  13.590  73.796  1.00  0.00    -0.052 C  
ENDBRANCH  32  33
ENDBRANCH  12  32
BRANCH  11  36
HETATM   36  N   UNL     1      -7.328  14.920  71.036  1.00  0.00     1.186 NA 
HETATM   37  C   UNL     1      -9.415  15.607  72.582  1.00  0.00     7.754 C  
HETATM   38  C   UNL     1      -7.949  15.042  72.375  1.00  0.00     6.532 C  
HETATM   39  N   UNL     1      -9.880  16.721  71.611  1.00  0.00     4.935 N  
HETATM   40  C   UNL     1      -9.613  18.105  72.208  1.00  0.00     9.645 C  
HETATM   41  C   UNL     1      -9.231  16.534  70.228  1.00  0.00     1.773 C  
HETATM   42  C   UNL     1     -11.417  16.641  71.427  1.00  0.00     0.130 C  
HETATM   43  C   UNL     1      -7.722  16.158  70.291  1.00  0.00     1.414 C  
ENDBRANCH  11  36
TORSDOF 6
ENDMDL
MODEL      156
REMARK 921   NORMALIZED FREE ENERGY PREDICTED BY IDOCK:   76.31 KCAL/MOL
REMARK 922        TOTAL FREE ENERGY PREDICTED BY IDOCK:  101.35 KCAL/MOL
REMARK 923 INTER-LIGAND FREE ENERGY PREDICTED BY IDOCK:   78.47 KCAL/MOL
REMARK 924 INTRA-LIGAND FREE ENERGY PREDICTED BY IDOCK:   22.87 KCAL/MOL
REMARK 927      BINDING AFFINITY PREDICTED BY RF-SCORE:    0.00 PKD
ROOT
HETATM    1  C   UNL     1     -12.586  14.034  71.941  1.00  0.00    -0.347 C  
HETATM    2  C   UNL     1     -11.628  13.887  72.982  1.00  0.00     2.156 C  
HETATM    3  C   UNL     1     -10.832  13.928  71.684  1.00  0.00     3.489 C  
HETATM    4  C   UNL     1     -12.065  14.503  70.129  1.00  0.00    -0.334 C  
HETATM    5  C   UNL     1     -12.220  10.258  68.314  1.00  0.00     1.517 C  
HETATM    6  C   UNL     1     -11.441  15.247  71.079  1.00  0.00    -0.396 C  
HETATM    7  C   UNL     1     -11.629  10.150  69.742  1.00  0.00    -0.245 C  
HETATM    8  C   UNL     1     -10.126   9.330  69.643  1.00  0.00    -0.208 C  
HETATM    9  C   UNL     1     -11.528  16.689  71.541  1.00  0.00     0.066 C  
HETATM   10  C   UNL     1     -10.293  14.606  69.694  1.00  0.00    -0.025 C  
HETATM   11  C   UNL     1      -9.822   8.264  70.838  1.00  0.00    -0.182 C  
HETATM   12  C   UNL     1     -11.103   7.406  70.715  1.00  0.00    -0.265 C  
HETATM   13  C   UNL     1     -12.152   8.179  71.542  1.00  0.00    -0.332 C  
HETATM   14  C   UNL     1     -10.685  12.860  69.220  1.00  0.00     0.032 C  
HETATM   15  C   UNL     1     -12.708   9.295  70.598  1.00  0.00     0.111 C  
HETATM   16  C   UNL     1     -13.847  10.105  71.240  1.00  0.00     0.116 C  
HETATM   17  C   UNL     1     -13.414  11.337  72.033  1.00  0.00    -0.289 C  
HETATM   18  C   UNL     1     -12.775  12.368  71.101  1.00  0.00    -0.336 C  
HETATM   19  C   UNL     1     -11.450  11.687  70.271  1.00  0.00    -0.118 C  
ENDROOT
BRANCH   3  20
HETATM   20  N   UNL     1      -9.257  14.106  71.968  1.00  0.00     7.008 NA 
HETATM   21  C   UNL     1      -8.349  10.223  72.760  1.00  0.00     7.863 C  
HETATM   22  C   UNL     1      -8.558  13.896  73.241  1.00  0.00    11.460 C  
HETATM   23  C   UNL     1      -6.272  11.228  71.853  1.00  0.00     2.188 C  
HETATM   24  C   UNL     1      -8.395  13.544  70.921  1.00  0.00     6.409 C  
HETATM   25  C   UNL     1      -7.784  12.550  73.501  1.00  0.00    14.606 C  
HETATM   26  N   UNL     1      -7.699  11.533  72.295  1.00  0.00    11.478 N  
HETATM   27  C   UNL     1      -8.415  12.029  71.042  1.00  0.00     9.577 C  
ENDBRANCH   3  20
BRANCH   4  28
HETATM   28  O   UNL     1     -12.358  15.822  69.389  1.00  0.00    -0.248 OA 
BRANCH  28  29
HETATM   29  C   UNL     1     -11.402  16.774  69.270  1.00  0.00     0.112 C  
HETATM   30  C   UNL     1     -11.964  18.169  69.311  1.00  0.00     5.506 C  
HETATM   31  O   UNL     1     -10.190  16.541  69.213  1.00  0.00    -0.269 OA 
ENDBRANCH  28  29
ENDBRANCH   4  28
BRANCH  12  32
HETATM   32  O   UNL     1     -10.877   6.007  70.891  1.00  0.00    -0.257 OA 
BRANCH  32  33
HETATM   33  C   UNL     1     -10.602   5.681  72.186  1.00  0.00    -0.223 C  
HETATM   34  O   UNL     1     -10.693   6.517  73.067  1.00  0.00    -0.236 OA 
HETATM   35  C   UNL     1     -10.062   4.294  72.456  1.00  0.00    -0.233 C  
ENDBRANCH  32  33
ENDBRANCH  12  32
BRANCH  11  36
HETATM   36  N   UNL     1      -8.508   7.554  71.142  1.00  0.00    -0.116 NA 
HETATM   37  C   UNL     1      -7.236   6.105  69.271  1.00  0.00    -0.082 C  
HETATM   38  C   UNL     1      -7.418   7.412  70.149  1.00  0.00    -0.087 C  
HETATM   39  N   UNL     1      -7.609   4.757  69.936  1.00  0.00    -0.055 N  
HETATM   40  C   UNL     1      -6.377   4.109  70.572  1.00  0.00    -0.026 C  
HETATM   41  C   UNL     1      -8.762   4.952  70.937  1.00  0.00    -0.120 C  
HETATM   42  C   UNL     1      -8.087   3.758  68.852  1.00  0.00    -0.058 C  
HETATM   43  C   UNL     1      -8.614   6.224  71.821  1.00  0.00    -0.133 C  
ENDBRANCH  11  36
TORSDOF 6
ENDMDL
MODEL      157
REMARK 921   NORMALIZED FREE ENERGY PREDICTED BY IDOCK:   89.72 KCAL/MOL
REMARK 922        TOTAL FREE ENERGY PREDICTED BY IDOCK:  119.45 KCAL/MOL
REMARK 923 INTER-LIGAND FREE ENERGY PREDICTED BY IDOCK:  116.68 KCAL/MOL
REMARK 924 INTRA-LIGAND FREE ENERGY PREDICTED BY IDOCK:    2.78 KCAL/MOL
REMARK 927      BINDING AFFINITY PREDICTED BY RF-SCORE:    0.00 PKD
ROOT
HETATM    1  C   UNL     1      -8.470   7.448  69.487  1.00  0.00    -0.133 C  
HETATM    2  C   UNL     1      -9.658   7.944  68.885  1.00  0.00    -0.155 C  
HETATM    3  C   UNL     1      -8.506   8.507  68.063  1.00  0.00    -0.131 C  
HETATM    4  C   UNL     1      -6.744   7.574  68.604  1.00  0.00    -0.054 C  
HETATM    5  C   UNL     1      -5.153  11.275  70.864  1.00  0.00    -0.114 C  
HETATM    6  C   UNL     1      -7.742   7.160  67.781  1.00  0.00    -0.112 C  
HETATM    7  C   UNL     1      -6.661  11.493  70.586  1.00  0.00     1.115 C  
HETATM    8  C   UNL     1      -6.850  12.993  69.779  1.00  0.00     0.258 C  
HETATM    9  C   UNL     1      -8.108   5.849  67.112  1.00  0.00    -0.102 C  
HETATM   10  C   UNL     1      -6.597   8.493  67.031  1.00  0.00    -0.058 C  
HETATM   11  C   UNL     1      -8.133  13.888  70.239  1.00  0.00     2.226 C  
HETATM   12  C   UNL     1      -7.849  13.935  71.758  1.00  0.00     6.838 C  
HETATM   13  C   UNL     1      -8.454  12.620  72.293  1.00  0.00    19.709 C  
HETATM   14  C   UNL     1      -6.158   9.804  68.263  1.00  0.00    -0.050 C  
HETATM   15  C   UNL     1      -7.375  11.516  72.042  1.00  0.00     8.780 C  
HETATM   16  C   UNL     1      -7.781  10.146  72.611  1.00  0.00     4.924 C  
HETATM   17  C   UNL     1      -8.567   9.244  71.663  1.00  0.00     0.305 C  
HETATM   18  C   UNL     1      -7.698   8.848  70.467  1.00  0.00    -0.106 C  
HETATM   19  C   UNL     1      -7.131  10.235  69.652  1.00  0.00    -0.125 C  
ENDROOT
BRANCH   3  20
HETATM   20  N   UNL     1      -9.031   9.163  66.690  1.00  0.00    -0.133 NA 
HETATM   21  C   UNL     1     -11.630   6.237  65.585  1.00  0.00     3.715 C  
HETATM   22  C   UNL     1      -8.825   8.652  65.329  1.00  0.00    -0.135 C  
HETATM   23  C   UNL     1     -12.518   8.332  64.600  1.00  0.00    20.709 C  
HETATM   24  C   UNL     1     -10.418   9.641  66.749  1.00  0.00    -0.186 C  
HETATM   25  C   UNL     1      -9.967   7.840  64.611  1.00  0.00     3.793 C  
HETATM   26  N   UNL     1     -11.348   7.730  65.371  1.00  0.00     6.750 N  
HETATM   27  C   UNL     1     -11.346   8.438  66.723  1.00  0.00     1.871 C  
ENDBRANCH   3  20
BRANCH   4  28
HETATM   28  O   UNL     1      -5.898   6.414  68.045  1.00  0.00    -0.011 OA 
BRANCH  28  29
HETATM   29  C   UNL     1      -5.818   5.236  68.709  1.00  0.00    -0.020 C  
HETATM   30  C   UNL     1      -5.957   4.046  67.800  1.00  0.00    -0.027 C  
HETATM   31  O   UNL     1      -5.578   5.132  69.917  1.00  0.00    -0.010 OA 
ENDBRANCH  28  29
ENDBRANCH   4  28
BRANCH  12  32
HETATM   32  O   UNL     1      -8.133  15.201  72.357  1.00  0.00     5.131 OA 
BRANCH  32  33
HETATM   33  C   UNL     1      -8.382  15.102  73.693  1.00  0.00    10.928 C  
HETATM   34  O   UNL     1      -7.748  15.765  74.493  1.00  0.00    10.308 OA 
HETATM   35  C   UNL     1      -9.377  14.053  74.140  1.00  0.00    10.504 C  
ENDBRANCH  32  33
ENDBRANCH  12  32
BRANCH  11  36
HETATM   36  N   UNL     1      -8.682  15.142  69.570  1.00  0.00    -0.184 NA 
HETATM   37  C   UNL     1     -11.320  15.647  69.496  1.00  0.00    -0.327 C  
HETATM   38  C   UNL     1      -9.863  15.877  70.078  1.00  0.00     0.043 C  
HETATM   39  N   UNL     1     -11.427  15.327  67.984  1.00  0.00    -0.345 N  
HETATM   40  C   UNL     1     -11.659  16.606  67.176  1.00  0.00     0.766 C  
HETATM   41  C   UNL     1     -10.192  14.540  67.512  1.00  0.00    -0.232 C  
HETATM   42  C   UNL     1     -12.677  14.445  67.728  1.00  0.00     0.920 C  
HETATM   43  C   UNL     1      -8.849  15.082  68.084  1.00  0.00    -0.167 C  
ENDBRANCH  11  36
TORSDOF 6
ENDMDL
MODEL      158
REMARK 921   NORMALIZED FREE ENERGY PREDICTED BY IDOCK:   96.31 KCAL/MOL
REMARK 922        TOTAL FREE ENERGY PREDICTED BY IDOCK:  128.36 KCAL/MOL
REMARK 923 INTER-LIGAND FREE ENERGY PREDICTED BY IDOCK:  126.13 KCAL/MOL
REMARK 924 INTRA-LIGAND FREE ENERGY PREDICTED BY IDOCK:    2.23 KCAL/MOL
REMARK 927      BINDING AFFINITY PREDICTED BY RF-SCORE:    0.00 PKD
ROOT
HETATM    1  C   UNL     1      -9.920   9.330  65.903  1.00  0.00    -0.289 C  
HETATM    2  C   UNL     1      -9.898   9.060  67.298  1.00  0.00    -0.252 C  
HETATM    3  C   UNL     1     -11.344   9.402  66.962  1.00  0.00     1.091 C  
HETATM    4  C   UNL     1     -11.586   9.458  64.911  1.00  0.00     7.861 C  
HETATM    5  C   UNL     1     -11.893  14.066  64.794  1.00  0.00    -0.415 C  
HETATM    6  C   UNL     1     -11.546   8.402  65.764  1.00  0.00     6.925 C  
HETATM    7  C   UNL     1     -11.355  13.655  66.187  1.00  0.00    -0.324 C  
HETATM    8  C   UNL     1     -12.360  14.362  67.383  1.00  0.00    -0.067 C  
HETATM    9  C   UNL     1     -11.443   6.897  65.605  1.00  0.00     5.035 C  
HETATM   10  C   UNL     1     -13.179   9.392  65.803  1.00  0.00    20.009 C  
HETATM   11  C   UNL     1     -11.592  14.948  68.696  1.00  0.00    -0.318 C  
HETATM   12  C   UNL     1     -10.585  15.878  67.980  1.00  0.00    -0.287 C  
HETATM   13  C   UNL     1      -9.419  14.943  67.597  1.00  0.00    -0.199 C  
HETATM   14  C   UNL     1     -12.886  11.218  65.714  1.00  0.00     4.723 C  
HETATM   15  C   UNL     1      -9.846  14.243  66.265  1.00  0.00    -0.323 C  
HETATM   16  C   UNL     1      -8.744  13.341  65.686  1.00  0.00     1.320 C  
HETATM   17  C   UNL     1      -8.760  11.891  66.163  1.00  0.00    -0.009 C  
HETATM   18  C   UNL     1     -10.033  11.189  65.683  1.00  0.00    -0.297 C  
HETATM   19  C   UNL     1     -11.418  12.020  66.228  1.00  0.00    -0.408 C  
ENDROOT
BRANCH   3  20
HETATM   20  N   UNL     1     -12.331   9.039  68.180  1.00  0.00     4.083 NA 
HETATM   21  C   UNL     1      -9.653   9.319  71.226  1.00  0.00    -0.202 C  
HETATM   22  C   UNL     1     -12.272   7.854  69.044  1.00  0.00     2.790 C  
HETATM   23  C   UNL     1     -11.859   9.860  72.219  1.00  0.00     0.690 C  
HETATM   24  C   UNL     1     -12.645  10.176  69.054  1.00  0.00     1.502 C  
HETATM   25  C   UNL     1     -11.614   7.953  70.472  1.00  0.00    -0.144 C  
HETATM   26  N   UNL     1     -11.160   9.389  70.948  1.00  0.00    -0.290 N  
HETATM   27  C   UNL     1     -11.428  10.477  69.912  1.00  0.00    -0.310 C  
ENDBRANCH   3  20
BRANCH   4  28
HETATM   28  O   UNL     1     -12.107   8.483  63.839  1.00  0.00    17.303 OA 
BRANCH  28  29
HETATM   29  C   UNL     1     -11.245   7.730  63.112  1.00  0.00    17.141 C  
HETATM   30  C   UNL     1     -11.689   6.299  62.985  1.00  0.00    10.444 C  
HETATM   31  O   UNL     1     -10.241   8.174  62.545  1.00  0.00     4.378 OA 
ENDBRANCH  28  29
ENDBRANCH   4  28
BRANCH  12  32
HETATM   32  O   UNL     1     -10.374  17.122  68.651  1.00  0.00    -0.315 OA 
BRANCH  32  33
HETATM   33  C   UNL     1     -10.833  18.185  67.933  1.00  0.00    -0.202 C  
HETATM   34  O   UNL     1     -11.264  19.174  68.498  1.00  0.00     0.706 OA 
HETATM   35  C   UNL     1     -10.903  18.033  66.429  1.00  0.00     0.034 C  
ENDBRANCH  32  33
ENDBRANCH  12  32
BRANCH  11  36
HETATM   36  N   UNL     1     -12.213  15.429  70.002  1.00  0.00    -0.362 NA 
HETATM   37  C   UNL     1     -11.142  17.462  71.395  1.00  0.00     1.704 C  
HETATM   38  C   UNL     1     -12.227  16.852  70.414  1.00  0.00     2.625 C  
HETATM   39  N   UNL     1     -10.602  16.530  72.508  1.00  0.00     3.009 N  
HETATM   40  C   UNL     1     -11.400  16.713  73.801  1.00  0.00     1.396 C  
HETATM   41  C   UNL     1     -10.581  15.069  72.023  1.00  0.00     1.318 C  
HETATM   42  C   UNL     1      -9.147  16.933  72.861  1.00  0.00    15.374 C  
HETATM   43  C   UNL     1     -11.856  14.654  71.232  1.00  0.00    -0.319 C  
ENDBRANCH  11  36
TORSDOF 6
ENDMDL
MODEL      159
REMARK 921   NORMALIZED FREE ENERGY PREDICTED BY IDOCK:  105.40 KCAL/MOL
REMARK 922        TOTAL FREE ENERGY PREDICTED BY IDOCK:  140.63 KCAL/MOL
REMARK 923 INTER-LIGAND FREE ENERGY PREDICTED BY IDOCK:  133.08 KCAL/MOL
REMARK 924 INTRA-LIGAND FREE ENERGY PREDICTED BY IDOCK:    7.55 KCAL/MOL
REMARK 927      BINDING AFFINITY PREDICTED BY RF-SCORE:    0.00 PKD
ROOT
HETATM    1  C   UNL     1      -8.723   9.884  68.053  1.00  0.00    -0.125 C  
HETATM    2  C   UNL     1      -7.484  10.582  68.088  1.00  0.00    -0.090 C  
HETATM    3  C   UNL     1      -8.151  10.847  69.431  1.00  0.00     0.013 C  
HETATM    4  C   UNL     1      -9.782   9.600  69.657  1.00  0.00    -0.213 C  
HETATM    5  C   UNL     1     -12.829  13.011  69.006  1.00  0.00     1.250 C  
HETATM    6  C   UNL     1      -8.458   9.357  69.836  1.00  0.00    -0.186 C  
HETATM    7  C   UNL     1     -11.434  13.521  68.565  1.00  0.00    -0.345 C  
HETATM    8  C   UNL     1     -11.104  14.980  69.402  1.00  0.00    -0.290 C  
HETATM    9  C   UNL     1      -7.613   8.115  70.045  1.00  0.00    -0.077 C  
HETATM   10  C   UNL     1      -9.273  10.379  71.229  1.00  0.00     3.399 C  
HETATM   11  C   UNL     1     -10.371  16.146  68.529  1.00  0.00    -0.254 C  
HETATM   12  C   UNL     1     -11.372  16.219  67.352  1.00  0.00     0.113 C  
HETATM   13  C   UNL     1     -10.917  15.089  66.404  1.00  0.00    -0.336 C  
HETATM   14  C   UNL     1     -10.457  11.637  70.566  1.00  0.00     2.431 C  
HETATM   15  C   UNL     1     -11.546  13.773  66.967  1.00  0.00    -0.391 C  
HETATM   16  C   UNL     1     -11.270  12.551  66.075  1.00  0.00    -0.354 C  
HETATM   17  C   UNL     1      -9.990  11.781  66.390  1.00  0.00    -0.237 C  
HETATM   18  C   UNL     1     -10.082  11.147  67.780  1.00  0.00    -0.200 C  
HETATM   19  C   UNL     1     -10.378  12.337  68.964  1.00  0.00     0.008 C  
ENDROOT
BRANCH   3  20
HETATM   20  N   UNL     1      -7.123  11.520  70.472  1.00  0.00     0.746 NA 
HETATM   21  C   UNL     1      -9.769  12.428  73.423  1.00  0.00    23.724 C  
HETATM   22  C   UNL     1      -7.090  12.922  70.903  1.00  0.00     3.327 C  
HETATM   23  C   UNL     1      -7.589  12.092  74.555  1.00  0.00     8.683 C  
HETATM   24  C   UNL     1      -6.872  10.710  71.671  1.00  0.00     2.482 C  
HETATM   25  C   UNL     1      -7.732  13.338  72.280  1.00  0.00    10.651 C  
HETATM   26  N   UNL     1      -8.274  12.169  73.194  1.00  0.00    19.938 N  
HETATM   27  C   UNL     1      -8.095  10.788  72.571  1.00  0.00    10.725 C  
ENDBRANCH   3  20
BRANCH   4  28
HETATM   28  O   UNL     1     -10.052   8.261  70.368  1.00  0.00    -0.187 OA 
BRANCH  28  29
HETATM   29  C   UNL     1     -11.113   8.121  71.199  1.00  0.00    -0.245 C  
HETATM   30  C   UNL     1     -10.785   7.324  72.431  1.00  0.00    -0.283 C  
HETATM   31  O   UNL     1     -12.215   8.650  71.016  1.00  0.00    -0.273 OA 
ENDBRANCH  28  29
ENDBRANCH   4  28
BRANCH  12  32
HETATM   32  O   UNL     1     -11.620  17.547  66.889  1.00  0.00     0.899 OA 
BRANCH  32  33
HETATM   33  C   UNL     1     -12.458  17.576  65.815  1.00  0.00     6.666 C  
HETATM   34  O   UNL     1     -13.520  18.169  65.875  1.00  0.00    12.057 OA 
HETATM   35  C   UNL     1     -12.076  16.746  64.610  1.00  0.00     1.841 C  
ENDBRANCH  32  33
ENDBRANCH  12  32
BRANCH  11  36
HETATM   36  N   UNL     1      -9.763  17.448  69.038  1.00  0.00    -0.237 NA 
HETATM   37  C   UNL     1      -9.024  17.738  71.604  1.00  0.00    11.104 C  
HETATM   38  C   UNL     1      -8.703  17.495  70.071  1.00  0.00     2.121 C  
HETATM   39  N   UNL     1     -10.210  18.677  71.932  1.00  0.00     3.635 N  
HETATM   40  C   UNL     1      -9.722  20.112  72.142  1.00  0.00     2.911 C  
HETATM   41  C   UNL     1     -11.296  18.571  70.846  1.00  0.00     4.843 C  
HETATM   42  C   UNL     1     -10.848  18.256  73.281  1.00  0.00     2.790 C  
HETATM   43  C   UNL     1     -10.729  18.534  69.396  1.00  0.00     1.041 C  
ENDBRANCH  11  36
TORSDOF 6
ENDMDL
MODEL      160
REMARK 921   NORMALIZED FREE ENERGY PREDICTED BY IDOCK:  123.20 KCAL/MOL
REMARK 922        TOTAL FREE ENERGY PREDICTED BY IDOCK:  164.68 KCAL/MOL
REMARK 923 INTER-LIGAND FREE ENERGY PREDICTED BY IDOCK:  160.06 KCAL/MOL
REMARK 924 INTRA-LIGAND FREE ENERGY PREDICTED BY IDOCK:    4.63 KCAL/MOL
REMARK 927      BINDING AFFINITY PREDICTED BY RF-SCORE:    0.00 PKD
ROOT
HETATM    1  C   UNL     1      -9.954   8.544  70.904  1.00  0.00    -0.237 C  
HETATM    2  C   UNL     1      -8.796   9.317  70.617  1.00  0.00    -0.287 C  
HETATM    3  C   UNL     1      -8.856   9.203  72.134  1.00  0.00     0.535 C  
HETATM    4  C   UNL     1     -10.279   7.804  72.671  1.00  0.00    -0.279 C  
HETATM    5  C   UNL     1     -13.267  11.002  74.150  1.00  0.00    13.261 C  
HETATM    6  C   UNL     1      -9.000   7.639  72.244  1.00  0.00    -0.177 C  
HETATM    7  C   UNL     1     -12.161  11.717  73.333  1.00  0.00     8.694 C  
HETATM    8  C   UNL     1     -11.495  12.963  74.304  1.00  0.00    11.678 C  
HETATM    9  C   UNL     1      -8.165   6.459  71.787  1.00  0.00    -0.113 C  
HETATM   10  C   UNL     1      -9.162   8.235  74.052  1.00  0.00     0.466 C  
HETATM   11  C   UNL     1     -11.157  14.358  73.530  1.00  0.00     2.333 C  
HETATM   12  C   UNL     1     -12.547  14.619  72.905  1.00  0.00    -0.358 C  
HETATM   13  C   UNL     1     -12.536  13.785  71.607  1.00  0.00    -0.309 C  
HETATM   14  C   UNL     1     -10.491   9.508  74.247  1.00  0.00    11.391 C  
HETATM   15  C   UNL     1     -12.906  12.325  72.028  1.00  0.00    -0.260 C  
HETATM   16  C   UNL     1     -13.037  11.374  70.827  1.00  0.00     0.022 C  
HETATM   17  C   UNL     1     -11.753  10.662  70.406  1.00  0.00    -0.446 C  
HETATM   18  C   UNL     1     -11.285   9.716  71.514  1.00  0.00    -0.377 C  
HETATM   19  C   UNL     1     -11.055  10.567  72.973  1.00  0.00     8.289 C  
ENDROOT
BRANCH   3  20
HETATM   20  N   UNL     1      -7.483   9.698  72.814  1.00  0.00     1.216 NA 
HETATM   21  C   UNL     1      -6.877  13.038  70.576  1.00  0.00     1.349 C  
HETATM   22  C   UNL     1      -6.160   9.772  72.184  1.00  0.00     0.409 C  
HETATM   23  C   UNL     1      -5.796  13.488  72.761  1.00  0.00     0.674 C  
HETATM   24  C   UNL     1      -7.624  10.911  73.630  1.00  0.00    10.251 C  
HETATM   25  C   UNL     1      -5.622  11.150  71.643  1.00  0.00     0.357 C  
HETATM   26  N   UNL     1      -6.509  12.424  71.933  1.00  0.00     3.238 N  
HETATM   27  C   UNL     1      -7.788  12.102  72.700  1.00  0.00    17.335 C  
ENDBRANCH   3  20
BRANCH   4  28
HETATM   28  O   UNL     1     -10.261   6.318  73.075  1.00  0.00    -0.181 OA 
BRANCH  28  29
HETATM   29  C   UNL     1     -10.802   5.376  72.265  1.00  0.00    -0.227 C  
HETATM   30  C   UNL     1     -12.304   5.437  72.226  1.00  0.00     0.551 C  
HETATM   31  O   UNL     1     -10.143   4.596  71.568  1.00  0.00    -0.191 OA 
ENDBRANCH  28  29
ENDBRANCH   4  28
BRANCH  12  32
HETATM   32  O   UNL     1     -12.938  15.993  72.923  1.00  0.00    -0.461 OA 
BRANCH  32  33
HETATM   33  C   UNL     1     -12.839  16.579  71.697  1.00  0.00     1.446 C  
HETATM   34  O   UNL     1     -12.950  17.786  71.576  1.00  0.00     8.628 OA 
HETATM   35  C   UNL     1     -12.718  15.667  70.496  1.00  0.00    -0.391 C  
ENDBRANCH  32  33
ENDBRANCH  12  32
BRANCH  11  36
HETATM   36  N   UNL     1     -10.372  15.552  74.062  1.00  0.00     5.621 NA 
HETATM   37  C   UNL     1     -10.696  18.011  73.029  1.00  0.00     3.518 C  
HETATM   38  C   UNL     1     -10.939  16.917  74.150  1.00  0.00     3.498 C  
HETATM   39  N   UNL     1      -9.323  17.987  72.313  1.00  0.00    10.866 N  
HETATM   40  C   UNL     1      -8.340  18.939  72.997  1.00  0.00     8.297 C  
HETATM   41  C   UNL     1      -8.790  16.546  72.221  1.00  0.00    12.493 C  
HETATM   42  C   UNL     1      -9.482  18.525  70.868  1.00  0.00     4.190 C  
HETATM   43  C   UNL     1      -8.984  15.723  73.529  1.00  0.00    13.746 C  
ENDBRANCH  11  36
TORSDOF 6
ENDMDL
